MODEL 5
REMARK VINA RESULT: -9.520185080      1.688      2.231
REMARK  11 active torsions:
REMARK  status: ('A' for Active; 'I' for Inactive)
REMARK       I    between atoms: N1_5  and  C5_6
REMARK    1  A    between atoms: C5_6  and  C6_8
REMARK    2  A    between atoms: C6_8  and  N2_9
REMARK    3  A    between atoms: N2_9  and  C7_11
REMARK    4  A    between atoms: C7_11  and  O2_12
REMARK    5  A    between atoms: C7_11  and  C8_14
REMARK    6  A    between atoms: C10_16  and  S1_17
REMARK    7  A    between atoms: S1_17  and  N3_20
REMARK    8  A    between atoms: C13_23  and  C14_24
REMARK    9  A    between atoms: C19_32  and  O5_33
REMARK   10  A    between atoms: O5_33  and  C20_34
REMARK   11  A    between atoms: C20_34  and  C21_36
ROOT
HETATM    1  C8  UNL     1       4.429  -4.519 -13.028  1.00  0.00     0.050 A
HETATM    2  C9  UNL     1       4.190  -3.132 -12.828  1.00  0.00     0.044 A
HETATM    3  C10 UNL     1       4.531  -2.147 -13.688  1.00  0.00     0.080 A
HETATM    4  C17 UNL     1       5.168  -2.460 -14.864  1.00  0.00     0.028 A
HETATM    5  C18 UNL     1       5.427  -3.785 -15.107  1.00  0.00     0.040 A
HETATM    6  C19 UNL     1       5.064  -4.814 -14.206  1.00  0.00     0.093 A
ENDROOT
BRANCH   1   7
HETATM    7  C7  UNL     1       3.939  -5.449 -12.075  1.00  0.00     0.150 C
BRANCH   7   8
HETATM    8  N2  UNL     1       2.852  -5.446 -11.179  1.00  0.00    -0.351 N
ATOM      9  H2  UNL     1       1.885  -5.478 -11.503  1.00  0.00     0.163 HD
BRANCH   8  10
HETATM   10  C6  UNL     1       3.193  -5.394  -9.732  1.00  0.00     0.131 A
HETATM   11  C24 UNL     1       4.347  -4.538  -9.386  1.00  0.00     0.066 A
HETATM   12  C25 UNL     1       2.976  -4.047  -9.076  1.00  0.00     0.122 A
HETATM   13 CL1  UNL     1       2.246  -2.724  -9.998  1.00  0.00    -0.122 Cl
BRANCH  10  14
HETATM   14  C5  UNL     1       2.805  -6.514  -8.854  1.00  0.00     0.249 C
HETATM   15  N1  UNL     1       3.608  -7.539  -8.404  1.00  0.00    -0.350 N
HETATM   16  C4  UNL     1       5.000  -7.852  -8.808  1.00  0.00     0.126 C
HETATM   17  C26 UNL     1       3.322  -8.649  -7.488  1.00  0.00     0.130 C
HETATM   18  C3  UNL     1       4.625  -9.246  -9.430  1.00  0.00     0.026 C
HETATM   19  C2  UNL     1       3.666  -9.823  -8.428  1.00  0.00     0.001 C
HETATM   20  C1  UNL     1       2.383 -10.304  -9.121  1.00  0.00     0.011 C
HETATM   21  O1  UNL     1       1.561  -6.511  -8.497  1.00  0.00    -0.270 OA
ENDBRANCH  10  14
ENDBRANCH   8  10
ENDBRANCH   7   8
BRANCH   7  22
HETATM   22  O2  UNL     1       4.631  -6.557 -11.997  1.00  0.00    -0.346 OA
ATOM     23  H2  UNL     1       5.566  -6.391 -12.020  1.00  0.00     0.219 HD
ENDBRANCH   7  22
ENDBRANCH   1   7
BRANCH   6  24
HETATM   24  O5  UNL     1       5.382  -6.090 -14.582  1.00  0.00    -0.278 OA
BRANCH  24  25
HETATM   25  C20 UNL     1       6.458  -6.492 -15.329  1.00  0.00     0.268 C
HETATM   26  O6  UNL     1       7.589  -6.580 -14.777  1.00  0.00    -0.264 OA
BRANCH  25  27
HETATM   27  C21 UNL     1       6.347  -6.835 -16.782  1.00  0.00     0.086 A
HETATM   28  C22 UNL     1       5.139  -6.475 -17.564  1.00  0.00     0.015 A
HETATM   29  C23 UNL     1       5.172  -7.865 -17.008  1.00  0.00     0.015 A
ENDBRANCH  25  27
ENDBRANCH  24  25
ENDBRANCH   6  24
BRANCH   3  30
HETATM   30  S1  UNL     1       4.117  -0.458 -13.377  1.00  0.00     0.260 S
HETATM   31  O3  UNL     1       3.888  -0.300 -11.911  1.00  0.00    -0.200 OA
HETATM   32  O4  UNL     1       2.762  -0.197 -14.056  1.00  0.00    -0.200 OA
BRANCH  30  33
HETATM   33  N3  UNL     1       5.280   0.632 -13.931  1.00  0.00    -0.307 N
HETATM   34  C11 UNL     1       5.600   1.726 -13.063  1.00  0.00     0.136 C
HETATM   35  C12 UNL     1       4.746   2.946 -13.270  1.00  0.00     0.034 C
HETATM   36  C13 UNL     1       4.873   3.368 -14.705  1.00  0.00     0.096 C
HETATM   37  C15 UNL     1       4.235   2.225 -15.510  1.00  0.00     0.034 C
HETATM   38  C16 UNL     1       5.163   1.039 -15.294  1.00  0.00     0.136 C
BRANCH  36  39
HETATM   39  C14 UNL     1       4.255   4.697 -15.027  1.00  0.00     0.391 C
HETATM   40  F1  UNL     1       4.631   5.594 -14.078  1.00  0.00    -0.171 F
HETATM   41  F2  UNL     1       4.803   5.114 -16.241  1.00  0.00    -0.171 F
HETATM   42  F3  UNL     1       2.888   4.580 -15.187  1.00  0.00    -0.171 F
ENDBRANCH  36  39
ENDBRANCH  30  33
ENDBRANCH   3  30
TORSDOF 11
ENDMDL