MODEL 1
REMARK VINA RESULT: -9.993343260      0.000      0.000
REMARK  8 active torsions:
REMARK  status: ('A' for Active; 'I' for Inactive)
REMARK    1  A    between atoms: C2_2  and  N2_6
REMARK       I    between atoms: N2_6  and  C5_8
REMARK    2  A    between atoms: C5_8  and  C6_10
REMARK    3  A    between atoms: N3_13  and  C9_14
REMARK    4  A    between atoms: C9_14  and  C10_15
REMARK    5  A    between atoms: C10_15  and  C11_16
REMARK    6  A    between atoms: N4_21  and  C15_22
REMARK       I    between atoms: N5_25  and  C18_26
REMARK    7  A    between atoms: C18_26  and  C19_28
REMARK    8  A    between atoms: N6_32  and  C23_33
ROOT
HETATM    1  C1  UNL     1       7.215  -6.765 -15.505  1.00  0.00     0.055 C
HETATM    2  C2  UNL     1       5.782  -6.609 -15.953  1.00  0.00     0.114 C
HETATM    3  C3  UNL     1       5.794  -5.816 -17.236  1.00  0.00     0.055 C
HETATM    4  C4  UNL     1       5.260  -7.973 -16.188  1.00  0.00     0.090 C
HETATM    5  N1  UNL     1       4.866  -9.042 -16.378  1.00  0.00    -0.195 NA
ENDROOT
BRANCH   2   6
HETATM    6  N2  UNL     1       5.022  -5.995 -14.910  1.00  0.00    -0.339 N
HETATM    7  C5  UNL     1       5.048  -4.605 -14.623  1.00  0.00     0.223 C
HETATM    8  O1  UNL     1       5.792  -3.861 -15.338  1.00  0.00    -0.273 OA
ATOM      9  H2  UNL     1       4.425  -6.592 -14.337  1.00  0.00     0.164 HD
BRANCH   7  10
HETATM   10  C6  UNL     1       4.220  -4.062 -13.514  1.00  0.00     0.082 C
HETATM   11  C7  UNL     1       3.264  -3.023 -13.972  1.00  0.00     0.044 C
HETATM   12  C8  UNL     1       3.283  -1.711 -13.290  1.00  0.00     0.274 C
HETATM   13  N3  UNL     1       3.715  -1.774 -11.883  1.00  0.00     0.097 N
HETATM   14  C27 UNL     1       5.034  -2.290 -11.922  1.00  0.00     0.153 C
HETATM   15  C28 UNL     1       5.778  -1.426 -12.966  1.00  0.00     0.049 C
HETATM   16  C29 UNL     1       5.833  -2.148 -10.652  1.00  0.00     0.049 C
HETATM   17  C30 UNL     1       5.072  -3.735 -12.339  1.00  0.00     0.055 C
BRANCH  13  18
HETATM   18  C9  UNL     1       2.710  -2.473 -11.182  1.00  0.00     0.275 C
BRANCH  18  19
HETATM   19  C10 UNL     1       2.135  -1.826  -9.970  1.00  0.00     0.055 C
BRANCH  19  20
HETATM   20  C11 UNL     1       2.711  -2.393  -8.679  1.00  0.00     0.084 C
HETATM   21  C12 UNL     1       2.657  -1.296  -7.603  1.00  0.00     0.064 C
HETATM   22  C13 UNL     1       2.369  -2.105  -6.364  1.00  0.00     0.189 C
HETATM   23  F1  UNL     1       3.579  -2.492  -5.837  1.00  0.00    -0.248 F
HETATM   24  C14 UNL     1       1.511  -3.207  -6.871  1.00  0.00     0.155 C
HETATM   25  N4  UNL     1       1.976  -3.481  -8.179  1.00  0.00    -0.401 N
BRANCH  25  26
HETATM   26  C15 UNL     1       2.314  -4.795  -8.494  1.00  0.00     0.082 C
HETATM   27  C16 UNL     1       1.610  -5.910  -7.799  1.00  0.00     0.045 C
HETATM   28  C17 UNL     1       1.824  -7.171  -8.663  1.00  0.00     0.127 C
HETATM   29  N5  UNL     1       3.223  -7.467  -8.658  1.00  0.00    -0.351 N
HETATM   30  C18 UNL     1       3.720  -8.698  -8.212  1.00  0.00     0.230 C
HETATM   31  C25 UNL     1       4.094  -6.401  -9.152  1.00  0.00     0.127 C
HETATM   32  O2  UNL     1       5.007  -8.808  -8.266  1.00  0.00    -0.272 OA
HETATM   33  C26 UNL     1       3.792  -5.094  -8.401  1.00  0.00     0.045 C
BRANCH  30  34
HETATM   34  C19 UNL     1       3.012  -9.860  -7.705  1.00  0.00     0.066 C
HETATM   35  C20 UNL     1       3.395 -10.084  -6.230  1.00  0.00     0.027 C
HETATM   36  C21 UNL     1       1.515  -9.789  -7.720  1.00  0.00     0.051 C
HETATM   37  C22 UNL     1       1.041 -11.189  -8.030  1.00  0.00     0.285 C
HETATM   38  N6  UNL     1       2.177 -11.977  -8.349  1.00  0.00     0.198 N
HETATM   39  C24 UNL     1       3.344 -11.164  -8.391  1.00  0.00     0.303 C
BRANCH  38  40
HETATM   40  C23 UNL     1       2.027 -12.901  -9.429  1.00  0.00     0.603 C
HETATM   41  F2  UNL     1       2.251 -14.171  -8.909  1.00  0.00    -0.144 F
HETATM   42  F3  UNL     1       2.952 -12.671 -10.429  1.00  0.00    -0.144 F
HETATM   43  F4  UNL     1       0.794 -12.926 -10.015  1.00  0.00    -0.144 F
ENDBRANCH  38  40
ENDBRANCH  30  34
ENDBRANCH  25  26
ENDBRANCH  19  20
ENDBRANCH  18  19
ENDBRANCH  13  18
ENDBRANCH   7  10
ENDBRANCH   2   6
TORSDOF 8
ENDMDL