MODEL 1
REMARK VINA RESULT: -8.693967853      0.000      0.000
REMARK  10 active torsions:
REMARK  status: ('A' for Active; 'I' for Inactive)
REMARK    1  A    between atoms: C2_2  and  C4_4
REMARK    2  A    between atoms: C4_4  and  O1_5
REMARK    3  A    between atoms: O1_5  and  C5_6
REMARK       I    between atoms: C5_6  and  N1_8
REMARK    4  A    between atoms: C7_10  and  N2_11
REMARK    5  A    between atoms: C16_22  and  N4_23
REMARK    6  A    between atoms: N4_23  and  C17_25
REMARK    7  A    between atoms: N5_32  and  C23_33
REMARK    8  A    between atoms: C23_33  and  O4_34
REMARK    9  A    between atoms: C23_33  and  C24_36
REMARK   10  A    between atoms: C24_36  and  C25_37
ROOT
HETATM    1  C4  UNL     1       3.764  -3.045 -10.559  1.00  0.00     0.153 C
HETATM    2  C15 UNL     1       4.315  -4.340 -11.265  1.00  0.00     0.088 C
HETATM    3  C16 UNL     1       4.291  -3.997 -12.703  1.00  0.00     0.099 C
HETATM    4  C22 UNL     1       4.211  -2.527 -12.708  1.00  0.00     0.152 C
HETATM    5  N5  UNL     1       3.143  -2.354 -11.608  1.00  0.00    -0.330 N
ENDROOT
BRANCH   1   6
HETATM    6  C2  UNL     1       4.982  -2.469  -9.901  1.00  0.00     0.034 C
HETATM    7  C1  UNL     1       4.751  -1.492  -8.801  1.00  0.00     0.014 C
HETATM    8  C3  UNL     1       5.651  -3.689  -9.190  1.00  0.00     0.014 C
ENDBRANCH   1   6
BRANCH   1   9
HETATM    9  O1  UNL     1       2.972  -3.512  -9.483  1.00  0.00    -0.271 OA
BRANCH   9  10
HETATM   10  C5  UNL     1       1.993  -4.454  -9.531  1.00  0.00     0.365 C
HETATM   11  O2  UNL     1       0.897  -4.150  -9.999  1.00  0.00    -0.238 OA
HETATM   12  N1  UNL     1       2.165  -5.797  -9.062  1.00  0.00    -0.324 N
HETATM   13  C6  UNL     1       1.386  -7.001  -8.955  1.00  0.00     0.165 C
HETATM   14  C14 UNL     1       3.289  -6.476  -8.476  1.00  0.00     0.165 C
HETATM   15  C7  UNL     1       2.444  -7.634  -8.140  1.00  0.00     0.259 C
BRANCH  15  16
HETATM   16  N2  UNL     1       2.912  -8.937  -8.557  1.00  0.00     0.103 N
HETATM   17  C8  UNL     1       4.054  -9.410  -7.801  1.00  0.00     0.293 C
HETATM   18  C9  UNL     1       4.654 -10.595  -8.523  1.00  0.00     0.152 C
HETATM   19  N3  UNL     1       3.597 -11.446  -9.085  1.00  0.00    -0.384 N
HETATM   20  C10 UNL     1       3.914 -12.476 -10.054  1.00  0.00     0.149 C
HETATM   21  C11 UNL     1       2.272 -11.228  -8.639  1.00  0.00     0.062 C
HETATM   22  C12 UNL     1       1.479 -12.267  -8.383  1.00  0.00     0.214 C
HETATM   23  C13 UNL     1       1.792  -9.832  -8.468  1.00  0.00     0.332 C
HETATM   24  F1  UNL     1       1.878 -13.540  -8.527  1.00  0.00    -0.217 F
ENDBRANCH  15  16
ENDBRANCH   9  10
ENDBRANCH   1   9
BRANCH   5  25
HETATM   25  C23 UNL     1       2.046  -1.617 -11.975  1.00  0.00     0.134 C
BRANCH  25  26
HETATM   26  O4  UNL     1       0.914  -2.327 -12.175  1.00  0.00    -0.349 OA
ATOM     27  H4  UNL     1       0.337  -1.989 -12.850  1.00  0.00     0.219 HD
ENDBRANCH  25  26
BRANCH  25  28
HETATM   28  C24 UNL     1       1.727  -0.193 -12.221  1.00  0.00     0.132 A
HETATM   29  C28 UNL     1       0.706  -0.007 -13.300  1.00  0.00     0.266 A
HETATM   30  F2  UNL     1      -0.350   0.818 -13.244  1.00  0.00    -0.241 F
HETATM   31  C29 UNL     1       2.073   0.423 -13.578  1.00  0.00     0.293 A
HETATM   32  F3  UNL     1       2.912  -0.293 -14.410  1.00  0.00    -0.202 F
HETATM   33  F4  UNL     1       2.258   1.774 -13.695  1.00  0.00    -0.202 F
BRANCH  28  34
HETATM   34  C25 UNL     1       1.927   0.772 -11.112  1.00  0.00     0.003 C
HETATM   35  C26 UNL     1       3.306   1.052 -10.627  1.00  0.00     0.011 C
HETATM   36  C27 UNL     1       1.241   0.035  -9.860  1.00  0.00     0.011 C
ENDBRANCH  28  34
ENDBRANCH  25  28
ENDBRANCH   5  25
BRANCH   3  37
HETATM   37  N4  UNL     1       5.161  -4.638 -13.565  1.00  0.00    -0.411 N
ATOM     38  H4  UNL     1       5.842  -5.255 -13.123  1.00  0.00     0.154 HD
BRANCH  37  39
HETATM   39  C17 UNL     1       5.237  -4.560 -14.929  1.00  0.00     0.081 C
HETATM   40  C18 UNL     1       5.685  -3.276 -15.571  1.00  0.00     0.051 C
HETATM   41  C19 UNL     1       5.462  -3.457 -17.080  1.00  0.00     0.169 C
HETATM   42  O3  UNL     1       4.653  -4.544 -17.364  1.00  0.00    -0.391 OA
HETATM   43  C20 UNL     1       5.287  -5.773 -17.069  1.00  0.00     0.169 C
HETATM   44  C21 UNL     1       5.930  -5.683 -15.679  1.00  0.00     0.051 C
ENDBRANCH  37  39
ENDBRANCH   3  37
TORSDOF 10
ENDMDL