MODEL 3
REMARK VINA RESULT: -8.370909502      0.535      1.057
REMARK  8 active torsions:
REMARK  status: ('A' for Active; 'I' for Inactive)
REMARK       I    between atoms: C2_2  and  N1_4
REMARK    1  A    between atoms: C5_7  and  N2_8
REMARK       I    between atoms: N2_8  and  C6_10
REMARK    2  A    between atoms: C6_10  and  C7_12
REMARK    3  A    between atoms: C7_12  and  C8_13
REMARK    4  A    between atoms: C8_13  and  C9_14
REMARK    5  A    between atoms: C12_17  and  O3_18
REMARK    6  A    between atoms: O3_18  and  C13_19
REMARK    7  A    between atoms: N3_26  and  S1_27
REMARK    8  A    between atoms: S1_27  and  C17_30
ROOT
HETATM    1  C8  UNL     1       3.621  -3.285  -9.441  1.00  0.00     0.025 C
HETATM    2  C16 UNL     1       2.867  -2.475 -10.478  1.00  0.00     0.123 C
HETATM    3  N3  UNL     1       3.621  -1.315 -10.885  1.00  0.00    -0.209 NA
HETATM    4  C22 UNL     1       4.063  -0.500  -9.808  1.00  0.00     0.109 C
HETATM    5  C23 UNL     1       4.801  -1.271  -8.751  1.00  0.00     0.037 C
HETATM    6  C24 UNL     1       3.895  -2.387  -8.276  1.00  0.00     0.098 C
HETATM    7 CL1  UNL     1       2.337  -1.571  -7.878  1.00  0.00    -0.124 Cl
ENDROOT
BRANCH   1   8
HETATM    8  C7  UNL     1       4.867  -3.788 -10.139  1.00  0.00     0.120 C
BRANCH   8   9
HETATM    9  C6  UNL     1       4.615  -4.433 -11.436  1.00  0.00     0.219 C
HETATM   10  N2  UNL     1       4.900  -3.715 -12.621  1.00  0.00    -0.356 N
ATOM     11  H2  UNL     1       5.263  -2.764 -12.555  1.00  0.00     0.162 HD
HETATM   12  O2  UNL     1       4.159  -5.590 -11.522  1.00  0.00    -0.274 OA
BRANCH  10  13
HETATM   13  C5  UNL     1       4.683  -4.314 -13.946  1.00  0.00     0.087 C
HETATM   14  C4  UNL     1       5.681  -5.412 -14.158  1.00  0.00     0.045 C
HETATM   15  C3  UNL     1       5.713  -5.960 -15.545  1.00  0.00     0.127 C
HETATM   16  N1  UNL     1       5.479  -4.918 -16.531  1.00  0.00    -0.352 N
HETATM   17  C2  UNL     1       5.103  -5.256 -17.845  1.00  0.00     0.215 C
HETATM   18  C26 UNL     1       5.657  -3.557 -16.082  1.00  0.00     0.127 C
HETATM   19  C1  UNL     1       4.838  -4.238 -18.887  1.00  0.00     0.117 C
HETATM   20  O1  UNL     1       4.984  -6.479 -18.154  1.00  0.00    -0.274 OA
HETATM   21  C25 UNL     1       4.628  -3.282 -15.020  1.00  0.00     0.045 C
ENDBRANCH  10  13
ENDBRANCH   8   9
ENDBRANCH   1   8
BRANCH   1  22
HETATM   22  C9  UNL     1       2.800  -4.444  -9.058  1.00  0.00    -0.046 A
HETATM   23  C10 UNL     1       3.237  -5.331  -8.061  1.00  0.00     0.011 A
HETATM   24  C11 UNL     1       2.514  -6.417  -7.655  1.00  0.00     0.037 A
HETATM   25  C12 UNL     1       1.299  -6.692  -8.219  1.00  0.00     0.078 A
HETATM   26  C14 UNL     1       0.827  -5.867  -9.189  1.00  0.00     0.037 A
HETATM   27  C15 UNL     1       1.576  -4.755  -9.601  1.00  0.00     0.011 A
BRANCH  25  28
HETATM   28  O3  UNL     1       0.595  -7.802  -7.782  1.00  0.00    -0.255 OA
BRANCH  28  29
HETATM   29  C13 UNL     1       0.692  -9.002  -8.497  1.00  0.00     0.530 C
HETATM   30  F1  UNL     1       0.013  -8.908  -9.720  1.00  0.00    -0.144 F
HETATM   31  F2  UNL     1       2.036  -9.241  -8.790  1.00  0.00    -0.144 F
HETATM   32  F3  UNL     1       0.161 -10.011  -7.721  1.00  0.00    -0.144 F
ENDBRANCH  28  29
ENDBRANCH  25  28
ENDBRANCH   1  22
BRANCH   3  33
HETATM   33  S1  UNL     1       2.803  -0.515 -12.113  1.00  0.00     0.215 S
HETATM   34  O4  UNL     1       2.463  -1.509 -13.192  1.00  0.00    -0.211 OA
HETATM   35  O5  UNL     1       1.455  -0.042 -11.581  1.00  0.00    -0.211 OA
BRANCH  33  36
HETATM   36  C17 UNL     1       3.591   0.926 -12.762  1.00  0.00     0.128 C
HETATM   37  C18 UNL     1       5.093   0.808 -12.863  1.00  0.00     0.047 C
HETATM   38  C19 UNL     1       5.548   1.675 -14.046  1.00  0.00     0.168 C
HETATM   39  O6  UNL     1       5.191   1.136 -15.255  1.00  0.00    -0.391 OA
HETATM   40  C20 UNL     1       4.056   0.338 -15.092  1.00  0.00     0.168 C
HETATM   41  C21 UNL     1       3.093   1.094 -14.187  1.00  0.00     0.047 C
ENDBRANCH  33  36
ENDBRANCH   3  33
TORSDOF 8
ENDMDL