MODEL 5
REMARK VINA RESULT: -7.414857276      1.316      1.719
REMARK  7 active torsions:
REMARK  status: ('A' for Active; 'I' for Inactive)
REMARK    1  A    between atoms: O1_2  and  C2_3
REMARK    2  A    between atoms: C2_3  and  C3_4
REMARK    3  A    between atoms: C5_6  and  C6_7
REMARK       I    between atoms: C6_7  and  N1_9
REMARK    4  A    between atoms: N1_9  and  C7_11
REMARK       I    between atoms: N3_16  and  C11_17
REMARK    5  A    between atoms: C11_17  and  C12_19
REMARK       I    between atoms: N4_24  and  C17_25
REMARK       I    between atoms: C17_25  and  N5_27
REMARK    6  A    between atoms: C22_34  and  C23_35
REMARK    7  A    between atoms: C26_38  and  C27_39
ROOT
HETATM    1  C7  UNL     1       3.660   0.239  -7.962  1.00  0.00     0.122 A
HETATM    2  C8  UNL     1       2.588   0.362  -8.957  1.00  0.00     0.091 C
HETATM    3  N2  UNL     1       1.736   0.472  -9.738  1.00  0.00    -0.195 NA
HETATM    4  C9  UNL     1       3.577   1.043  -6.701  1.00  0.00     0.050 A
HETATM    5  C10 UNL     1       4.525   1.459  -7.758  1.00  0.00     0.050 A
ENDROOT
BRANCH   1   6
HETATM    6  N1  UNL     1       4.238  -1.075  -7.900  1.00  0.00    -0.337 N
HETATM    7  C6  UNL     1       3.505  -2.160  -7.391  1.00  0.00     0.242 C
HETATM    8  O2  UNL     1       2.334  -1.965  -6.990  1.00  0.00    -0.271 OA
ATOM      9  H1  UNL     1       5.191  -1.222  -8.230  1.00  0.00     0.164 HD
BRANCH   7  10
HETATM   10  C5  UNL     1       4.117  -3.526  -7.330  1.00  0.00     0.179 C
HETATM   11  C4  UNL     1       3.259  -4.333  -6.391  1.00  0.00     0.043 C
HETATM   12  C3  UNL     1       2.235  -4.945  -7.321  1.00  0.00     0.030 C
HETATM   13  C29 UNL     1       3.126  -5.336  -8.493  1.00  0.00     0.133 C
HETATM   14  N3  UNL     1       4.011  -4.167  -8.627  1.00  0.00    -0.338 N
HETATM   15  C11 UNL     1       4.617  -3.778  -9.841  1.00  0.00     0.227 C
HETATM   16  O3  UNL     1       5.345  -2.727  -9.811  1.00  0.00    -0.273 OA
BRANCH  12  17
HETATM   17  C2  UNL     1       1.559  -6.143  -6.704  1.00  0.00     0.173 C
BRANCH  17  18
HETATM   18  O1  UNL     1       0.224  -5.844  -6.466  1.00  0.00    -0.396 OA
HETATM   19  C1  UNL     1       0.020  -6.001  -5.089  1.00  0.00     0.201 C
ENDBRANCH  17  18
ENDBRANCH  12  17
BRANCH  15  20
HETATM   20  C12 UNL     1       4.452  -4.518 -11.132  1.00  0.00     0.109 C
HETATM   21  C13 UNL     1       3.010  -4.994 -11.241  1.00  0.00     0.047 C
HETATM   22  C14 UNL     1       2.341  -4.000 -12.158  1.00  0.00     0.031 C
HETATM   23  C15 UNL     1       1.826  -4.667 -13.391  1.00  0.00     0.038 C
HETATM   24  C16 UNL     1       1.114  -3.495 -11.404  1.00  0.00     0.038 C
HETATM   25  N4  UNL     1       3.303  -2.936 -12.415  1.00  0.00    -0.314 N
HETATM   26  C17 UNL     1       2.980  -1.612 -12.715  1.00  0.00     0.322 C
HETATM   27  C22 UNL     1       4.622  -3.589 -12.304  1.00  0.00     0.152 C
HETATM   28  O4  UNL     1       1.710  -1.373 -12.806  1.00  0.00    -0.247 OA
HETATM   29  N5  UNL     1       3.807  -0.505 -12.929  1.00  0.00    -0.328 N
HETATM   30  C18 UNL     1       5.251  -0.395 -12.886  1.00  0.00     0.133 C
HETATM   31  C21 UNL     1       3.265   0.837 -13.265  1.00  0.00     0.206 C
HETATM   32  C19 UNL     1       5.562   1.069 -13.203  1.00  0.00     0.101 C
HETATM   33  C20 UNL     1       4.306   1.727 -12.617  1.00  0.00     0.261 C
HETATM   34  F1  UNL     1       4.353   1.569 -11.260  1.00  0.00    -0.204 F
HETATM   35  F2  UNL     1       4.202   3.035 -13.006  1.00  0.00    -0.204 F
BRANCH  27  36
HETATM   36  C23 UNL     1       4.963  -4.271 -13.579  1.00  0.00     0.033 A
HETATM   37  C24 UNL     1       5.252  -5.608 -13.661  1.00  0.00     0.028 A
HETATM   38  C25 UNL     1       5.549  -6.159 -14.910  1.00  0.00     0.016 A
HETATM   39  C26 UNL     1       5.554  -5.373 -16.039  1.00  0.00     0.021 A
HETATM   40  C28 UNL     1       5.256  -4.054 -15.870  1.00  0.00     0.100 A
HETATM   41  N6  UNL     1       4.966  -3.485 -14.699  1.00  0.00    -0.367 N
ATOM     42  H6  UNL     1       4.752  -2.490 -14.640  1.00  0.00     0.165 HD
BRANCH  39  43
HETATM   43  C27 UNL     1       5.865  -5.937 -17.369  1.00  0.00     0.388 C
HETATM   44  F3  UNL     1       5.741  -7.307 -17.407  1.00  0.00    -0.209 F
HETATM   45  F4  UNL     1       5.051  -5.419 -18.358  1.00  0.00    -0.209 F
ENDBRANCH  39  43
ENDBRANCH  27  36
ENDBRANCH  15  20
ENDBRANCH   7  10
ENDBRANCH   1   6
TORSDOF 7
ENDMDL