MODEL 2
REMARK VINA RESULT: -5.596370270      1.220      1.330
REMARK  8 active torsions:
REMARK  status: ('A' for Active; 'I' for Inactive)
REMARK    1  A    between atoms: C1_2  and  C2_4
REMARK    2  A    between atoms: C2_4  and  N2_5
REMARK    3  A    between atoms: C2_4  and  C3_9
REMARK    4  A    between atoms: C3_9  and  C4_10
REMARK    5  A    between atoms: C4_10  and  N3_11
REMARK    6  A    between atoms: C4_10  and  C6_16
REMARK    7  A    between atoms: C6_16  and  N6_17
REMARK    8  A    between atoms: C6_16  and  C7_21
ROOT
HETATM    1  C4  UNL     1      -1.912  24.975 -10.884  1.00  0.00     0.122 C
ENDROOT
BRANCH   1   2
HETATM    2  C3  UNL     1      -1.166  23.802 -10.312  1.00  0.00     0.069 C
BRANCH   2   3
HETATM    3  C2  UNL     1       0.178  24.139  -9.759  1.00  0.00     0.273 C
BRANCH   3   4
HETATM    4  C1  UNL     1       0.275  24.239  -8.306  1.00  0.00     0.261 C
HETATM    5  N1  UNL     1      -0.485  23.537  -7.341  1.00  0.00    -0.060 NA
HETATM    6  O1  UNL     1       1.131  25.048  -7.811  1.00  0.00    -0.275 OA
ENDBRANCH   3   4
BRANCH   3   7
HETATM    7  N2  UNL     1       1.075  23.046 -10.200  1.00  0.00    -0.067 N
ATOM      8  H23 UNL     1       1.799  23.365 -10.844  1.00  0.00     0.275 HD
ATOM      9  H22 UNL     1       1.691  22.715  -9.456  1.00  0.00     0.275 HD
ATOM     10  H21 UNL     1       0.496  22.304 -10.592  1.00  0.00     0.275 HD
ENDBRANCH   3   7
ENDBRANCH   2   3
ENDBRANCH   1   2
BRANCH   1  11
HETATM   11  N3  UNL     1      -3.067  24.557 -11.647  1.00  0.00    -0.360 N
HETATM   12  C5  UNL     1      -3.213  24.870 -12.894  1.00  0.00     0.197 C
HETATM   13  N4  UNL     1      -4.373  24.428 -13.586  1.00  0.00    -0.067 NA
HETATM   14  N5  UNL     1      -2.263  25.645 -13.614  1.00  0.00    -0.067 NA
ATOM     15  H3  UNL     1      -3.787  23.998 -11.190  1.00  0.00     0.162 HD
ENDBRANCH   1  11
BRANCH   1  16
HETATM   16  C6  UNL     1      -2.266  25.993  -9.828  1.00  0.00     0.255 C
BRANCH  16  17
HETATM   17  N6  UNL     1      -3.052  25.279  -8.828  1.00  0.00    -0.068 N
ATOM     18  H63 UNL     1      -2.926  25.635  -7.881  1.00  0.00     0.275 HD
ATOM     19  H62 UNL     1      -4.053  25.458  -8.896  1.00  0.00     0.275 HD
ATOM     20  H61 UNL     1      -2.807  24.294  -8.929  1.00  0.00     0.275 HD
ENDBRANCH  16  17
BRANCH  16  21
HETATM   21  C7  UNL     1      -2.989  27.168 -10.300  1.00  0.00     0.041 A
HETATM   22  C8  UNL     1      -2.518  28.356 -10.816  1.00  0.00     0.028 A
HETATM   23  C9  UNL     1      -3.589  29.162 -11.124  1.00  0.00     0.019 A
HETATM   24  C10 UNL     1      -4.704  28.448 -10.791  1.00  0.00     0.088 A
HETATM   25  N7  UNL     1      -4.330  27.274 -10.307  1.00  0.00    -0.367 N
ATOM     26  H7  UNL     1      -4.971  26.550  -9.982  1.00  0.00     0.165 HD
ENDBRANCH  16  21
ENDBRANCH   1  16
TORSDOF 8
ENDMDL