MODEL 4
REMARK VINA RESULT: -5.365815980      4.260      6.567
REMARK  7 active torsions:
REMARK  status: ('A' for Active; 'I' for Inactive)
REMARK    1  A    between atoms: C2_2  and  C3_3
REMARK    2  A    between atoms: C3_3  and  N1_4
REMARK    3  A    between atoms: C3_3  and  C5_11
REMARK    4  A    between atoms: N1_4  and  N2_6
REMARK       I    between atoms: N2_6  and  C4_8
REMARK    5  A    between atoms: C5_11  and  N4_13
REMARK       I    between atoms: N4_13  and  C7_15
REMARK    6  A    between atoms: C7_15  and  C8_17
REMARK    7  A    between atoms: C8_17  and  N5_18
REMARK       I    between atoms: N5_18  and  C9_20
ROOT
HETATM    1  C5  UNL     1      -1.223  24.502  -9.999  1.00  0.00     0.108 C
HETATM    2  C6  UNL     1      -1.593  24.570  -8.535  1.00  0.00     0.034 C
ENDROOT
BRANCH   1   3
HETATM    3  C3  UNL     1      -1.961  25.606 -10.726  1.00  0.00     0.143 C
BRANCH   3   4
HETATM    4  C2  UNL     1      -1.636  26.945 -10.167  1.00  0.00    -0.009 C
HETATM    5  C1  UNL     1      -2.269  28.032 -10.522  1.00  0.00     0.009 C
ENDBRANCH   3   4
BRANCH   3   6
HETATM    6  N1  UNL     1      -3.281  25.301 -10.983  1.00  0.00    -0.322 N
ATOM      7  H1  UNL     1      -3.878  25.180 -10.166  1.00  0.00     0.181 HD
BRANCH   6   8
HETATM    8  N2  UNL     1      -3.873  25.143 -12.167  1.00  0.00    -0.258 N
HETATM    9  C4  UNL     1      -3.870  24.112 -13.115  1.00  0.00     0.346 C
HETATM   10  N3  UNL     1      -4.662  24.317 -14.319  1.00  0.00    -0.038 NA
HETATM   11  O1  UNL     1      -3.247  23.016 -13.035  1.00  0.00    -0.249 OA
ATOM     12  H2  UNL     1      -4.448  25.941 -12.440  1.00  0.00     0.191 HD
ENDBRANCH   6   8
ENDBRANCH   3   6
ENDBRANCH   1   3
BRANCH   1  13
HETATM   13  N4  UNL     1      -1.754  23.188 -10.445  1.00  0.00    -0.353 N
HETATM   14  C7  UNL     1      -0.947  22.044 -10.446  1.00  0.00     0.235 C
HETATM   15  O2  UNL     1       0.255  22.187 -10.047  1.00  0.00    -0.272 OA
ATOM     16  H4  UNL     1      -2.723  23.117 -10.755  1.00  0.00     0.163 HD
BRANCH  14  17
HETATM   17  C8  UNL     1      -1.356  20.706 -10.859  1.00  0.00     0.226 C
BRANCH  17  18
HETATM   18  N5  UNL     1      -2.759  20.524 -11.127  1.00  0.00    -0.337 N
HETATM   19  C9  UNL     1      -3.506  19.468 -10.540  1.00  0.00     0.329 C
HETATM   20  N6  UNL     1      -4.871  19.294 -10.803  1.00  0.00    -0.040 NA
HETATM   21  O3  UNL     1      -2.910  18.683  -9.768  1.00  0.00    -0.251 OA
ATOM     22  H5  UNL     1      -3.231  21.172 -11.758  1.00  0.00     0.164 HD
ENDBRANCH  17  18
ENDBRANCH  14  17
ENDBRANCH   1  13
TORSDOF 7
ENDMDL