MODEL 4
REMARK VINA RESULT: -5.726850520      3.746      5.968
REMARK  6 active torsions:
REMARK  status: ('A' for Active; 'I' for Inactive)
REMARK    1  A    between atoms: C2_2  and  C3_3
REMARK       I    between atoms: C3_3  and  N1_5
REMARK    2  A    between atoms: N1_5  and  N2_7
REMARK       I    between atoms: N2_7  and  C4_9
REMARK    3  A    between atoms: C4_9  and  C5_11
REMARK    4  A    between atoms: C5_11  and  N3_12
REMARK       I    between atoms: N3_12  and  C6_14
REMARK    5  A    between atoms: N5_16  and  C7_18
REMARK    6  A    between atoms: N6_19  and  N7_21
REMARK       I    between atoms: N7_21  and  C8_23
ROOT
HETATM    1  N3  UNL     1      -0.128  24.362 -10.420  1.00  0.00    -0.356 N
ATOM      2  H3  UNL     1      -0.071  24.440 -11.435  1.00  0.00     0.162 HD
HETATM    3  C6  UNL     1       1.051  24.296  -9.620  1.00  0.00     0.189 C
HETATM    4  N4  UNL     1       0.974  24.684  -8.248  1.00  0.00    -0.064 NA
HETATM    5  N5  UNL     1       2.196  23.925 -10.007  1.00  0.00    -0.326 N
ATOM      6  H5  UNL     1       2.910  23.950  -9.279  1.00  0.00     0.169 HD
ENDROOT
BRANCH   1   7
HETATM    7  C5  UNL     1      -1.398  24.313  -9.749  1.00  0.00     0.226 C
BRANCH   7   8
HETATM    8  C4  UNL     1      -2.081  25.587  -9.585  1.00  0.00     0.253 C
HETATM    9  N2  UNL     1      -1.600  26.691 -10.344  1.00  0.00    -0.266 N
ATOM     10  H2  UNL     1      -0.802  26.534 -10.959  1.00  0.00     0.190 HD
HETATM   11  O2  UNL     1      -3.059  25.792  -8.829  1.00  0.00    -0.270 OA
BRANCH   9  12
HETATM   12  N1  UNL     1      -2.149  27.973 -10.304  1.00  0.00    -0.264 N
HETATM   13  C3  UNL     1      -3.074  28.409 -11.283  1.00  0.00     0.258 C
HETATM   14  O1  UNL     1      -3.380  27.568 -12.194  1.00  0.00    -0.267 OA
ATOM     15  H1  UNL     1      -1.878  28.609  -9.554  1.00  0.00     0.190 HD
BRANCH  13  16
HETATM   16  C2  UNL     1      -3.687  29.706 -11.332  1.00  0.00     0.065 C
HETATM   17  C1  UNL     1      -4.975  29.872 -11.569  1.00  0.00     0.017 C
ENDBRANCH  13  16
ENDBRANCH   9  12
ENDBRANCH   7   8
ENDBRANCH   1   7
BRANCH   5  18
HETATM   18  C7  UNL     1       2.659  23.492 -11.235  1.00  0.00     0.199 C
HETATM   19  N6  UNL     1       3.658  24.080 -11.794  1.00  0.00    -0.294 N
ATOM     20  H6  UNL     1       3.981  23.741 -12.700  1.00  0.00     0.187 HD
BRANCH  19  21
HETATM   21  N7  UNL     1       4.320  25.168 -11.207  1.00  0.00    -0.273 N
HETATM   22  C8  UNL     1       3.935  26.524 -11.386  1.00  0.00     0.200 C
HETATM   23  N8  UNL     1       4.271  27.193 -12.448  1.00  0.00    -0.372 N
HETATM   24  N9  UNL     1       3.176  27.169 -10.401  1.00  0.00    -0.062 NA
ATOM     25  H82 UNL     1       4.824  26.724 -13.166  1.00  0.00     0.158 HD
ATOM     26  H81 UNL     1       3.995  28.166 -12.576  1.00  0.00     0.158 HD
ATOM     27  H7  UNL     1       5.128  24.974 -10.616  1.00  0.00     0.189 HD
ENDBRANCH  19  21
ENDBRANCH   5  18
TORSDOF 6
ENDMDL