MODEL 2
REMARK VINA RESULT: -4.763646338      2.576      4.307
REMARK  9 active torsions:
REMARK  status: ('A' for Active; 'I' for Inactive)
REMARK    1  A    between atoms: N1_2  and  C2_4
REMARK    2  A    between atoms: C2_4  and  N2_6
REMARK    3  A    between atoms: N2_6  and  C3_8
REMARK    4  A    between atoms: C3_8  and  C4_9
REMARK    5  A    between atoms: C3_8  and  C5_12
REMARK    6  A    between atoms: C5_12  and  N3_13
REMARK    7  A    between atoms: C5_12  and  N6_18
REMARK    8  A    between atoms: N6_18  and  C7_19
REMARK    9  A    between atoms: C7_19  and  O3_20
ROOT
HETATM    1  C3  UNL     1      -1.261  25.454 -10.743  1.00  0.00     0.241 C
ENDROOT
BRANCH   1   2
HETATM    2  N2  UNL     1      -2.124  24.333 -11.052  1.00  0.00    -0.349 N
ATOM      3  H2  UNL     1      -3.075  24.419 -10.692  1.00  0.00     0.163 HD
BRANCH   2   4
HETATM    4  C2  UNL     1      -1.878  23.165 -11.752  1.00  0.00     0.168 C
HETATM    5  S1  UNL     1      -1.608  23.158 -13.356  1.00  0.00    -0.041 SA
BRANCH   4   6
HETATM    6  N1  UNL     1      -1.882  21.913 -11.064  1.00  0.00    -0.372 N
HETATM    7  C1  UNL     1      -0.656  21.367 -10.530  1.00  0.00     0.148 C
ATOM      8  H1  UNL     1      -2.756  21.400 -10.949  1.00  0.00     0.161 HD
ENDBRANCH   4   6
ENDBRANCH   2   4
ENDBRANCH   1   2
BRANCH   1   9
HETATM    9  C4  UNL     1      -2.030  26.500 -10.031  1.00  0.00     0.201 C
HETATM   10  O1  UNL     1      -1.614  27.692 -10.067  1.00  0.00    -0.646 OA
HETATM   11  O2  UNL     1      -3.194  26.244  -9.317  1.00  0.00    -0.646 OA
ENDBRANCH   1   9
BRANCH   1  12
HETATM   12  C5  UNL     1      -0.102  25.008  -9.846  1.00  0.00     0.299 C
BRANCH  12  13
HETATM   13  N3  UNL     1       0.910  25.985  -9.731  1.00  0.00    -0.333 N
HETATM   14  C6  UNL     1       1.965  26.126 -10.387  1.00  0.00     0.199 C
HETATM   15  N4  UNL     1       2.442  25.331 -11.437  1.00  0.00    -0.067 NA
HETATM   16  N5  UNL     1       2.862  27.236 -10.066  1.00  0.00    -0.067 NA
ATOM     17  H3  UNL     1       0.757  26.681  -9.001  1.00  0.00     0.165 HD
ENDBRANCH  12  13
BRANCH  12  18
HETATM   18  N6  UNL     1      -0.541  24.495  -8.637  1.00  0.00    -0.408 NA
BRANCH  18  19
HETATM   19  C7  UNL     1      -0.963  24.001  -7.475  1.00  0.00     0.312 C
BRANCH  19  20
HETATM   20  O3  UNL     1      -0.346  23.248  -6.613  1.00  0.00    -0.346 OA
ATOM     21  H3  UNL     1      -0.316  23.303  -5.665  1.00  0.00     0.219 HD
ENDBRANCH  19  20
ENDBRANCH  18  19
ENDBRANCH  12  18
ENDBRANCH   1  12
TORSDOF 9
ENDMDL