MODEL 1
REMARK VINA RESULT: -5.138863718      0.000      0.000
REMARK  8 active torsions:
REMARK  status: ('A' for Active; 'I' for Inactive)
REMARK    1  A    between atoms: C3_3  and  C5_5
REMARK    2  A    between atoms: C5_5  and  N1_6
REMARK    3  A    between atoms: C5_5  and  C9_16
REMARK       I    between atoms: N1_6  and  C6_8
REMARK    4  A    between atoms: C6_8  and  C7_10
REMARK    5  A    between atoms: C7_10  and  N2_12
REMARK    6  A    between atoms: C9_16  and  N3_17
REMARK    7  A    between atoms: C9_16  and  C10_21
REMARK    8  A    between atoms: C10_21  and  N4_22
REMARK       I    between atoms: N4_22  and  C11_24
ROOT
HETATM    1  C1  UNL     1      -2.582  28.395 -10.788  1.00  0.00     0.012 C
HETATM    2  C2  UNL     1      -1.990  27.468 -10.295  1.00  0.00    -0.111 C
HETATM    3  C3  UNL     1      -1.273  26.324  -9.667  1.00  0.00     0.085 C
HETATM    4  C4  UNL     1      -2.334  25.387  -9.173  1.00  0.00     0.025 C
ENDROOT
BRANCH   3   5
HETATM    5  C5  UNL     1      -0.388  25.738 -10.727  1.00  0.00     0.131 C
BRANCH   5   6
HETATM    6  N1  UNL     1      -0.993  24.523 -11.212  1.00  0.00    -0.351 N
HETATM    7  C6  UNL     1      -1.145  24.203 -12.575  1.00  0.00     0.248 C
HETATM    8  O1  UNL     1      -0.743  24.999 -13.437  1.00  0.00    -0.271 OA
ATOM      9  H1  UNL     1      -1.332  23.851 -10.523  1.00  0.00     0.163 HD
BRANCH   7  10
HETATM   10  C7  UNL     1      -1.773  22.940 -12.976  1.00  0.00     0.270 C
HETATM   11  C8  UNL     1      -0.737  22.048 -13.639  1.00  0.00     0.050 C
BRANCH  10  12
HETATM   12  N2  UNL     1      -2.257  22.270 -11.784  1.00  0.00    -0.067 N
ATOM     13  H23 UNL     1      -2.213  22.864 -10.955  1.00  0.00     0.275 HD
ATOM     14  H22 UNL     1      -3.267  22.125 -11.797  1.00  0.00     0.275 HD
ATOM     15  H21 UNL     1      -1.737  21.400 -11.670  1.00  0.00     0.275 HD
ENDBRANCH  10  12
ENDBRANCH   7  10
ENDBRANCH   5   6
BRANCH   5  16
HETATM   16  C9  UNL     1       1.031  25.597 -10.269  1.00  0.00     0.224 C
BRANCH  16  17
HETATM   17  N3  UNL     1       1.606  26.736  -9.646  1.00  0.00    -0.071 N
ATOM     18  H33 UNL     1       2.510  26.489  -9.245  1.00  0.00     0.274 HD
ATOM     19  H32 UNL     1       1.895  27.408 -10.357  1.00  0.00     0.274 HD
ATOM     20  H31 UNL     1       1.032  27.203  -8.944  1.00  0.00     0.274 HD
ENDBRANCH  16  17
BRANCH  16  21
HETATM   21  C10 UNL     1       1.231  24.364  -9.410  1.00  0.00     0.159 C
BRANCH  21  22
HETATM   22  N4  UNL     1       1.933  23.372 -10.168  1.00  0.00    -0.343 N
HETATM   23  C11 UNL     1       1.440  22.103 -10.542  1.00  0.00     0.328 C
HETATM   24  N5  UNL     1       2.232  21.185 -11.311  1.00  0.00    -0.040 NA
HETATM   25  O2  UNL     1       0.306  21.714 -10.231  1.00  0.00    -0.251 OA
ATOM     26  H4  UNL     1       2.881  23.605 -10.467  1.00  0.00     0.163 HD
ENDBRANCH  21  22
ENDBRANCH  16  21
ENDBRANCH   5  16
ENDBRANCH   3   5
TORSDOF 8
ENDMDL