MODEL 2
REMARK VINA RESULT: -5.066848119      2.166      5.018
REMARK  8 active torsions:
REMARK  status: ('A' for Active; 'I' for Inactive)
REMARK    1  A    between atoms: C2_2  and  N1_4
REMARK       I    between atoms: N1_4  and  C4_6
REMARK    2  A    between atoms: C4_6  and  C5_8
REMARK    3  A    between atoms: C5_8  and  N2_9
REMARK    4  A    between atoms: C5_8  and  N4_15
REMARK    5  A    between atoms: N2_9  and  C6_11
REMARK    6  A    between atoms: C6_11  and  C7_12
REMARK       I    between atoms: N4_15  and  C8_17
REMARK    7  A    between atoms: C8_17  and  C9_19
REMARK    8  A    between atoms: C9_19  and  N5_21
ROOT
HETATM    1  C5  UNL     1      -1.318  26.129 -10.782  1.00  0.00     0.274 C
ENDROOT
BRANCH   1   2
HETATM    2  C4  UNL     1      -1.482  25.176 -11.885  1.00  0.00     0.260 C
HETATM    3  N1  UNL     1      -2.274  23.993 -11.768  1.00  0.00    -0.354 N
ATOM      4  H1  UNL     1      -2.742  23.807 -10.881  1.00  0.00     0.162 HD
HETATM    5  O1  UNL     1      -0.926  25.360 -12.998  1.00  0.00    -0.269 OA
BRANCH   3   6
HETATM    6  C2  UNL     1      -2.442  23.052 -12.842  1.00  0.00     0.076 C
HETATM    7  C1  UNL     1      -3.846  23.258 -13.403  1.00  0.00     0.032 C
HETATM    8  C3  UNL     1      -2.328  21.622 -12.416  1.00  0.00     0.032 C
ENDBRANCH   3   6
ENDBRANCH   1   2
BRANCH   1   9
HETATM    9  N2  UNL     1      -1.398  25.607  -9.471  1.00  0.00    -0.386 N
ATOM     10  H2  UNL     1      -2.294  25.539  -8.988  1.00  0.00     0.156 HD
BRANCH   9  11
HETATM   11  C6  UNL     1      -0.200  25.179  -8.846  1.00  0.00     0.216 C
BRANCH  11  12
HETATM   12  C7  UNL     1      -0.349  23.756  -8.425  1.00  0.00     0.248 C
HETATM   13  N3  UNL     1      -0.400  22.741  -9.415  1.00  0.00    -0.061 NA
HETATM   14  O2  UNL     1      -0.427  23.481  -7.195  1.00  0.00    -0.275 OA
ENDBRANCH  11  12
ENDBRANCH   9  11
ENDBRANCH   1   9
BRANCH   1  15
HETATM   15  N4  UNL     1      -2.212  27.274 -10.911  1.00  0.00    -0.330 N
HETATM   16  C8  UNL     1      -3.609  27.181 -10.692  1.00  0.00     0.249 C
HETATM   17  O3  UNL     1      -4.150  26.079 -10.369  1.00  0.00    -0.271 OA
ATOM     18  H4  UNL     1      -1.816  28.178 -11.169  1.00  0.00     0.165 HD
BRANCH  16  19
HETATM   19  C9  UNL     1      -4.454  28.387 -10.841  1.00  0.00     0.270 C
HETATM   20  C10 UNL     1      -3.626  29.600 -11.245  1.00  0.00     0.050 C
BRANCH  19  21
HETATM   21  N5  UNL     1      -5.492  28.118 -11.795  1.00  0.00    -0.067 N
ATOM     22  H53 UNL     1      -5.345  28.611 -12.676  1.00  0.00     0.275 HD
ATOM     23  H52 UNL     1      -5.451  27.165 -12.154  1.00  0.00     0.275 HD
ATOM     24  H51 UNL     1      -6.395  28.336 -11.375  1.00  0.00     0.275 HD
ENDBRANCH  19  21
ENDBRANCH  16  19
ENDBRANCH   1  15
TORSDOF 8
ENDMDL