MODEL 5
REMARK VINA RESULT: -5.691616090      1.545      2.057
REMARK  7 active torsions:
REMARK  status: ('A' for Active; 'I' for Inactive)
REMARK    1  A    between atoms: C3_3  and  N1_4
REMARK    2  A    between atoms: C3_3  and  C10_24
REMARK       I    between atoms: N1_4  and  C4_6
REMARK    3  A    between atoms: C4_6  and  C5_8
REMARK    4  A    between atoms: C5_8  and  N2_9
REMARK    5  A    between atoms: C5_8  and  C6_13
REMARK    6  A    between atoms: C6_13  and  C7_14
REMARK    7  A    between atoms: C9_18  and  N4_19
ROOT
HETATM    1  C1  UNL     1      -8.956  28.291 -12.398  1.00  0.00     0.015 C
HETATM    2  C2  UNL     1      -7.853  28.790 -12.474  1.00  0.00    -0.083 C
HETATM    3  C3  UNL     1      -6.537  29.394 -12.566  1.00  0.00     0.253 C
ENDROOT
BRANCH   3   4
HETATM    4  N1  UNL     1      -5.549  28.365 -12.428  1.00  0.00    -0.337 N
HETATM    5  C4  UNL     1      -4.399  28.538 -11.610  1.00  0.00     0.250 C
HETATM    6  O1  UNL     1      -4.213  29.609 -10.980  1.00  0.00    -0.271 OA
ATOM      7  H1  UNL     1      -5.675  27.485 -12.929  1.00  0.00     0.164 HD
BRANCH   5   8
HETATM    8  C5  UNL     1      -3.398  27.475 -11.478  1.00  0.00     0.280 C
BRANCH   8   9
HETATM    9  N2  UNL     1      -2.869  27.044 -12.756  1.00  0.00    -0.066 N
ATOM     10  H23 UNL     1      -3.151  27.679 -13.502  1.00  0.00     0.275 HD
ATOM     11  H22 UNL     1      -1.859  27.178 -12.799  1.00  0.00     0.275 HD
ATOM     12  H21 UNL     1      -3.120  26.081 -12.980  1.00  0.00     0.275 HD
ENDBRANCH   8   9
BRANCH   8  13
HETATM   13  C6  UNL     1      -2.221  27.899 -10.619  1.00  0.00     0.101 C
BRANCH  13  14
HETATM   14  C7  UNL     1      -1.694  26.694  -9.931  1.00  0.00     0.045 A
HETATM   15  C8  UNL     1      -2.422  25.615  -9.429  1.00  0.00     0.131 A
HETATM   16  N3  UNL     1      -1.560  24.740  -8.884  1.00  0.00    -0.200 N
HETATM   17  C9  UNL     1      -0.319  25.239  -9.032  1.00  0.00     0.675 A
ATOM     18  H3  UNL     1      -1.803  23.855  -8.438  1.00  0.00     0.183 HD
HETATM   19  N5  UNL     1      -0.410  26.412  -9.661  1.00  0.00    -0.194 N
ATOM     20  H5  UNL     1       0.382  27.009  -9.902  1.00  0.00     0.184 HD
BRANCH  17  21
HETATM   21  N4  UNL     1       0.781  24.660  -8.621  1.00  0.00    -0.234 N
ATOM     22  H42 UNL     1       1.361  24.012  -9.154  1.00  0.00     0.174 HD
ATOM     23  H41 UNL     1       1.206  24.789  -7.702  1.00  0.00     0.174 HD
ENDBRANCH  17  21
ENDBRANCH  13  14
ENDBRANCH   8  13
ENDBRANCH   5   8
ENDBRANCH   3   4
BRANCH   3  24
HETATM   24  C10 UNL     1      -6.370  30.152 -13.851  1.00  0.00     0.265 C
HETATM   25  N6  UNL     1      -5.081  30.447 -14.367  1.00  0.00    -0.059 NA
HETATM   26  O2  UNL     1      -7.360  30.553 -14.517  1.00  0.00    -0.273 OA
ENDBRANCH   3  24
TORSDOF 7
ENDMDL