MODEL 4
REMARK VINA RESULT: -4.710429278      2.372      5.999
REMARK  6 active torsions:
REMARK  status: ('A' for Active; 'I' for Inactive)
REMARK       I    between atoms: C2_2  and  N1_4
REMARK    1  A    between atoms: N1_4  and  C3_6
REMARK    2  A    between atoms: C3_6  and  C4_7
REMARK    3  A    between atoms: C4_7  and  C5_8
REMARK    4  A    between atoms: C4_7  and  C7_14
REMARK    5  A    between atoms: C5_8  and  N2_10
REMARK    6  A    between atoms: C9_19  and  N4_20
REMARK       I    between atoms: N4_20  and  C10_22
ROOT
HETATM    1  C7  UNL     1       0.083  25.154  -9.858  1.00  0.00     0.124 C
HETATM    2  N3  UNL     1       0.037  23.711  -9.890  1.00  0.00    -0.352 N
ATOM      3  H3  UNL     1      -0.714  23.021  -9.853  1.00  0.00     0.163 HD
HETATM    4  C8  UNL     1       1.470  23.629  -9.994  1.00  0.00     0.242 C
HETATM    5  O2  UNL     1       2.301  22.689  -9.939  1.00  0.00    -0.271 OA
HETATM    6  C9  UNL     1       1.519  25.101 -10.189  1.00  0.00     0.199 C
ENDROOT
BRANCH   1   7
HETATM    7  C4  UNL     1      -0.830  25.860 -10.819  1.00  0.00     0.058 C
BRANCH   7   8
HETATM    8  C3  UNL     1      -1.786  26.674  -9.929  1.00  0.00     0.131 C
BRANCH   8   9
HETATM    9  N1  UNL     1      -2.039  27.984 -10.478  1.00  0.00    -0.361 N
HETATM   10  C2  UNL     1      -3.364  28.368 -10.746  1.00  0.00     0.213 C
HETATM   11  C1  UNL     1      -3.726  29.700 -11.312  1.00  0.00     0.117 C
HETATM   12  O1  UNL     1      -4.324  27.589 -10.517  1.00  0.00    -0.274 OA
ATOM     13  H1  UNL     1      -1.266  28.624 -10.668  1.00  0.00     0.162 HD
ENDBRANCH   8   9
ENDBRANCH   7   8
BRANCH   7  14
HETATM   14  C5  UNL     1      -1.702  24.979 -11.642  1.00  0.00     0.187 C
HETATM   15  C6  UNL     1      -1.962  25.447 -13.041  1.00  0.00     0.040 C
BRANCH  14  16
HETATM   16  N2  UNL     1      -2.988  24.855 -10.985  1.00  0.00    -0.075 N
ATOM     17  H23 UNL     1      -3.254  23.883 -10.829  1.00  0.00     0.274 HD
ATOM     18  H22 UNL     1      -2.958  25.151 -10.010  1.00  0.00     0.274 HD
ATOM     19  H21 UNL     1      -3.682  25.368 -11.528  1.00  0.00     0.274 HD
ENDBRANCH  14  16
ENDBRANCH   7  14
ENDBRANCH   1   7
BRANCH   6  20
HETATM   20  N4  UNL     1       1.957  25.500 -11.491  1.00  0.00    -0.350 N
HETATM   21  C10 UNL     1       3.218  26.201 -11.552  1.00  0.00     0.182 C
HETATM   22  N5  UNL     1       4.083  25.913 -12.453  1.00  0.00    -0.374 N
HETATM   23  N6  UNL     1       3.446  27.200 -10.591  1.00  0.00    -0.064 NA
ATOM     24  H52 UNL     1       3.916  25.187 -13.151  1.00  0.00     0.158 HD
ATOM     25  H51 UNL     1       4.974  26.408 -12.496  1.00  0.00     0.158 HD
ATOM     26  H4  UNL     1       1.410  25.300 -12.328  1.00  0.00     0.163 HD
ENDBRANCH   6  20
TORSDOF 6
ENDMDL