MODEL 2
REMARK VINA RESULT: -5.551832317      0.983      1.160
REMARK  7 active torsions:
REMARK  status: ('A' for Active; 'I' for Inactive)
REMARK    1  A    between atoms: C3_3  and  C4_4
REMARK    2  A    between atoms: C4_4  and  N1_5
REMARK    3  A    between atoms: C4_4  and  C8_17
REMARK       I    between atoms: N1_5  and  C5_7
REMARK    4  A    between atoms: C5_7  and  C6_9
REMARK    5  A    between atoms: C6_9  and  N2_10
REMARK    6  A    between atoms: C6_9  and  C7_14
REMARK    7  A    between atoms: C8_17  and  N4_19
REMARK       I    between atoms: N4_19  and  C10_21
ROOT
HETATM    1  N1  UNL     1      -1.510  25.098 -10.263  1.00  0.00    -0.349 N
ATOM      2  H1  UNL     1      -0.727  24.808 -10.848  1.00  0.00     0.163 HD
HETATM    3  C5  UNL     1      -1.528  24.689  -8.921  1.00  0.00     0.258 C
HETATM    4  O1  UNL     1      -2.456  25.006  -8.137  1.00  0.00    -0.271 OA
ENDROOT
BRANCH   1   5
HETATM    5  C4  UNL     1      -2.548  25.913 -10.855  1.00  0.00     0.129 C
BRANCH   5   6
HETATM    6  C3  UNL     1      -2.115  27.325 -10.943  1.00  0.00    -0.004 C
HETATM    7  C2  UNL     1      -2.983  28.294 -10.783  1.00  0.00    -0.033 C
HETATM    8  C1  UNL     1      -4.430  27.991 -10.510  1.00  0.00     0.036 C
ENDBRANCH   5   6
BRANCH   5   9
HETATM    9  C8  UNL     1      -2.989  25.370 -12.196  1.00  0.00     0.108 C
HETATM   10  C9  UNL     1      -2.292  24.016 -12.376  1.00  0.00     0.034 C
BRANCH   9  11
HETATM   11  N4  UNL     1      -2.581  26.193 -13.292  1.00  0.00    -0.339 N
HETATM   12  C10 UNL     1      -3.545  26.730 -14.172  1.00  0.00     0.329 C
HETATM   13  N5  UNL     1      -3.225  27.547 -15.269  1.00  0.00    -0.040 NA
HETATM   14  O3  UNL     1      -4.765  26.452 -13.946  1.00  0.00    -0.251 OA
ATOM     15  H4  UNL     1      -1.591  26.393 -13.437  1.00  0.00     0.164 HD
ENDBRANCH   9  11
ENDBRANCH   5   9
ENDBRANCH   1   5
BRANCH   3  16
HETATM   16  C6  UNL     1      -0.435  23.853  -8.371  1.00  0.00     0.362 C
BRANCH  16  17
HETATM   17  N2  UNL     1       0.561  24.708  -7.754  1.00  0.00    -0.058 N
ATOM     18  H23 UNL     1       1.487  24.578  -8.160  1.00  0.00     0.275 HD
ATOM     19  H22 UNL     1       0.432  25.690  -7.998  1.00  0.00     0.275 HD
ATOM     20  H21 UNL     1       0.557  24.558  -6.745  1.00  0.00     0.275 HD
ENDBRANCH  16  17
BRANCH  16  21
HETATM   21  C7  UNL     1       0.179  23.037  -9.435  1.00  0.00     0.271 C
HETATM   22  N3  UNL     1      -0.418  21.806  -9.791  1.00  0.00    -0.060 NA
HETATM   23  O2  UNL     1       1.217  23.425 -10.020  1.00  0.00    -0.274 OA
ENDBRANCH  16  21
ENDBRANCH   3  16
TORSDOF 7
ENDMDL