MODEL 4
REMARK VINA RESULT: -4.368177272      1.639      2.037
REMARK  4 active torsions:
REMARK  status: ('A' for Active; 'I' for Inactive)
REMARK       I    between atoms: C1_2  and  N1_3
REMARK    1  A    between atoms: C1_2  and  C7_10
REMARK    2  A    between atoms: N1_3  and  C2_5
REMARK    3  A    between atoms: C2_5  and  C3_6
REMARK    4  A    between atoms: C3_6  and  C4_7
ROOT
HETATM    1  O1  UNL     1      34.351 153.311 335.284  1.00  0.00    -0.273 OA
HETATM    2  C1  UNL     1      33.202 152.985 335.624  1.00  0.00     0.221 C
HETATM    3  N1  UNL     1      32.804 153.145 336.973  1.00  0.00    -0.361 N
ATOM      4  H1  UNL     1      31.855 152.866 337.223  1.00  0.00     0.162 HD
ENDROOT
BRANCH   2   5
HETATM    5  C7  UNL     1      32.259 152.442 334.660  1.00  0.00     0.080 C
HETATM    6  C8  UNL     1      32.782 151.095 334.148  1.00  0.00     0.017 C
HETATM    7  C9  UNL     1      31.553 150.622 333.373  1.00  0.00     0.038 C
HETATM    8  C10 UNL     1      30.463 150.860 334.424  1.00  0.00     0.171 C
HETATM    9  F1  UNL     1      30.501 149.764 335.291  1.00  0.00    -0.249 F
HETATM   10  C11 UNL     1      30.930 152.067 335.213  1.00  0.00     0.051 C
ENDBRANCH   2   5
BRANCH   3  11
HETATM   11  C2  UNL     1      33.640 153.670 338.015  1.00  0.00     0.123 C
BRANCH  11  12
HETATM   12  C3  UNL     1      33.468 155.128 338.289  1.00  0.00     0.024 C
BRANCH  12  13
HETATM   13  C4  UNL     1      32.021 155.495 337.967  1.00  0.00    -0.013 A
HETATM   14  C5  UNL     1      31.778 156.616 337.019  1.00  0.00     0.005 A
HETATM   15  C6  UNL     1      31.606 156.859 338.491  1.00  0.00     0.005 A
ENDBRANCH  12  13
ENDBRANCH  11  12
ENDBRANCH   3  11
TORSDOF 4
ENDMDL