MODEL 3
REMARK VINA RESULT: -4.310091595      1.824      2.060
REMARK  4 active torsions:
REMARK  status: ('A' for Active; 'I' for Inactive)
REMARK    1  A    between atoms: C1_2  and  C2_3
REMARK       I    between atoms: C1_2  and  N1_7
REMARK    2  A    between atoms: C2_3  and  C3_4
REMARK    3  A    between atoms: N1_7  and  C6_9
REMARK    4  A    between atoms: C6_9  and  C7_10
ROOT
HETATM    1  O1  UNL     1      33.858 150.585 336.275  1.00  0.00    -0.274 OA
HETATM    2  C1  UNL     1      32.819 151.084 335.803  1.00  0.00     0.217 C
HETATM    3  N1  UNL     1      32.604 152.469 335.948  1.00  0.00    -0.361 N
ATOM      4  H1  UNL     1      31.756 152.888 335.566  1.00  0.00     0.162 HD
ENDROOT
BRANCH   3   5
HETATM    5  C6  UNL     1      33.562 153.302 336.628  1.00  0.00     0.127 C
BRANCH   5   6
HETATM    6  C7  UNL     1      33.140 153.697 338.003  1.00  0.00     0.008 C
HETATM    7  C8  UNL     1      31.715 154.250 337.892  1.00  0.00     0.007 C
HETATM    8  C9  UNL     1      31.965 155.695 337.509  1.00  0.00     0.005 C
HETATM    9  C10 UNL     1      33.162 156.091 338.350  1.00  0.00    -0.010 A
HETATM   10  C11 UNL     1      34.489 155.900 337.735  1.00  0.00     0.010 A
HETATM   11  C12 UNL     1      33.947 154.809 338.592  1.00  0.00    -0.004 A
ENDBRANCH   5   6
ENDBRANCH   3   5
BRANCH   2  12
HETATM   12  C2  UNL     1      31.841 150.239 335.112  1.00  0.00     0.107 C
BRANCH  12  13
HETATM   13  C3  UNL     1      30.826 150.991 334.322  1.00  0.00    -0.006 A
HETATM   14  C4  UNL     1      30.960 150.810 332.814  1.00  0.00     0.005 A
HETATM   15  C5  UNL     1      29.762 150.344 333.548  1.00  0.00     0.005 A
ENDBRANCH  12  13
ENDBRANCH   2  12
TORSDOF 4
ENDMDL