MODEL 3
REMARK VINA RESULT: -4.314327370      1.178      1.389
REMARK  4 active torsions:
REMARK  status: ('A' for Active; 'I' for Inactive)
REMARK    1  A    between atoms: C1_2  and  C2_3
REMARK       I    between atoms: C1_2  and  N1_10
REMARK    2  A    between atoms: C2_3  and  C3_4
REMARK    3  A    between atoms: N1_10  and  C8_11
REMARK    4  A    between atoms: C8_11  and  C9_12
ROOT
HETATM    1  O1  UNL     1      35.453 151.410 336.487  1.00  0.00    -0.258 OA
HETATM    2  C1  UNL     1      34.275 151.814 336.725  1.00  0.00     0.286 C
HETATM    3  N1  UNL     1      33.858 152.886 337.478  1.00  0.00    -0.415 NA
ENDROOT
BRANCH   2   4
HETATM    4  C2  UNL     1      33.133 151.010 336.084  1.00  0.00     0.123 C
BRANCH   4   5
HETATM    5  C3  UNL     1      32.610 151.786 334.897  1.00  0.00    -0.002 C
HETATM    6  C4  UNL     1      32.668 150.975 333.639  1.00  0.00     0.008 C
HETATM    7  C5  UNL     1      31.253 150.655 333.248  1.00  0.00     0.037 C
HETATM    8  C6  UNL     1      30.439 150.923 334.489  1.00  0.00     0.170 C
HETATM    9  F1  UNL     1      30.406 149.730 335.201  1.00  0.00    -0.249 F
HETATM   10  C7  UNL     1      31.126 152.044 335.180  1.00  0.00     0.042 C
ENDBRANCH   4   5
ENDBRANCH   2   4
BRANCH   3  11
HETATM   11  C8  UNL     1      33.451 153.932 338.212  1.00  0.00     0.226 C
BRANCH  11  12
HETATM   12  C9  UNL     1      32.017 154.358 337.875  1.00  0.00     0.016 A
HETATM   13  C10 UNL     1      31.587 155.741 338.200  1.00  0.00     0.007 A
HETATM   14  C11 UNL     1      31.945 155.430 336.805  1.00  0.00     0.007 A
ENDBRANCH  11  12
ENDBRANCH   3  11
TORSDOF 4
ENDMDL