MODEL 1
REMARK VINA RESULT: -4.539792324      0.000      0.000
REMARK  4 active torsions:
REMARK  status: ('A' for Active; 'I' for Inactive)
REMARK    1  A    between atoms: C3_3  and  C4_4
REMARK    2  A    between atoms: C4_4  and  C5_5
REMARK    3  A    between atoms: C7_7  and  C8_8
REMARK    4  A    between atoms: C10_11  and  C11_12
ROOT
HETATM    1  C1  UNL     1      31.133 154.317 332.899  1.00  0.00     0.098 C
HETATM    2  C2  UNL     1      31.211 153.560 333.861  1.00  0.00    -0.177 C
HETATM    3  C3  UNL     1      31.291 152.609 334.998  1.00  0.00     0.024 A
HETATM    4  C9  UNL     1      30.407 151.333 334.814  1.00  0.00     0.037 A
HETATM    5  C10 UNL     1      31.880 151.310 334.635  1.00  0.00     0.096 A
ENDROOT
BRANCH   3   6
HETATM    6  C4  UNL     1      31.194 153.179 336.352  1.00  0.00     0.027 C
BRANCH   6   7
HETATM    7  C5  UNL     1      32.166 154.199 336.787  1.00  0.00    -0.006 A
HETATM    8  C6  UNL     1      31.936 155.363 337.628  1.00  0.00     0.012 A
HETATM    9  C7  UNL     1      32.566 154.169 338.274  1.00  0.00     0.019 A
BRANCH   9  10
HETATM   10  C8  UNL     1      34.029 154.130 338.573  1.00  0.00     0.227 C
HETATM   11  F1  UNL     1      34.181 153.513 339.811  1.00  0.00    -0.255 F
ENDBRANCH   9  10
ENDBRANCH   6   7
ENDBRANCH   3   6
BRANCH   5  12
HETATM   12  C11 UNL     1      32.663 150.437 335.489  1.00  0.00     0.236 C
HETATM   13  N1  UNL     1      33.932 150.807 335.969  1.00  0.00    -0.062 NA
HETATM   14  O1  UNL     1      32.222 149.312 335.826  1.00  0.00    -0.276 OA
ENDBRANCH   5  12
TORSDOF 4
ENDMDL