MODEL 2
REMARK VINA RESULT: -4.478108136      1.787      2.535
REMARK  4 active torsions:
REMARK  status: ('A' for Active; 'I' for Inactive)
REMARK    1  A    between atoms: C2_2  and  C3_3
REMARK    2  A    between atoms: C2_2  and  N1_6
REMARK    3  A    between atoms: C3_3  and  C4_4
REMARK       I    between atoms: N1_6  and  C5_8
REMARK    4  A    between atoms: C5_8  and  C6_10
ROOT
HETATM    1  N1  UNL     1      30.988 152.541 335.381  1.00  0.00    -0.331 N
ATOM      2  H1  UNL     1      30.137 152.763 335.899  1.00  0.00     0.168 HD
HETATM    3  C5  UNL     1      32.008 153.486 335.432  1.00  0.00     0.226 C
HETATM    4  O1  UNL     1      33.107 153.365 334.856  1.00  0.00    -0.273 OA
ENDROOT
BRANCH   3   5
HETATM    5  C6  UNL     1      31.763 154.726 336.234  1.00  0.00     0.082 C
HETATM    6  C7  UNL     1      32.989 155.623 336.249  1.00  0.00     0.019 C
HETATM    7  C8  UNL     1      33.228 155.998 337.692  1.00  0.00    -0.013 C
HETATM    8  C9  UNL     1      33.888 154.837 338.368  1.00  0.00     0.005 C
HETATM    9  C12 UNL     1      31.802 155.856 338.254  1.00  0.00     0.010 C
HETATM   10  C10 UNL     1      32.815 153.758 338.279  1.00  0.00     0.006 C
HETATM   11  C11 UNL     1      31.588 154.431 337.700  1.00  0.00    -0.001 C
ENDBRANCH   3   5
BRANCH   1  12
HETATM   12  C2  UNL     1      31.002 151.310 334.692  1.00  0.00     0.005 C
HETATM   13  C1  UNL     1      31.327 150.140 335.176  1.00  0.00     0.038 C
BRANCH  12  14
HETATM   14  C3  UNL     1      30.600 151.295 333.221  1.00  0.00     0.087 C
BRANCH  14  15
HETATM   15  C4  UNL     1      29.542 150.231 333.060  1.00  0.00     0.228 C
HETATM   16  F1  UNL     1      28.493 150.715 332.330  1.00  0.00    -0.255 F
ENDBRANCH  14  15
ENDBRANCH  12  14
ENDBRANCH   1  12
TORSDOF 4
ENDMDL