MODEL 3
REMARK VINA RESULT: -4.073551455      2.046      3.656
REMARK  4 active torsions:
REMARK  status: ('A' for Active; 'I' for Inactive)
REMARK    1  A    between atoms: C3_4  and  C4_5
REMARK    2  A    between atoms: C4_5  and  C5_6
REMARK    3  A    between atoms: N2_11  and  C7_12
REMARK    4  A    between atoms: C7_12  and  C8_13
ROOT
HETATM    1  F1  UNL     1      34.657 152.213 338.155  1.00  0.00    -0.248 F
HETATM    2  C1  UNL     1      34.241 152.390 336.858  1.00  0.00     0.200 C
HETATM    3  C2  UNL     1      33.849 151.078 336.190  1.00  0.00     0.075 C
HETATM    4  C3  UNL     1      32.723 151.453 335.283  1.00  0.00     0.228 C
HETATM    5  N2  UNL     1      32.190 152.709 335.704  1.00  0.00     0.096 N
HETATM    6  C11 UNL     1      32.933 153.123 336.888  1.00  0.00     0.309 C
ENDROOT
BRANCH   4   7
HETATM    7  C4  UNL     1      31.695 150.357 335.201  1.00  0.00     0.070 C
BRANCH   7   8
HETATM    8  C5  UNL     1      30.451 150.742 334.486  1.00  0.00     0.213 A
HETATM    9  C6  UNL     1      30.451 150.950 333.040  1.00  0.00     0.265 A
HETATM   10  N1  UNL     1      29.928 149.723 333.565  1.00  0.00    -0.067 N
ATOM     11  H12 UNL     1      30.120 148.734 333.404  1.00  0.00     0.277 HD
ATOM     12  H11 UNL     1      29.045 149.222 333.475  1.00  0.00     0.277 HD
ENDBRANCH   7   8
ENDBRANCH   4   7
BRANCH   5  13
HETATM   13  C7  UNL     1      32.445 153.749 334.708  1.00  0.00     0.277 C
BRANCH  13  14
HETATM   14  C8  UNL     1      31.338 154.744 334.624  1.00  0.00     0.014 A
HETATM   15  C9  UNL     1      31.620 155.871 333.622  1.00  0.00     0.007 A
HETATM   16  C10 UNL     1      31.575 156.161 335.089  1.00  0.00     0.007 A
ENDBRANCH  13  14
ENDBRANCH   5  13
TORSDOF 4
ENDMDL