MODEL 5
REMARK VINA RESULT: -4.413833206      1.098      1.362
REMARK  4 active torsions:
REMARK  status: ('A' for Active; 'I' for Inactive)
REMARK    1  A    between atoms: C1_2  and  C2_3
REMARK       I    between atoms: C1_2  and  N1_10
REMARK    2  A    between atoms: C2_3  and  C3_4
REMARK    3  A    between atoms: C3_4  and  C4_5
REMARK    4  A    between atoms: N1_10  and  C9_12
ROOT
HETATM    1  O1  UNL     1      34.078 150.876 335.645  1.00  0.00    -0.274 OA
HETATM    2  C1  UNL     1      33.174 151.715 335.821  1.00  0.00     0.217 C
HETATM    3  N1  UNL     1      31.981 151.594 335.025  1.00  0.00    -0.354 N
ATOM      4  H1  UNL     1      31.212 152.255 335.131  1.00  0.00     0.163 HD
ENDROOT
BRANCH   2   5
HETATM    5  C2  UNL     1      33.319 152.796 336.809  1.00  0.00     0.103 C
BRANCH   5   6
HETATM    6  C3  UNL     1      32.144 153.721 336.732  1.00  0.00     0.014 C
BRANCH   6   7
HETATM    7  C4  UNL     1      32.125 154.606 337.948  1.00  0.00    -0.014 C
HETATM    8  C5  UNL     1      31.731 156.010 337.523  1.00  0.00     0.004 C
HETATM    9  C6  UNL     1      32.442 156.843 338.570  1.00  0.00     0.000 C
HETATM   10  C7  UNL     1      33.792 156.174 338.641  1.00  0.00     0.000 C
HETATM   11  C8  UNL     1      33.571 154.715 338.406  1.00  0.00     0.004 C
ENDBRANCH   6   7
ENDBRANCH   5   6
ENDBRANCH   2   5
BRANCH   3  12
HETATM   12  C9  UNL     1      31.902 150.515 334.077  1.00  0.00     0.121 A
HETATM   13  C10 UNL     1      31.413 150.774 332.701  1.00  0.00     0.067 A
HETATM   14  C11 UNL     1      30.480 150.158 333.699  1.00  0.00     0.195 A
HETATM   15  F1  UNL     1      29.440 150.905 334.210  1.00  0.00    -0.247 F
ENDBRANCH   3  12
TORSDOF 4
ENDMDL