MODEL 5
REMARK VINA RESULT: -4.264122591      3.213      5.840
REMARK  4 active torsions:
REMARK  status: ('A' for Active; 'I' for Inactive)
REMARK       I    between atoms: C1_2  and  N1_3
REMARK    1  A    between atoms: C1_2  and  C7_11
REMARK    2  A    between atoms: N1_3  and  C2_5
REMARK    3  A    between atoms: C2_5  and  C3_6
REMARK    4  A    between atoms: C3_6  and  C4_7
ROOT
HETATM    1  O1  UNL     1      33.150 151.532 335.597  1.00  0.00    -0.273 OA
HETATM    2  C1  UNL     1      32.231 152.383 335.577  1.00  0.00     0.221 C
HETATM    3  N1  UNL     1      30.918 151.978 335.237  1.00  0.00    -0.361 N
ATOM      4  H1  UNL     1      30.154 152.654 335.214  1.00  0.00     0.162 HD
ENDROOT
BRANCH   3   5
HETATM    5  C2  UNL     1      30.682 150.587 334.923  1.00  0.00     0.123 C
BRANCH   5   6
HETATM    6  C3  UNL     1      29.878 150.428 333.649  1.00  0.00     0.027 C
BRANCH   6   7
HETATM    7  C4  UNL     1      30.567 150.994 332.455  1.00  0.00     0.024 A
HETATM    8  C5  UNL     1      30.128 152.256 331.818  1.00  0.00     0.045 A
HETATM    9  C6  UNL     1      29.754 150.940 331.168  1.00  0.00     0.174 A
HETATM   10  F1  UNL     1      28.398 150.649 331.275  1.00  0.00    -0.249 F
ENDBRANCH   6   7
ENDBRANCH   5   6
ENDBRANCH   3   5
BRANCH   2  11
HETATM   11  C7  UNL     1      32.572 153.792 335.915  1.00  0.00     0.078 C
HETATM   12  C8  UNL     1      31.633 154.742 335.233  1.00  0.00     0.014 C
HETATM   13  C9  UNL     1      31.710 156.006 336.070  1.00  0.00     0.001 C
HETATM   14  C10 UNL     1      31.824 155.489 337.478  1.00  0.00     0.001 C
HETATM   15  C11 UNL     1      32.230 154.037 337.389  1.00  0.00     0.014 C
ENDBRANCH   2  11
TORSDOF 4
ENDMDL