MODEL 5
REMARK VINA RESULT: -4.417984935      4.014      5.431
REMARK  3 active torsions:
REMARK  status: ('A' for Active; 'I' for Inactive)
REMARK    1  A    between atoms: C1_2  and  N1_3
REMARK    2  A    between atoms: N1_3  and  C2_5
REMARK    3  A    between atoms: C2_5  and  C3_6
ROOT
HETATM    1  C3  UNL     1      31.967 154.032 335.863  1.00  0.00    -0.023 C
HETATM    2  C4  UNL     1      33.489 153.956 335.723  1.00  0.00     0.015 C
HETATM    3  C5  UNL     1      34.148 155.089 336.471  1.00  0.00    -0.013 C
HETATM    4  C6  UNL     1      33.607 156.380 335.851  1.00  0.00     0.009 C
HETATM    5  C7  UNL     1      32.135 156.473 336.071  1.00  0.00    -0.013 C
HETATM    6  C8  UNL     1      31.721 156.320 337.502  1.00  0.00     0.009 C
HETATM    7  C9  UNL     1      32.298 155.047 338.088  1.00  0.00    -0.013 C
HETATM    8  C10 UNL     1      33.786 155.038 337.924  1.00  0.00     0.009 C
HETATM    9  C11 UNL     1      31.671 153.894 337.319  1.00  0.00     0.015 C
HETATM   10  C12 UNL     1      31.477 155.342 335.283  1.00  0.00     0.015 C
ENDROOT
BRANCH   1  11
HETATM   11  C2  UNL     1      31.368 152.898 335.089  1.00  0.00     0.131 C
BRANCH  11  12
HETATM   12  N1  UNL     1      32.170 151.706 335.233  1.00  0.00    -0.367 N
ATOM     13  H1  UNL     1      33.166 151.779 335.438  1.00  0.00     0.161 HD
BRANCH  12  14
HETATM   14  C1  UNL     1      31.561 150.434 335.087  1.00  0.00     0.348 C
HETATM   15  O1  UNL     1      32.081 149.437 335.635  1.00  0.00    -0.284 OA
ENDBRANCH  12  14
ENDBRANCH  11  12
ENDBRANCH   1  11
TORSDOF 3
ENDMDL