MODEL 3
REMARK VINA RESULT: -4.152290283      3.038      4.560
REMARK  4 active torsions:
REMARK  status: ('A' for Active; 'I' for Inactive)
REMARK    1  A    between atoms: C1_2  and  C2_4
REMARK    2  A    between atoms: C2_4  and  C3_5
REMARK    3  A    between atoms: C2_4  and  C7_9
REMARK    4  A    between atoms: C3_5  and  C4_6
ROOT
HETATM    1  C7  UNL     1      34.551 153.461 338.902  1.00  0.00     0.057 C
HETATM    2  C8  UNL     1      35.983 153.446 338.316  1.00  0.00     0.044 C
HETATM    3  C9  UNL     1      36.568 154.538 339.174  1.00  0.00     0.189 C
HETATM    4  C10 UNL     1      35.559 155.654 339.162  1.00  0.00     0.066 C
HETATM    5  C11 UNL     1      34.726 154.593 339.853  1.00  0.00     0.197 C
HETATM    6  N1  UNL     1      35.999 154.204 340.493  1.00  0.00    -0.066 N
ATOM      7  H11 UNL     1      36.333 154.621 341.362  1.00  0.00     0.278 HD
ATOM      8  H12 UNL     1      36.140 153.301 340.945  1.00  0.00     0.278 HD
ENDROOT
BRANCH   1   9
HETATM    9  C2  UNL     1      33.553 153.717 337.790  1.00  0.00     0.025 C
BRANCH   9  10
HETATM   10  C1  UNL     1      33.612 152.649 336.786  1.00  0.00     0.328 C
HETATM   11  O1  UNL     1      33.515 152.896 335.601  1.00  0.00    -0.255 OA
HETATM   12  F1  UNL     1      33.775 151.348 337.130  1.00  0.00    -0.159 F
ENDBRANCH   9  10
BRANCH   9  13
HETATM   13  C3  UNL     1      32.245 154.201 338.219  1.00  0.00    -0.008 C
BRANCH  13  14
HETATM   14  C4  UNL     1      31.658 155.463 337.798  1.00  0.00     0.009 A
HETATM   15  C5  UNL     1      32.379 156.557 337.104  1.00  0.00     0.009 A
HETATM   16  C6  UNL     1      31.725 156.765 338.491  1.00  0.00     0.009 A
ENDBRANCH  13  14
ENDBRANCH   9  13
ENDBRANCH   1   9
TORSDOF 4
ENDMDL