MODEL 2
REMARK VINA RESULT: -7.315661076      0.148      1.185
REMARK  5 active torsions:
REMARK  status: ('A' for Active; 'I' for Inactive)
REMARK    1  A    between atoms: N1_2  and  C3_4
REMARK    2  A    between atoms: C4_5  and  O1_6
REMARK    3  A    between atoms: C5_12  and  C6_13
REMARK       I    between atoms: C6_13  and  N4_15
REMARK    4  A    between atoms: N4_15  and  N5_17
REMARK    5  A    between atoms: N5_17  and  C7_19
ROOT
HETATM    1  C6  UNL     1      21.231   6.486  -4.913  1.00  0.00     0.290 C
HETATM    2  O2  UNL     1      20.184   5.886  -5.216  1.00  0.00    -0.264 OA
HETATM    3  N4  UNL     1      21.953   6.129  -3.765  1.00  0.00    -0.250 N
ATOM      4  H4  UNL     1      22.811   6.623  -3.520  1.00  0.00     0.191 HD
ENDROOT
BRANCH   1   5
HETATM    5  C5  UNL     1      21.701   7.563  -5.760  1.00  0.00     0.148 A
HETATM    6  C3  UNL     1      22.167   7.460  -7.068  1.00  0.00     0.116 A
HETATM    7  C4  UNL     1      22.499   8.724  -7.462  1.00  0.00     0.184 A
HETATM    8  N2  UNL     1      22.253   9.586  -6.448  1.00  0.00    -0.278 N
HETATM    9  N3  UNL     1      21.786   8.878  -5.463  1.00  0.00    -0.292 N
ATOM     10  H2  UNL     1      22.404  10.595  -6.455  1.00  0.00     0.189 HD
ATOM     11  H3  UNL     1      21.514   9.272  -4.563  1.00  0.00     0.187 HD
BRANCH   6  12
HETATM   12  N1  UNL     1      22.286   6.289  -7.862  1.00  0.00    -0.384 N
HETATM   13  C1  UNL     1      21.301   5.964  -8.897  1.00  0.00     0.149 C
HETATM   14  C2  UNL     1      23.376   5.338  -7.707  1.00  0.00     0.149 C
ENDBRANCH   6  12
BRANCH   7  15
HETATM   15  O1  UNL     1      23.013   9.163  -8.685  1.00  0.00    -0.343 OA
ATOM     16  H1  UNL     1      23.913   9.181  -8.985  1.00  0.00     0.219 HD
ENDBRANCH   7  15
ENDBRANCH   1   5
BRANCH   3  17
HETATM   17  N5  UNL     1      21.486   5.092  -2.963  1.00  0.00    -0.127 N
ATOM     18  H5  UNL     1      20.549   5.179  -2.568  1.00  0.00     0.206 HD
BRANCH  17  19
HETATM   19  C7  UNL     1      22.157   4.039  -2.689  1.00  0.00     0.728 A
HETATM   20  N6  UNL     1      22.763   3.261  -3.580  1.00  0.00    -0.114 N
HETATM   21  N7  UNL     1      23.342   2.287  -2.907  1.00  0.00    -0.213 N
ATOM     22  H6  UNL     1      22.777   3.392  -4.592  1.00  0.00     0.207 HD
HETATM   23  N8  UNL     1      23.112   2.439  -1.620  1.00  0.00    -0.213 N
ATOM     24  H7  UNL     1      23.885   1.530  -3.322  1.00  0.00     0.210 HD
HETATM   25  N9  UNL     1      22.378   3.526  -1.489  1.00  0.00    -0.114 N
ATOM     26  H8  UNL     1      23.440   1.832  -0.868  1.00  0.00     0.210 HD
ATOM     27  H9  UNL     1      22.036   3.908  -0.607  1.00  0.00     0.207 HD
ENDBRANCH  17  19
ENDBRANCH   3  17
TORSDOF 5
ENDMDL