MODEL 5
REMARK VINA RESULT: -6.676714317      2.162      7.169
REMARK  3 active torsions:
REMARK  status: ('A' for Active; 'I' for Inactive)
REMARK    1  A    between atoms: N1_3  and  C3_5
REMARK    2  A    between atoms: C5_10  and  C6_11
REMARK       I    between atoms: C6_11  and  N4_13
REMARK    3  A    between atoms: N4_13  and  N5_15
REMARK       I    between atoms: N5_15  and  C7_17
ROOT
HETATM    1  C3  UNL     1      22.898   8.718  -7.903  1.00  0.00     0.142 A
HETATM    2  C4  UNL     1      22.253   7.517  -8.150  1.00  0.00     0.150 A
HETATM    3  N2  UNL     1      22.209   7.090  -9.502  1.00  0.00    -0.080 NA
HETATM    4  N3  UNL     1      21.699   6.800  -7.148  1.00  0.00    -0.324 N
ATOM      5  H3  UNL     1      21.230   5.920  -7.359  1.00  0.00     0.169 HD
HETATM    6  C5  UNL     1      21.756   7.231  -5.876  1.00  0.00     0.180 A
HETATM    7  N7  UNL     1      22.378   8.393  -5.619  1.00  0.00    -0.303 N
ATOM      8  H7  UNL     1      22.426   8.725  -4.656  1.00  0.00     0.171 HD
HETATM    9  C8  UNL     1      22.944   9.137  -6.595  1.00  0.00     0.277 A
HETATM   10  O3  UNL     1      23.515  10.219  -6.305  1.00  0.00    -0.266 OA
ENDROOT
BRANCH   6  11
HETATM   11  C6  UNL     1      21.149   6.435  -4.808  1.00  0.00     0.304 C
HETATM   12  O1  UNL     1      19.907   6.429  -4.604  1.00  0.00    -0.263 OA
HETATM   13  N4  UNL     1      21.975   5.641  -3.970  1.00  0.00    -0.260 N
ATOM     14  H4  UNL     1      22.983   5.636  -4.126  1.00  0.00     0.190 HD
BRANCH  13  15
HETATM   15  N5  UNL     1      21.442   4.868  -2.941  1.00  0.00    -0.251 N
HETATM   16  C7  UNL     1      21.335   5.307  -1.612  1.00  0.00     0.347 C
HETATM   17  N6  UNL     1      20.782   4.474  -0.604  1.00  0.00    -0.038 NA
HETATM   18  O2  UNL     1      21.730   6.466  -1.282  1.00  0.00    -0.249 OA
ATOM     19  H5  UNL     1      21.112   3.929  -3.166  1.00  0.00     0.191 HD
ENDBRANCH  13  15
ENDBRANCH   6  11
BRANCH   1  20
HETATM   20  N1  UNL     1      23.478   9.473  -8.943  1.00  0.00    -0.363 N
HETATM   21  C2  UNL     1      24.668   9.336  -9.377  1.00  0.00     0.057 C
HETATM   22  C1  UNL     1      25.094  10.244 -10.496  1.00  0.00     0.054 C
ATOM     23  H1  UNL     1      22.899  10.187  -9.383  1.00  0.00     0.165 HD
ENDBRANCH   1  20
TORSDOF 3
ENDMDL