MODEL 5
REMARK VINA RESULT: -6.790640012      1.170      2.800
REMARK  8 active torsions:
REMARK  status: ('A' for Active; 'I' for Inactive)
REMARK    1  A    between atoms: C2_2  and  N1_3
REMARK       I    between atoms: N1_3  and  C3_5
REMARK    2  A    between atoms: C3_5  and  C4_7
REMARK    3  A    between atoms: C5_8  and  O2_9
REMARK    4  A    between atoms: C6_13  and  N3_14
REMARK    5  A    between atoms: N3_14  and  N4_16
REMARK    6  A    between atoms: C7_19  and  N5_20
REMARK    7  A    between atoms: N5_20  and  O3_22
REMARK    8  A    between atoms: N6_24  and  O4_25
ROOT
HETATM    1  C4  UNL     1      22.635   6.733  -4.382  1.00  0.00     0.183 A
HETATM    2  C5  UNL     1      22.241   7.063  -3.112  1.00  0.00     0.177 A
HETATM    3  N2  UNL     1      22.037   6.152  -2.126  1.00  0.00    -0.317 N
ATOM      4  H2  UNL     1      21.744   6.450  -1.196  1.00  0.00     0.169 HD
HETATM    5  C6  UNL     1      22.228   4.863  -2.397  1.00  0.00     0.170 A
HETATM    6  C7  UNL     1      22.621   4.503  -3.656  1.00  0.00     0.199 A
HETATM    7  N6  UNL     1      22.819   5.411  -4.619  1.00  0.00    -0.193 N
ENDROOT
BRANCH   1   8
HETATM    8  C3  UNL     1      22.858   7.669  -5.444  1.00  0.00     0.275 C
HETATM    9  N1  UNL     1      22.305   7.649  -6.727  1.00  0.00    -0.356 N
ATOM     10  H1  UNL     1      21.663   6.905  -6.997  1.00  0.00     0.162 HD
HETATM   11  O1  UNL     1      23.662   8.647  -5.183  1.00  0.00    -0.266 OA
BRANCH   9  12
HETATM   12  C2  UNL     1      22.660   8.717  -7.692  1.00  0.00     0.118 C
HETATM   13  C1  UNL     1      21.944   8.431  -8.994  1.00  0.00     0.026 C
ENDBRANCH   9  12
ENDBRANCH   1   8
BRANCH   2  14
HETATM   14  O2  UNL     1      22.020   8.402  -2.747  1.00  0.00    -0.344 OA
ATOM     15  H2  UNL     1      22.428   9.114  -3.224  1.00  0.00     0.219 HD
ENDBRANCH   2  14
BRANCH   7  16
HETATM   16  O4  UNL     1      23.215   5.006  -5.876  1.00  0.00    -0.280 OA
ATOM     17  H4  UNL     1      23.021   5.562  -6.621  1.00  0.00     0.245 HD
ENDBRANCH   7  16
BRANCH   6  18
HETATM   18  N5  UNL     1      22.842   3.111  -4.002  1.00  0.00    -0.248 N
ATOM     19  H5  UNL     1      22.409   2.721  -4.839  1.00  0.00     0.196 HD
BRANCH  18  20
HETATM   20  O3  UNL     1      23.558   2.389  -3.279  1.00  0.00    -0.288 OA
ATOM     21  H3  UNL     1      24.445   2.175  -3.544  1.00  0.00     0.244 HD
ENDBRANCH  18  20
ENDBRANCH   6  18
BRANCH   5  22
HETATM   22  N3  UNL     1      22.053   3.945  -1.507  1.00  0.00    -0.289 N
ATOM     23  H3  UNL     1      22.841   3.412  -1.142  1.00  0.00     0.188 HD
BRANCH  22  24
HETATM   24  N4  UNL     1      20.762   3.704  -1.062  1.00  0.00    -0.344 N
ATOM     25  H42 UNL     1      19.998   4.308  -1.364  1.00  0.00     0.176 HD
ATOM     26  H41 UNL     1      20.610   2.916  -0.433  1.00  0.00     0.176 HD
ENDBRANCH  22  24
ENDBRANCH   5  22
TORSDOF 8
ENDMDL