MODEL 1
REMARK VINA RESULT: -7.536077382      0.000      0.000
REMARK  3 active torsions:
REMARK  status: ('A' for Active; 'I' for Inactive)
REMARK    1  A    between atoms: N1_1  and  N2_4
REMARK    2  A    between atoms: N3_6  and  C1_8
REMARK    3  A    between atoms: C4_17  and  C5_18
REMARK       I    between atoms: C5_18  and  N6_20
REMARK       I    between atoms: N6_20  and  C6_22
ROOT
HETATM    1  C1  UNL     1      22.318   5.344  -3.347  1.00  0.00     0.146 A
HETATM    2  N4  UNL     1      22.126   5.627  -2.061  1.00  0.00    -0.292 N
ATOM      3  H4  UNL     1      22.166   4.872  -1.376  1.00  0.00     0.172 HD
HETATM    4  C2  UNL     1      21.884   6.866  -1.646  1.00  0.00     0.328 A
HETATM    5  O1  UNL     1      21.704   7.110  -0.416  1.00  0.00    -0.247 OA
HETATM    6  N5  UNL     1      21.823   7.889  -2.510  1.00  0.00    -0.275 N
ATOM      7  H5  UNL     1      21.637   8.841  -2.193  1.00  0.00     0.173 HD
HETATM    8  C3  UNL     1      22.021   7.605  -3.837  1.00  0.00     0.269 A
HETATM    9  O2  UNL     1      21.950   8.604  -4.584  1.00  0.00    -0.267 OA
HETATM   10  C4  UNL     1      22.272   6.362  -4.323  1.00  0.00     0.145 A
ENDROOT
BRANCH   1  11
HETATM   11  N3  UNL     1      22.572   4.034  -3.770  1.00  0.00    -0.270 N
HETATM   12  N2  UNL     1      23.021   3.120  -3.021  1.00  0.00    -0.248 N
ATOM     13  H2  UNL     1      23.222   3.317  -2.041  1.00  0.00     0.207 HD
ATOM     14  H3  UNL     1      22.383   3.802  -4.745  1.00  0.00     0.190 HD
BRANCH  12  15
HETATM   15  N1  UNL     1      23.242   1.844  -3.533  1.00  0.00    -0.331 N
ATOM     16  H12 UNL     1      22.531   1.125  -3.393  1.00  0.00     0.178 HD
ATOM     17  H11 UNL     1      24.103   1.638  -4.039  1.00  0.00     0.178 HD
ENDBRANCH  12  15
ENDBRANCH   1  11
BRANCH  10  18
HETATM   18  C5  UNL     1      22.483   6.031  -5.711  1.00  0.00     0.268 C
HETATM   19  O3  UNL     1      23.658   5.645  -6.059  1.00  0.00    -0.267 OA
HETATM   20  N6  UNL     1      21.533   6.089  -6.723  1.00  0.00    -0.277 N
HETATM   21  C6  UNL     1      21.868   5.732  -8.076  1.00  0.00     0.335 C
ATOM     22  H6  UNL     1      20.583   6.389  -6.503  1.00  0.00     0.173 HD
HETATM   23  N7  UNL     1      20.912   5.782  -9.131  1.00  0.00    -0.040 NA
HETATM   24  O4  UNL     1      23.031   5.373  -8.304  1.00  0.00    -0.251 OA
ENDBRANCH  10  18
TORSDOF 3
ENDMDL