MODEL 3
REMARK VINA RESULT: -6.895336351      1.475      3.623
REMARK  6 active torsions:
REMARK  status: ('A' for Active; 'I' for Inactive)
REMARK    1  A    between atoms: C3_3  and  C4_4
REMARK    2  A    between atoms: C4_4  and  O1_5
REMARK    3  A    between atoms: C4_4  and  N1_7
REMARK    4  A    between atoms: N1_7  and  N2_9
REMARK    5  A    between atoms: N4_14  and  N5_15
REMARK    6  A    between atoms: C7_20  and  C8_21
ROOT
HETATM    1  C1  UNL     1      21.677   7.277  -4.378  1.00  0.00     0.050 C
HETATM    2  C2  UNL     1      22.256   5.923  -4.121  1.00  0.00    -0.023 A
HETATM    3  C3  UNL     1      22.203   5.457  -2.829  1.00  0.00     0.066 A
HETATM    4  C5  UNL     1      22.616   4.121  -2.678  1.00  0.00     0.156 A
HETATM    5  N3  UNL     1      22.591   3.542  -1.361  1.00  0.00    -0.080 NA
HETATM    6  N4  UNL     1      23.034   3.360  -3.702  1.00  0.00    -0.211 N
HETATM    7  C6  UNL     1      23.086   3.828  -4.944  1.00  0.00     0.283 A
HETATM    8  O2  UNL     1      23.479   3.129  -5.930  1.00  0.00    -0.265 OA
HETATM    9  C7  UNL     1      22.689   5.152  -5.182  1.00  0.00     0.106 A
ENDROOT
BRANCH   3  10
HETATM   10  C4  UNL     1      21.805   6.197  -1.685  1.00  0.00     0.168 C
BRANCH  10  11
HETATM   11  O1  UNL     1      20.946   5.551  -0.908  1.00  0.00    -0.344 OA
ATOM     12  H1  UNL     1      21.317   4.787  -0.484  1.00  0.00     0.219 HD
ENDBRANCH  10  11
BRANCH  10  13
HETATM   13  N1  UNL     1      22.109   7.442  -1.174  1.00  0.00    -0.286 N
ATOM     14  H1  UNL     1      22.767   8.062  -1.648  1.00  0.00     0.188 HD
BRANCH  13  15
HETATM   15  N2  UNL     1      21.464   7.832   0.050  1.00  0.00    -0.343 N
ATOM     16  H22 UNL     1      20.956   7.144   0.606  1.00  0.00     0.176 HD
ATOM     17  H21 UNL     1      21.538   8.811   0.329  1.00  0.00     0.176 HD
ENDBRANCH  13  15
ENDBRANCH  10  13
ENDBRANCH   3  10
BRANCH   9  18
HETATM   18  C8  UNL     1      22.857   5.663  -6.532  1.00  0.00     0.271 C
HETATM   19  N6  UNL     1      21.753   5.565  -7.474  1.00  0.00    -0.057 NA
HETATM   20  O3  UNL     1      23.881   6.189  -6.964  1.00  0.00    -0.271 OA
ENDBRANCH   9  18
BRANCH   6  21
HETATM   21  N5  UNL     1      23.429   2.031  -3.460  1.00  0.00    -0.334 N
ATOM     22  H52 UNL     1      24.205   1.857  -2.822  1.00  0.00     0.177 HD
ATOM     23  H51 UNL     1      22.935   1.268  -3.924  1.00  0.00     0.177 HD
ENDBRANCH   6  21
TORSDOF 6
ENDMDL