MODEL 5
REMARK VINA RESULT: -7.702281563      1.895      7.114
REMARK  3 active torsions:
REMARK  status: ('A' for Active; 'I' for Inactive)
REMARK    1  A    between atoms: C3_4  and  C4_5
REMARK    2  A    between atoms: C4_5  and  N2_6
REMARK       I    between atoms: N2_6  and  C5_8
REMARK       I    between atoms: C5_8  and  N3_10
REMARK       I    between atoms: N3_10  and  C6_12
REMARK       I    between atoms: C6_12  and  N5_16
REMARK       I    between atoms: N5_16  and  C7_18
REMARK       I    between atoms: C7_18  and  N6_20
REMARK    3  A    between atoms: N6_20  and  N7_22
ROOT
HETATM    1  N2  UNL     1      22.175   7.692  -5.426  1.00  0.00    -0.337 N
ATOM      2  H2  UNL     1      21.468   7.232  -5.999  1.00  0.00     0.164 HD
HETATM    3  C5  UNL     1      23.123   8.535  -6.040  1.00  0.00     0.334 C
HETATM    4  O1  UNL     1      24.077   9.113  -5.539  1.00  0.00    -0.246 OA
HETATM    5  N3  UNL     1      22.885   8.739  -7.525  1.00  0.00    -0.141 N
ATOM      6  H3  UNL     1      22.123   8.304  -8.045  1.00  0.00     0.189 HD
HETATM    7  C6  UNL     1      23.800   9.567  -8.081  1.00  0.00     0.683 C
HETATM    8  N4  UNL     1      24.594  10.287  -8.573  1.00  0.00    -0.234 N
ATOM      9  H41 UNL     1      25.284  10.910  -8.991  1.00  0.00     0.174 HD
ATOM     10  H42 UNL     1      25.036  10.353  -7.656  1.00  0.00     0.174 HD
HETATM   11  N5  UNL     1      23.044   9.453  -9.651  1.00  0.00    -0.140 N
ATOM     12  H5  UNL     1      23.374  10.060 -10.401  1.00  0.00     0.189 HD
HETATM   13  C7  UNL     1      22.093   8.637  -9.895  1.00  0.00     0.352 C
HETATM   14  O2  UNL     1      21.483   7.741  -9.287  1.00  0.00    -0.245 OA
HETATM   15  N6  UNL     1      21.520   8.755 -11.298  1.00  0.00    -0.258 N
ATOM     16  H6  UNL     1      21.808   9.485 -11.950  1.00  0.00     0.191 HD
ENDROOT
BRANCH   1  17
HETATM   17  C4  UNL     1      22.190   7.472  -4.021  1.00  0.00     0.184 C
BRANCH  17  18
HETATM   18  C3  UNL     1      22.304   6.108  -3.518  1.00  0.00     0.062 A
HETATM   19  C2  UNL     1      22.778   5.058  -4.261  1.00  0.00     0.139 A
HETATM   20  N1  UNL     1      22.768   3.996  -3.424  1.00  0.00    -0.291 N
HETATM   21  C1  UNL     1      23.211   2.640  -3.811  1.00  0.00     0.178 C
HETATM   22  N9  UNL     1      22.316   4.376  -2.258  1.00  0.00    -0.241 N
HETATM   23  N8  UNL     1      22.026   5.672  -2.291  1.00  0.00    -0.287 N
ATOM     24  H9  UNL     1      22.204   3.770  -1.445  1.00  0.00     0.208 HD
ATOM     25  H8  UNL     1      21.658   6.230  -1.520  1.00  0.00     0.188 HD
ENDBRANCH  17  18
ENDBRANCH   1  17
BRANCH  15  26
HETATM   26  N7  UNL     1      20.592   7.811 -11.616  1.00  0.00    -0.341 N
ATOM     27  H72 UNL     1      20.602   6.883 -11.191  1.00  0.00     0.177 HD
ATOM     28  H71 UNL     1      19.898   8.107 -12.303  1.00  0.00     0.177 HD
ENDBRANCH  15  26
TORSDOF 3
ENDMDL