MODEL 3
REMARK VINA RESULT: -7.714500592      2.300      3.390
REMARK  2 active torsions:
REMARK  status: ('A' for Active; 'I' for Inactive)
REMARK       I    between atoms: N5_10  and  C4_12
REMARK       I    between atoms: C4_12  and  N6_13
REMARK       I    between atoms: C4_12  and  N7_17
REMARK    1  A    between atoms: C5_21  and  C6_22
REMARK    2  A    between atoms: C7_25  and  O2_26
ROOT
HETATM    1  C1  UNL     1      22.632   2.443  -1.949  1.00  0.00     0.175 C
HETATM    2  N1  UNL     1      22.951   2.773  -3.309  1.00  0.00    -0.274 N
HETATM    3  N2  UNL     1      23.372   1.975  -4.287  1.00  0.00    -0.018 NA
HETATM    4  N3  UNL     1      23.561   2.647  -5.408  1.00  0.00    -0.267 N
ATOM      5  H3  UNL     1      23.880   2.260  -6.296  1.00  0.00     0.186 HD
HETATM    6  C2  UNL     1      23.251   3.952  -5.165  1.00  0.00     0.151 A
HETATM    7  N4  UNL     1      23.255   5.063  -5.920  1.00  0.00    -0.325 N
ATOM      8  H4  UNL     1      23.542   4.989  -6.897  1.00  0.00     0.169 HD
HETATM    9  C3  UNL     1      22.904   6.244  -5.451  1.00  0.00     0.124 A
HETATM   10  N5  UNL     1      22.889   7.329  -6.120  1.00  0.00    -0.326 N
ATOM     11  H5  UNL     1      22.594   8.169  -5.621  1.00  0.00     0.164 HD
HETATM   12  C4  UNL     1      23.240   7.495  -7.487  1.00  0.00     0.481 C
HETATM   13  N6  UNL     1      23.862   8.821  -7.621  1.00  0.00    -0.033 N
ATOM     14  H61 UNL     1      24.114   8.940  -8.601  1.00  0.00     0.278 HD
ATOM     15  H62 UNL     1      24.649   8.959  -6.988  1.00  0.00     0.278 HD
ATOM     16  H63 UNL     1      23.274   9.575  -7.265  1.00  0.00     0.278 HD
HETATM   17  N7  UNL     1      21.987   7.589  -8.252  1.00  0.00    -0.033 N
ATOM     18  H71 UNL     1      22.239   7.708  -9.233  1.00  0.00     0.278 HD
ATOM     19  H72 UNL     1      21.364   8.321  -7.908  1.00  0.00     0.278 HD
ATOM     20  H73 UNL     1      21.363   6.799  -8.094  1.00  0.00     0.278 HD
HETATM   21  C5  UNL     1      22.509   6.336  -4.097  1.00  0.00     0.108 A
HETATM   22  C7  UNL     1      22.480   5.241  -3.266  1.00  0.00     0.116 A
HETATM   23  C8  UNL     1      22.875   4.003  -3.853  1.00  0.00     0.128 A
ENDROOT
BRANCH  21  24
HETATM   24  C6  UNL     1      22.127   7.643  -3.601  1.00  0.00     0.271 C
HETATM   25  N8  UNL     1      21.213   8.474  -4.239  1.00  0.00    -0.057 NA
HETATM   26  O1  UNL     1      22.650   8.075  -2.515  1.00  0.00    -0.271 OA
ENDBRANCH  21  24
BRANCH  22  27
HETATM   27  O2  UNL     1      22.123   5.198  -1.958  1.00  0.00    -0.357 OA
ATOM     28  H2  UNL     1      22.693   5.157  -1.199  1.00  0.00     0.217 HD
ENDBRANCH  22  27
TORSDOF 2
ENDMDL