MODEL 5
REMARK VINA RESULT: -6.699538722      1.364      1.371
REMARK  8 active torsions:
REMARK  status: ('A' for Active; 'I' for Inactive)
REMARK    1  A    between atoms: C2_2  and  N1_3
REMARK    2  A    between atoms: C3_8  and  C4_9
REMARK    3  A    between atoms: C4_9  and  O3_11
REMARK    4  A    between atoms: O3_11  and  C5_12
REMARK    5  A    between atoms: C5_12  and  C6_13
REMARK    6  A    between atoms: C7_14  and  N2_15
REMARK    7  A    between atoms: C8_18  and  N3_19
REMARK    8  A    between atoms: C10_24  and  N4_25
ROOT
HETATM    1  C1  UNL     1      24.635  10.018  -6.542  1.00  0.00     0.080 C
HETATM    2  C2  UNL     1      23.280   9.317  -6.656  1.00  0.00     0.249 C
HETATM    3  O1  UNL     1      23.122   8.552  -5.528  1.00  0.00    -0.335 OA
HETATM    4  C3  UNL     1      21.884   7.920  -5.608  1.00  0.00     0.254 C
HETATM    5  C8  UNL     1      22.051   6.811  -6.656  1.00  0.00     0.224 C
HETATM    6  C9  UNL     1      22.184   7.486  -7.983  1.00  0.00     0.073 C
HETATM    7  C10 UNL     1      23.317   8.488  -7.898  1.00  0.00     0.247 C
ENDROOT
BRANCH   4   8
HETATM    8  C4  UNL     1      21.469   7.395  -4.307  1.00  0.00     0.291 C
HETATM    9  O2  UNL     1      20.224   7.188  -4.129  1.00  0.00    -0.262 OA
BRANCH   8  10
HETATM   10  O3  UNL     1      22.350   7.119  -3.284  1.00  0.00    -0.307 OA
BRANCH  10  11
HETATM   11  C5  UNL     1      22.225   5.894  -2.599  1.00  0.00     0.274 C
BRANCH  11  12
HETATM   12  C6  UNL     1      22.641   4.813  -3.491  1.00  0.00    -0.057 C
HETATM   13  C7  UNL     1      22.976   3.923  -4.244  1.00  0.00     0.005 C
BRANCH  13  14
HETATM   14  N2  UNL     1      23.365   2.880  -5.102  1.00  0.00    -0.359 N
ATOM     15  H22 UNL     1      23.624   3.545  -4.373  1.00  0.00     0.166 HD
ATOM     16  H21 UNL     1      23.636   2.123  -5.729  1.00  0.00     0.166 HD
ENDBRANCH  13  14
ENDBRANCH  11  12
ENDBRANCH  10  11
ENDBRANCH   8  10
ENDBRANCH   4   8
BRANCH   5  17
HETATM   17  N3  UNL     1      20.947   5.931  -6.529  1.00  0.00    -0.072 N
ATOM     18  H33 UNL     1      20.209   6.303  -5.931  1.00  0.00     0.274 HD
ATOM     19  H32 UNL     1      20.401   5.854  -7.387  1.00  0.00     0.274 HD
ATOM     20  H31 UNL     1      21.304   5.032  -6.204  1.00  0.00     0.274 HD
ENDBRANCH   5  17
BRANCH   2  21
HETATM   21  N1  UNL     1      22.228  10.312  -6.677  1.00  0.00    -0.045 N
ATOM     22  H13 UNL     1      22.234  10.899  -5.843  1.00  0.00     0.278 HD
ATOM     23  H12 UNL     1      22.400  11.042  -7.369  1.00  0.00     0.278 HD
ATOM     24  H11 UNL     1      21.331   9.849  -6.818  1.00  0.00     0.278 HD
ENDBRANCH   2  21
BRANCH   7  25
HETATM   25  N4  UNL     1      23.363   9.344  -9.064  1.00  0.00    -0.070 N
ATOM     26  H43 UNL     1      23.130  10.311  -8.839  1.00  0.00     0.274 HD
ATOM     27  H42 UNL     1      24.318   9.493  -9.391  1.00  0.00     0.274 HD
ATOM     28  H41 UNL     1      22.764   8.967  -9.799  1.00  0.00     0.274 HD
ENDBRANCH   7  25
TORSDOF 8
ENDMDL