MODEL 3
REMARK VINA RESULT: -7.411937931      1.421      2.218
REMARK  4 active torsions:
REMARK  status: ('A' for Active; 'I' for Inactive)
REMARK    1  A    between atoms: N1_2  and  N2_4
REMARK       I    between atoms: C2_6  and  N3_7
REMARK       I    between atoms: C2_6  and  N5_12
REMARK    2  A    between atoms: N3_7  and  N4_9
REMARK       I    between atoms: N5_12  and  C3_14
REMARK    3  A    between atoms: C3_14  and  C4_16
REMARK    4  A    between atoms: C4_16  and  O2_17
ROOT
HETATM    1  N2  UNL     1      23.161   9.236  -8.618  1.00  0.00    -0.135 N
ATOM      2  H2  UNL     1      23.439   9.822  -7.831  1.00  0.00     0.205 HD
HETATM    3  C2  UNL     1      22.539   8.147  -8.346  1.00  0.00     0.713 C
HETATM    4  N3  UNL     1      22.150   7.325  -9.431  1.00  0.00    -0.137 N
ATOM      5  H3  UNL     1      22.760   6.552  -9.699  1.00  0.00     0.205 HD
HETATM    6  N5  UNL     1      22.259   7.792  -6.989  1.00  0.00    -0.152 N
ATOM      7  H5  UNL     1      22.557   8.410  -6.234  1.00  0.00     0.187 HD
HETATM    8  C3  UNL     1      21.571   6.589  -6.682  1.00  0.00     0.299 C
HETATM    9  O1  UNL     1      21.180   5.787  -7.566  1.00  0.00    -0.266 OA
ENDROOT
BRANCH   8  10
HETATM   10  C4  UNL     1      21.296   6.252  -5.264  1.00  0.00     0.254 C
HETATM   11  C5  UNL     1      22.241   5.217  -4.726  1.00  0.00     0.080 C
HETATM   12  C6  UNL     1      21.919   5.021  -3.255  1.00  0.00     0.016 C
HETATM   13  C7  UNL     1      22.305   6.235  -2.438  1.00  0.00     0.111 C
HETATM   14  C8  UNL     1      21.877   7.441  -3.191  1.00  0.00     0.261 C
HETATM   15  O3  UNL     1      21.892   8.542  -2.585  1.00  0.00    -0.265 OA
HETATM   16  O4  UNL     1      21.465   7.433  -4.505  1.00  0.00    -0.274 OA
BRANCH  10  17
HETATM   17  O2  UNL     1      19.994   5.774  -5.124  1.00  0.00    -0.358 OA
ATOM     18  H2  UNL     1      19.700   5.875  -4.226  1.00  0.00     0.213 HD
ENDBRANCH  10  17
ENDBRANCH   8  10
BRANCH   1  19
HETATM   19  N1  UNL     1      23.485   9.679  -9.876  1.00  0.00    -0.327 N
HETATM   20  C1  UNL     1      24.862   9.640 -10.389  1.00  0.00     0.168 C
ATOM     21  H1  UNL     1      22.746  10.048 -10.474  1.00  0.00     0.180 HD
ENDBRANCH   1  19
BRANCH   4  22
HETATM   22  N4  UNL     1      20.964   7.524 -10.154  1.00  0.00    -0.331 N
ATOM     23  H42 UNL     1      20.659   8.486 -10.302  1.00  0.00     0.177 HD
ATOM     24  H41 UNL     1      20.408   6.756 -10.531  1.00  0.00     0.177 HD
ENDBRANCH   4  22
TORSDOF 4
ENDMDL