MODEL 3
REMARK VINA RESULT: -6.407148949      1.766      2.555
REMARK  6 active torsions:
REMARK  status: ('A' for Active; 'I' for Inactive)
REMARK    1  A    between atoms: C2_2  and  N1_3
REMARK    2  A    between atoms: N1_3  and  C3_5
REMARK    3  A    between atoms: C5_10  and  N4_11
REMARK    4  A    between atoms: N4_11  and  N5_13
REMARK    5  A    between atoms: N6_16  and  N7_17
REMARK       I    between atoms: N7_17  and  C6_19
REMARK    6  A    between atoms: C6_19  and  C7_21
ROOT
HETATM    1  C3  UNL     1      23.097   5.774  -5.641  1.00  0.00     0.735 A
HETATM    2  N2  UNL     1      23.331   4.660  -6.329  1.00  0.00    -0.112 N
HETATM    3  C4  UNL     1      23.655   4.527  -7.758  1.00  0.00     0.198 C
HETATM    4  N3  UNL     1      23.220   3.657  -5.486  1.00  0.00    -0.112 N
ATOM      5  H3  UNL     1      23.348   2.676  -5.732  1.00  0.00     0.206 HD
HETATM    6  C5  UNL     1      22.916   4.102  -4.255  1.00  0.00     0.748 A
HETATM    7  N6  UNL     1      22.830   5.417  -4.307  1.00  0.00     0.097 N
ENDROOT
BRANCH   7   8
HETATM    8  N7  UNL     1      22.548   6.374  -3.355  1.00  0.00    -0.224 N
HETATM    9  C6  UNL     1      22.050   6.239  -2.057  1.00  0.00     0.338 C
HETATM   10  O1  UNL     1      21.742   5.202  -1.457  1.00  0.00    -0.259 OA
ATOM     11  H7  UNL     1      22.732   7.334  -3.645  1.00  0.00     0.192 HD
BRANCH   9  12
HETATM   12  C7  UNL     1      21.847   7.484  -1.252  1.00  0.00     0.271 C
HETATM   13  O2  UNL     1      22.117   8.601  -1.741  1.00  0.00    -0.640 OA
HETATM   14  O3  UNL     1      21.359   7.417   0.038  1.00  0.00    -0.640 OA
ENDBRANCH   9  12
ENDBRANCH   7   8
BRANCH   1  15
HETATM   15  N1  UNL     1      23.102   6.959  -6.063  1.00  0.00    -0.202 N
ATOM     16  H1  UNL     1      24.005   7.401  -5.896  1.00  0.00     0.183 HD
BRANCH  15  17
HETATM   17  C2  UNL     1      22.237   7.830  -6.687  1.00  0.00     0.074 C
HETATM   18  C1  UNL     1      22.615   9.303  -6.578  1.00  0.00     0.055 C
ENDBRANCH  15  17
ENDBRANCH   1  15
BRANCH   6  19
HETATM   19  N4  UNL     1      22.744   3.340  -3.211  1.00  0.00    -0.135 N
ATOM     20  H4  UNL     1      22.215   3.701  -2.418  1.00  0.00     0.205 HD
BRANCH  19  21
HETATM   21  N5  UNL     1      23.259   2.049  -3.145  1.00  0.00    -0.331 N
ATOM     22  H52 UNL     1      23.523   1.595  -4.019  1.00  0.00     0.177 HD
ATOM     23  H51 UNL     1      23.377   1.557  -2.259  1.00  0.00     0.177 HD
ENDBRANCH  19  21
ENDBRANCH   6  19
TORSDOF 6
ENDMDL