MODEL 3
REMARK VINA RESULT: -6.212008596      1.632      4.078
REMARK  1 active torsions:
REMARK  status: ('A' for Active; 'I' for Inactive)
REMARK    1  A    between atoms: C3_3  and  C4_7
ROOT
HETATM    1  C1  UNL     1      93.472  15.189 128.893  1.00  0.00     0.019 C
HETATM    2  C2  UNL     1      93.258  14.468 129.837  1.00  0.00    -0.064 C
HETATM    3  C3  UNL     1      93.021  13.587 130.968  1.00  0.00     0.062 C
HETATM    4  N1  UNL     1      92.457  12.450 130.707  1.00  0.00    -0.395 N
ATOM      5  H11 UNL     1      92.291  11.832 131.501  1.00  0.00     0.156 HD
ATOM      6  H12 UNL     1      92.186  12.169 129.765  1.00  0.00     0.156 HD
ENDROOT
BRANCH   3   7
HETATM    7  C4  UNL     1      93.417  13.997 132.341  1.00  0.00     0.061 C
HETATM    8  C5  UNL     1      92.599  15.189 132.764  1.00  0.00     0.013 C
HETATM    9  C6  UNL     1      92.952  15.654 134.138  1.00  0.00     0.002 C
HETATM   10  C7  UNL     1      91.828  15.188 135.066  1.00  0.00     0.019 C
HETATM   11  C8  UNL     1      91.681  13.698 134.824  1.00  0.00     0.113 C
HETATM   12  N2  UNL     1      92.978  13.162 134.616  1.00  0.00    -0.420 N
HETATM   13  C9  UNL     1      93.291  12.827 133.258  1.00  0.00     0.125 C
ATOM     14  H2  UNL     1      93.641  13.025 135.379  1.00  0.00     0.153 HD
ENDBRANCH   3   7
TORSDOF 1
ENDMDL