MODEL 4
REMARK VINA RESULT: -5.549025124      1.284      1.724
REMARK  2 active torsions:
REMARK  status: ('A' for Active; 'I' for Inactive)
REMARK    1  A    between atoms: C2_2  and  C3_3
REMARK    2  A    between atoms: C9_12  and  N2_13
ROOT
HETATM    1  C3  UNL     1      93.149  14.304 132.057  1.00  0.00    -0.010 C
HETATM    2  C4  UNL     1      94.420  13.716 132.691  1.00  0.00     0.018 C
HETATM    3  C5  UNL     1      92.482  15.130 133.077  1.00  0.00     0.017 C
HETATM    4  C6  UNL     1      93.020  14.891 134.496  1.00  0.00     0.012 C
HETATM    5  C7  UNL     1      92.464  16.599 132.884  1.00  0.00     0.237 C
HETATM    6  N1  UNL     1      93.288  17.099 131.820  1.00  0.00    -0.073 N
ATOM      7  H11 UNL     1      94.286  17.057 132.029  1.00  0.00     0.277 HD
ATOM      8  H12 UNL     1      93.225  18.111 131.704  1.00  0.00     0.277 HD
HETATM    9  C8  UNL     1      92.923  16.362 130.625  1.00  0.00     0.265 C
HETATM   10  C9  UNL     1      93.593  15.017 130.813  1.00  0.00     0.217 C
ENDROOT
BRANCH  10  11
HETATM   11  N2  UNL     1      93.349  14.276 129.600  1.00  0.00    -0.073 N
ATOM     12  H23 UNL     1      93.155  13.296 129.810  1.00  0.00     0.274 HD
ATOM     13  H22 UNL     1      92.454  14.542 129.189  1.00  0.00     0.274 HD
ATOM     14  H21 UNL     1      94.097  14.355 128.912  1.00  0.00     0.274 HD
ENDBRANCH  10  11
BRANCH   1  15
HETATM   15  C2  UNL     1      92.352  13.110 131.584  1.00  0.00     0.007 C
HETATM   16  C1  UNL     1      92.609  11.861 132.386  1.00  0.00     0.006 C
ENDBRANCH   1  15
TORSDOF 2
ENDMDL