MODEL 5
REMARK VINA RESULT: -5.156210182      1.022      1.875
REMARK  2 active torsions:
REMARK  status: ('A' for Active; 'I' for Inactive)
REMARK    1  A    between atoms: N1_1  and  C1_5
REMARK    2  A    between atoms: C4_8  and  N2_9
ROOT
HETATM    1  N2  UNL     1      92.499  12.588 133.858  1.00  0.00    -0.386 N
ATOM      2  H2  UNL     1      92.158  11.668 133.574  1.00  0.00     0.160 HD
HETATM    3  C5  UNL     1      92.360  12.958 135.062  1.00  0.00     0.166 C
HETATM    4  S1  UNL     1      92.453  13.400 136.601  1.00  0.00    -0.075 SA
ENDROOT
BRANCH   1   5
HETATM    5  C4  UNL     1      93.137  13.452 132.868  1.00  0.00     0.081 C
HETATM    6  C3  UNL     1      92.848  14.869 133.246  1.00  0.00     0.027 C
HETATM    7  C2  UNL     1      93.160  15.887 132.229  1.00  0.00     0.035 C
HETATM    8  C1  UNL     1      93.142  15.473 130.810  1.00  0.00     0.183 C
HETATM    9  C7  UNL     1      93.116  14.025 130.524  1.00  0.00     0.035 C
HETATM   10  C6  UNL     1      92.464  13.168 131.546  1.00  0.00     0.027 C
BRANCH   8  11
HETATM   11  N1  UNL     1      92.042  16.091 130.065  1.00  0.00    -0.075 N
ATOM     12  H13 UNL     1      91.409  16.590 130.689  1.00  0.00     0.274 HD
ATOM     13  H12 UNL     1      92.372  16.877 129.505  1.00  0.00     0.274 HD
ATOM     14  H11 UNL     1      91.538  15.416 129.490  1.00  0.00     0.274 HD
ENDBRANCH   8  11
ENDBRANCH   1   5
TORSDOF 2
ENDMDL