MODEL 5
REMARK VINA RESULT: -5.153830610      1.391      1.717
REMARK  1 active torsions:
REMARK  status: ('A' for Active; 'I' for Inactive)
REMARK    1  A    between atoms: C3_3  and  C4_4
ROOT
HETATM    1  C1  UNL     1      92.479  12.582 130.014  1.00  0.00     0.012 C
HETATM    2  C2  UNL     1      92.468  12.566 131.222  1.00  0.00    -0.115 C
HETATM    3  C3  UNL     1      92.457  12.572 132.700  1.00  0.00     0.133 C
ENDROOT
BRANCH   3   4
HETATM    4  C4  UNL     1      92.909  13.951 133.129  1.00  0.00     0.160 C
HETATM    5  C5  UNL     1      94.406  13.842 133.413  1.00  0.00     0.049 C
HETATM    6  N1  UNL     1      92.679  14.840 132.003  1.00  0.00    -0.062 N
HETATM    7  C6  UNL     1      92.234  16.142 132.398  1.00  0.00     0.260 C
ATOM      8  H12 UNL     1      93.508  14.903 131.413  1.00  0.00     0.278 HD
ATOM      9  H11 UNL     1      92.031  14.421 131.335  1.00  0.00     0.278 HD
HETATM   10  C7  UNL     1      93.029  16.562 133.614  1.00  0.00     0.260 C
HETATM   11  N2  UNL     1      92.814  15.703 134.739  1.00  0.00    -0.067 N
HETATM   12  C8  UNL     1      92.189  14.435 134.353  1.00  0.00     0.218 C
ATOM     13  H22 UNL     1      93.681  15.546 135.254  1.00  0.00     0.277 HD
ATOM     14  H21 UNL     1      92.276  16.174 135.466  1.00  0.00     0.277 HD
HETATM   15  C9  UNL     1      92.382  13.481 135.483  1.00  0.00     0.043 C
ENDBRANCH   3   4
TORSDOF 1
ENDMDL