MODEL 5
REMARK VINA RESULT: -6.618836864      1.343      2.009
REMARK  1 active torsions:
REMARK  status: ('A' for Active; 'I' for Inactive)
REMARK    1  A    between atoms: C2_5  and  C3_6
ROOT
HETATM    1  N1  UNL     1      92.106  16.598 136.922  1.00  0.00    -0.086 NA
HETATM    2  C1  UNL     1      92.226  16.357 135.525  1.00  0.00     0.116 C
HETATM    3  N2  UNL     1      92.125  15.208 134.949  1.00  0.00    -0.353 N
ATOM      4  H2  UNL     1      91.946  14.322 135.421  1.00  0.00     0.162 HD
HETATM    5  C2  UNL     1      92.308  15.379 133.521  1.00  0.00     0.289 C
HETATM    6  N3  UNL     1      93.026  16.601 133.400  1.00  0.00    -0.048 N
ATOM      7  H31 UNL     1      92.969  17.043 132.483  1.00  0.00     0.280 HD
ATOM      8  H32 UNL     1      94.042  16.503 133.401  1.00  0.00     0.280 HD
HETATM    9  C9  UNL     1      92.490  17.393 134.494  1.00  0.00     0.307 C
ENDROOT
BRANCH   5  10
HETATM   10  C3  UNL     1      92.985  14.191 132.904  1.00  0.00     0.036 C
HETATM   11  C4  UNL     1      93.439  14.388 131.507  1.00  0.00     0.008 C
HETATM   12  C5  UNL     1      92.735  13.593 130.475  1.00  0.00     0.001 C
HETATM   13  C6  UNL     1      92.427  12.186 130.826  1.00  0.00     0.000 C
HETATM   14  C7  UNL     1      92.690  11.871 132.296  1.00  0.00     0.001 C
HETATM   15  C8  UNL     1      92.073  12.991 133.087  1.00  0.00     0.008 C
ENDBRANCH   5  10
TORSDOF 1
ENDMDL