MODEL 5
REMARK VINA RESULT: -5.062293697      2.317      4.050
REMARK  1 active torsions:
REMARK  status: ('A' for Active; 'I' for Inactive)
REMARK    1  A    between atoms: C2_3  and  C3_4
ROOT
HETATM    1  N1  UNL     1      94.025  15.005 128.671  1.00  0.00    -0.196 NA
HETATM    2  C1  UNL     1      93.535  14.878 129.715  1.00  0.00     0.076 C
HETATM    3  C2  UNL     1      92.934  14.706 131.051  1.00  0.00     0.104 C
HETATM    4  C4  UNL     1      93.909  15.015 132.118  1.00  0.00     0.032 C
HETATM    5  C5  UNL     1      93.624  16.170 132.987  1.00  0.00     0.002 C
HETATM    6  C6  UNL     1      92.872  17.297 132.399  1.00  0.00     0.000 C
HETATM    7  C7  UNL     1      92.369  17.041 130.998  1.00  0.00     0.002 C
HETATM    8  C8  UNL     1      91.723  15.650 131.062  1.00  0.00     0.032 C
ENDROOT
BRANCH   3   9
HETATM    9  C3  UNL     1      92.460  13.294 131.120  1.00  0.00     0.109 C
HETATM   10  N2  UNL     1      92.445  12.506 130.100  1.00  0.00    -0.390 N
ATOM     11  H22 UNL     1      92.782  12.909 129.226  1.00  0.00     0.157 HD
ATOM     12  H21 UNL     1      92.120  11.540 130.148  1.00  0.00     0.157 HD
HETATM   13  N3  UNL     1      91.984  12.727 132.354  1.00  0.00    -0.086 NA
ENDBRANCH   3   9
TORSDOF 1
ENDMDL