MODEL 5
REMARK VINA RESULT: -6.022843628      0.821      1.267
REMARK  2 active torsions:
REMARK  status: ('A' for Active; 'I' for Inactive)
REMARK    1  A    between atoms: O1_1  and  C1_3
REMARK    2  A    between atoms: C1_3  and  C2_4
ROOT
HETATM    1  C1  UNL     1      93.524  13.915 132.622  1.00  0.00     0.063 C
HETATM    2  C6  UNL     1      93.415  15.191 131.819  1.00  0.00     0.038 C
HETATM    3  C7  UNL     1      92.477  14.848 130.671  1.00  0.00     0.003 C
HETATM    4  C8  UNL     1      92.782  13.385 130.453  1.00  0.00     0.003 C
HETATM    5  C9  UNL     1      92.822  12.853 131.869  1.00  0.00     0.038 C
ENDROOT
BRANCH   1   6
HETATM    6  O1  UNL     1      94.880  13.593 132.690  1.00  0.00    -0.389 OA
ATOM      7  H1  UNL     1      95.164  13.680 133.592  1.00  0.00     0.210 HD
ENDBRANCH   1   6
BRANCH   1   8
HETATM    8  C2  UNL     1      93.036  14.179 133.994  1.00  0.00     0.047 C
HETATM    9  C3  UNL     1      91.866  13.315 134.412  1.00  0.00     0.036 C
HETATM   10  C4  UNL     1      91.463  14.047 135.686  1.00  0.00     0.232 C
HETATM   11  N1  UNL     1      91.819  15.420 135.518  1.00  0.00    -0.075 N
HETATM   12  C5  UNL     1      92.505  15.548 134.245  1.00  0.00     0.239 C
ATOM     13  H12 UNL     1      91.021  16.049 135.602  1.00  0.00     0.277 HD
ATOM     14  H11 UNL     1      92.363  15.786 136.299  1.00  0.00     0.277 HD
ENDBRANCH   1   8
TORSDOF 2
ENDMDL