MODEL 5
REMARK VINA RESULT: -6.410205794      2.168      3.802
REMARK  1 active torsions:
REMARK  status: ('A' for Active; 'I' for Inactive)
REMARK    1  A    between atoms: C4_4  and  C5_5
ROOT
HETATM    1  C5  UNL     1      92.855  14.398 133.715  1.00  0.00     0.077 C
HETATM    2  N1  UNL     1      92.833  13.194 134.179  1.00  0.00    -0.378 N
ATOM      3  H1  UNL     1      93.099  12.369 133.641  1.00  0.00     0.160 HD
HETATM    4  C6  UNL     1      92.390  13.154 135.543  1.00  0.00     0.140 C
HETATM    5  C7  UNL     1      91.699  14.496 135.720  1.00  0.00     0.140 C
HETATM    6  N2  UNL     1      92.425  15.298 134.725  1.00  0.00    -0.378 N
ATOM      7  H2  UNL     1      92.588  16.305 134.755  1.00  0.00     0.160 HD
ENDROOT
BRANCH   1   8
HETATM    8  C4  UNL     1      93.277  14.723 132.320  1.00  0.00     0.053 C
HETATM    9  C3  UNL     1      92.721  13.656 131.400  1.00  0.00     0.012 C
HETATM   10  C2  UNL     1      93.031  13.935 129.962  1.00  0.00     0.001 C
HETATM   11  C1  UNL     1      92.539  15.306 129.541  1.00  0.00     0.000 C
HETATM   12  C9  UNL     1      93.190  16.308 130.472  1.00  0.00     0.001 C
HETATM   13  C8  UNL     1      92.640  16.041 131.863  1.00  0.00     0.012 C
ENDBRANCH   1   8
TORSDOF 1
ENDMDL