MODEL 2
REMARK VINA RESULT: -5.797239414      1.553      3.967
REMARK  2 active torsions:
REMARK  status: ('A' for Active; 'I' for Inactive)
REMARK    1  A    between atoms: C2_2  and  C3_3
REMARK    2  A    between atoms: C3_3  and  N1_4
ROOT
HETATM    1  C3  UNL     1      93.032  13.864 132.446  1.00  0.00     0.125 C
HETATM    2  C4  UNL     1      93.004  15.338 132.353  1.00  0.00     0.039 C
HETATM    3  C5  UNL     1      92.330  16.066 133.458  1.00  0.00     0.004 C
HETATM    4  C6  UNL     1      92.735  15.673 134.835  1.00  0.00     0.019 C
HETATM    5  C7  UNL     1      91.568  15.023 135.519  1.00  0.00     0.113 C
HETATM    6  N2  UNL     1      91.696  13.622 135.720  1.00  0.00    -0.421 N
ATOM      7  H2  UNL     1      91.328  13.155 136.549  1.00  0.00     0.153 HD
HETATM    8  C8  UNL     1      92.378  12.913 134.679  1.00  0.00     0.116 C
HETATM    9  C9  UNL     1      91.938  13.269 133.296  1.00  0.00     0.057 C
ENDROOT
BRANCH   1  10
HETATM   10  C2  UNL     1      92.929  13.183 131.074  1.00  0.00     0.034 C
HETATM   11  C1  UNL     1      93.021  14.138 129.948  1.00  0.00     0.007 C
ENDBRANCH   1  10
BRANCH   1  12
HETATM   12  N1  UNL     1      94.362  13.479 132.951  1.00  0.00    -0.070 N
ATOM     13  H13 UNL     1      94.337  12.900 133.791  1.00  0.00     0.275 HD
ATOM     14  H12 UNL     1      94.851  12.805 132.363  1.00  0.00     0.275 HD
ATOM     15  H11 UNL     1      94.856  14.364 133.070  1.00  0.00     0.275 HD
ENDBRANCH   1  12
TORSDOF 2
ENDMDL