MODEL 4
REMARK VINA RESULT: -4.899923024      2.086      3.841
REMARK  2 active torsions:
REMARK  status: ('A' for Active; 'I' for Inactive)
REMARK    1  A    between atoms: C7_10  and  C8_11
REMARK    2  A    between atoms: C8_11  and  N2_12
ROOT
HETATM    1  N1  UNL     1      93.055  18.290 131.612  1.00  0.00    -0.384 N
ATOM      2  H11 UNL     1      93.278  18.871 132.421  1.00  0.00     0.157 HD
ATOM      3  H12 UNL     1      92.747  18.918 130.870  1.00  0.00     0.157 HD
HETATM    4  C1  UNL     1      93.155  17.006 131.578  1.00  0.00     0.112 C
HETATM    5  C2  UNL     1      92.832  16.160 130.401  1.00  0.00     0.086 C
HETATM    6  C3  UNL     1      92.339  14.893 131.073  1.00  0.00     0.047 C
HETATM    7  C4  UNL     1      93.223  14.817 132.276  1.00  0.00     0.074 C
HETATM    8  C5  UNL     1      94.357  13.842 132.216  1.00  0.00     0.039 C
HETATM    9  C6  UNL     1      94.050  13.465 133.656  1.00  0.00     0.012 C
HETATM   10  C7  UNL     1      92.662  14.034 133.444  1.00  0.00     0.046 C
HETATM   11  O1  UNL     1      93.572  16.152 132.586  1.00  0.00    -0.328 OA
ENDROOT
BRANCH  10  12
HETATM   12  C8  UNL     1      92.170  14.890 134.588  1.00  0.00     0.237 C
BRANCH  12  13
HETATM   13  N2  UNL     1      91.235  14.126 135.370  1.00  0.00    -0.079 N
ATOM     14  H23 UNL     1      90.600  13.576 134.791  1.00  0.00     0.274 HD
ATOM     15  H22 UNL     1      91.680  13.352 135.863  1.00  0.00     0.274 HD
ATOM     16  H21 UNL     1      90.740  14.757 135.999  1.00  0.00     0.274 HD
ENDBRANCH  12  13
ENDBRANCH  10  12
TORSDOF 2
ENDMDL