MODEL 4
REMARK VINA RESULT: -4.639322712      2.597      5.603
REMARK  6 active torsions:
REMARK  status: ('A' for Active; 'I' for Inactive)
REMARK    1  A    between atoms: C2_2  and  C3_3
REMARK    2  A    between atoms: C3_3  and  N1_4
REMARK    3  A    between atoms: N1_4  and  C4_6
REMARK    4  A    between atoms: C6_8  and  N2_9
REMARK    5  A    between atoms: C8_15  and  C9_16
REMARK       I    between atoms: C9_16  and  N4_18
REMARK    6  A    between atoms: N4_18  and  C10_20
ROOT
HETATM    1  C4  UNL     1      14.387  15.465  30.911  1.00  0.00     0.049 A
HETATM    2  C5  UNL     1      14.023  15.590  29.561  1.00  0.00     0.078 A
HETATM    3  C6  UNL     1      12.881  15.002  29.070  1.00  0.00     0.100 A
HETATM    4  N3  UNL     1      12.082  14.292  29.874  1.00  0.00    -0.352 N
ATOM      5  H3  UNL     1      11.236  13.861  29.501  1.00  0.00     0.166 HD
HETATM    6  C7  UNL     1      12.394  14.148  31.170  1.00  0.00     0.109 A
HETATM    7  C8  UNL     1      13.561  14.736  31.711  1.00  0.00     0.073 A
ENDROOT
BRANCH   7   8
HETATM    8  C9  UNL     1      13.837  14.473  33.085  1.00  0.00     0.255 C
HETATM    9  O1  UNL     1      13.022  14.749  33.988  1.00  0.00    -0.268 OA
HETATM   10  N4  UNL     1      15.046  13.883  33.523  1.00  0.00    -0.353 N
ATOM     11  H4  UNL     1      15.753  13.632  32.832  1.00  0.00     0.163 HD
BRANCH  10  12
HETATM   12  C10 UNL     1      15.311  13.622  34.936  1.00  0.00     0.076 C
HETATM   13  C11 UNL     1      16.306  14.674  35.424  1.00  0.00     0.032 C
HETATM   14  C12 UNL     1      15.822  12.243  35.185  1.00  0.00     0.032 C
ENDBRANCH  10  12
ENDBRANCH   7   8
BRANCH   1  15
HETATM   15  N1  UNL     1      15.502  16.148  31.350  1.00  0.00    -0.386 N
ATOM     16  H1  UNL     1      16.412  15.748  31.125  1.00  0.00     0.160 HD
BRANCH  15  17
HETATM   17  C3  UNL     1      15.493  17.396  32.111  1.00  0.00     0.146 C
BRANCH  17  18
HETATM   18  C2  UNL     1      16.771  17.522  32.860  1.00  0.00    -0.018 C
HETATM   19  C1  UNL     1      17.832  16.749  32.718  1.00  0.00     0.008 C
ENDBRANCH  17  18
ENDBRANCH  15  17
ENDBRANCH   1  15
BRANCH   3  20
HETATM   20  N2  UNL     1      12.535  15.109  27.834  1.00  0.00    -0.385 N
ATOM     21  H22 UNL     1      11.557  14.936  27.603  1.00  0.00     0.157 HD
ATOM     22  H21 UNL     1      13.204  15.356  27.104  1.00  0.00     0.157 HD
ENDBRANCH   3  20
TORSDOF 6
ENDMDL