MODEL 2
REMARK VINA RESULT: -5.490744831      1.559      5.670
REMARK  4 active torsions:
REMARK  status: ('A' for Active; 'I' for Inactive)
REMARK    1  A    between atoms: C2_2  and  N1_3
REMARK    2  A    between atoms: N1_3  and  C4_5
REMARK    3  A    between atoms: C7_8  and  N2_9
REMARK       I    between atoms: N2_9  and  C8_11
REMARK    4  A    between atoms: C10_17  and  N5_18
ROOT
HETATM    1  C4  UNL     1      16.587  16.434  32.509  1.00  0.00     0.056 A
HETATM    2  C5  UNL     1      15.426  17.226  32.551  1.00  0.00     0.034 A
HETATM    3  C6  UNL     1      14.411  17.095  31.640  1.00  0.00     0.032 A
HETATM    4  C7  UNL     1      14.486  16.180  30.643  1.00  0.00     0.036 A
HETATM    5  C9  UNL     1      15.618  15.390  30.582  1.00  0.00     0.061 A
HETATM    6  C10 UNL     1      16.647  15.510  31.491  1.00  0.00     0.056 A
ENDROOT
BRANCH   4   7
HETATM    7  N2  UNL     1      13.425  16.036  29.712  1.00  0.00    -0.331 N
HETATM    8  C8  UNL     1      12.481  15.004  29.682  1.00  0.00     0.186 C
HETATM    9  N3  UNL     1      12.800  13.741  29.663  1.00  0.00    -0.373 N
HETATM   10  N4  UNL     1      11.108  15.328  29.667  1.00  0.00    -0.064 NA
ATOM     11  H32 UNL     1      13.792  13.507  29.674  1.00  0.00     0.158 HD
ATOM     12  H31 UNL     1      12.111  12.989  29.641  1.00  0.00     0.158 HD
ATOM     13  H2  UNL     1      13.343  16.755  28.993  1.00  0.00     0.168 HD
ENDBRANCH   4   7
BRANCH   6  14
HETATM   14  N5  UNL     1      17.775  14.669  31.349  1.00  0.00    -0.392 N
HETATM   15  C11 UNL     1      17.771  13.320  31.894  1.00  0.00     0.146 C
ATOM     16  H5  UNL     1      18.600  15.013  30.860  1.00  0.00     0.159 HD
ENDBRANCH   6  14
BRANCH   1  17
HETATM   17  N1  UNL     1      17.601  16.596  33.493  1.00  0.00    -0.384 N
HETATM   18  C3  UNL     1      17.670  15.807  34.682  1.00  0.00     0.149 C
BRANCH  17  19
HETATM   19  C2  UNL     1      18.602  17.609  33.258  1.00  0.00     0.118 C
HETATM   20  C1  UNL     1      19.635  17.686  34.339  1.00  0.00     0.026 C
ENDBRANCH  17  19
ENDBRANCH   1  17
TORSDOF 4
ENDMDL