MODEL 1
REMARK VINA RESULT: -5.256781570      0.000      0.000
REMARK  5 active torsions:
REMARK  status: ('A' for Active; 'I' for Inactive)
REMARK    1  A    between atoms: C2_2  and  C3_3
REMARK    2  A    between atoms: C3_3  and  N1_4
REMARK    3  A    between atoms: N1_4  and  C4_6
REMARK    4  A    between atoms: C5_7  and  N2_8
REMARK       I    between atoms: N2_8  and  C6_10
REMARK    5  A    between atoms: C10_18  and  O1_19
ROOT
HETATM    1  C4  UNL     1      14.616  15.340  31.180  1.00  0.00     0.089 A
HETATM    2  C5  UNL     1      15.790  14.979  31.835  1.00  0.00     0.064 A
HETATM    3  C7  UNL     1      16.549  15.909  32.488  1.00  0.00     0.032 A
HETATM    4  C8  UNL     1      16.173  17.255  32.522  1.00  0.00     0.005 A
HETATM    5  C9  UNL     1      15.012  17.587  31.868  1.00  0.00     0.039 A
HETATM    6  C10 UNL     1      14.228  16.666  31.201  1.00  0.00     0.096 A
ENDROOT
BRANCH   2   7
HETATM    7  N2  UNL     1      16.185  13.615  31.811  1.00  0.00    -0.329 N
HETATM    8  C6  UNL     1      17.540  13.265  32.085  1.00  0.00     0.186 C
HETATM    9  N3  UNL     1      17.773  12.630  33.177  1.00  0.00    -0.373 N
HETATM   10  N4  UNL     1      18.602  13.588  31.212  1.00  0.00    -0.064 NA
ATOM     11  H32 UNL     1      17.006  12.396  33.807  1.00  0.00     0.158 HD
ATOM     12  H31 UNL     1      18.743  12.380  33.373  1.00  0.00     0.158 HD
ATOM     13  H2  UNL     1      15.502  12.888  31.598  1.00  0.00     0.168 HD
ENDBRANCH   2   7
BRANCH   1  14
HETATM   14  N1  UNL     1      13.841  14.369  30.508  1.00  0.00    -0.382 N
ATOM     15  H1  UNL     1      14.002  14.186  29.517  1.00  0.00     0.160 HD
BRANCH  14  16
HETATM   16  C3  UNL     1      12.818  13.631  31.220  1.00  0.00     0.146 C
BRANCH  16  17
HETATM   17  C2  UNL     1      11.452  14.013  30.714  1.00  0.00    -0.018 C
HETATM   18  C1  UNL     1      10.526  14.420  31.539  1.00  0.00     0.008 C
ENDBRANCH  16  17
ENDBRANCH  14  16
ENDBRANCH   1  14
BRANCH   6  19
HETATM   19  O1  UNL     1      13.072  17.011  30.554  1.00  0.00    -0.354 OA
HETATM   20  C11 UNL     1      12.064  17.839  31.079  1.00  0.00     0.210 C
ENDBRANCH   6  19
TORSDOF 5
ENDMDL