MODEL 5
REMARK VINA RESULT: -5.898048525      2.922      5.795
REMARK  5 active torsions:
REMARK  status: ('A' for Active; 'I' for Inactive)
REMARK    1  A    between atoms: C2_2  and  C3_3
REMARK    2  A    between atoms: C3_3  and  N1_6
REMARK    3  A    between atoms: N1_6  and  C6_8
REMARK    4  A    between atoms: C11_13  and  C12_14
REMARK       I    between atoms: C12_14  and  N2_16
REMARK    5  A    between atoms: N2_16  and  N3_18
ROOT
HETATM    1  C6  UNL     1      16.510  16.230  31.991  1.00  0.00     0.044 A
HETATM    2  C7  UNL     1      16.602  17.513  32.547  1.00  0.00     0.030 A
HETATM    3  C8  UNL     1      17.638  17.866  33.384  1.00  0.00     0.002 A
HETATM    4  C9  UNL     1      18.589  16.935  33.672  1.00  0.00     0.001 A
HETATM    5  C10 UNL     1      18.513  15.674  33.138  1.00  0.00     0.019 A
HETATM    6  C11 UNL     1      17.481  15.268  32.284  1.00  0.00     0.060 A
ENDROOT
BRANCH   1   7
HETATM    7  N1  UNL     1      15.516  15.908  31.046  1.00  0.00    -0.381 N
ATOM      8  H1  UNL     1      15.856  15.801  30.091  1.00  0.00     0.160 HD
BRANCH   7   9
HETATM    9  C3  UNL     1      14.101  15.706  31.206  1.00  0.00     0.022 C
HETATM   10  C4  UNL     1      13.765  15.408  32.626  1.00  0.00     0.038 C
HETATM   11  C5  UNL     1      13.443  17.138  31.002  1.00  0.00     0.038 C
BRANCH   9  12
HETATM   12  C2  UNL     1      13.431  14.877  30.174  1.00  0.00     0.025 C
HETATM   13  C1  UNL     1      12.573  15.506  29.163  1.00  0.00     0.007 C
ENDBRANCH   9  12
ENDBRANCH   7   9
ENDBRANCH   1   7
BRANCH   6  14
HETATM   14  C12 UNL     1      17.444  13.879  31.841  1.00  0.00     0.271 C
HETATM   15  O1  UNL     1      18.295  13.326  31.108  1.00  0.00    -0.266 OA
HETATM   16  N2  UNL     1      16.385  13.027  32.236  1.00  0.00    -0.272 N
ATOM     17  H2  UNL     1      15.631  13.364  32.835  1.00  0.00     0.189 HD
BRANCH  16  18
HETATM   18  N3  UNL     1      16.410  11.687  31.767  1.00  0.00    -0.342 N
ATOM     19  H32 UNL     1      16.092  10.926  32.367  1.00  0.00     0.176 HD
ATOM     20  H31 UNL     1      16.754  11.525  30.821  1.00  0.00     0.176 HD
ENDBRANCH  16  18
ENDBRANCH   6  14
TORSDOF 5
ENDMDL