MODEL 1
REMARK VINA RESULT: -5.163006671      0.000      0.000
REMARK  4 active torsions:
REMARK  status: ('A' for Active; 'I' for Inactive)
REMARK    1  A    between atoms: C2_2  and  N1_3
REMARK    2  A    between atoms: N1_3  and  C3_5
REMARK    3  A    between atoms: C9_16  and  N4_17
REMARK    4  A    between atoms: N4_17  and  C10_19
ROOT
HETATM    1  C3  UNL     1      16.344  14.830  31.433  1.00  0.00     0.132 A
HETATM    2  N2  UNL     1      15.153  14.542  30.881  1.00  0.00    -0.339 N
ATOM      3  H2  UNL     1      14.984  13.611  30.501  1.00  0.00     0.167 HD
HETATM    4  C4  UNL     1      14.164  15.486  30.822  1.00  0.00     0.065 A
HETATM    5  C5  UNL     1      12.885  15.474  30.330  1.00  0.00     0.118 A
HETATM    6  N3  UNL     1      12.364  16.686  30.540  1.00  0.00    -0.372 N
ATOM      7  H3  UNL     1      11.422  16.974  30.276  1.00  0.00     0.164 HD
HETATM    8  C6  UNL     1      13.277  17.476  31.157  1.00  0.00     0.105 A
HETATM    9  C7  UNL     1      14.448  16.733  31.353  1.00  0.00     0.060 A
HETATM   10  C8  UNL     1      15.668  17.034  31.920  1.00  0.00     0.215 A
HETATM   11  O1  UNL     1      15.833  18.210  32.383  1.00  0.00    -0.285 OA
HETATM   12  C9  UNL     1      16.620  16.073  31.960  1.00  0.00     0.124 A
ENDROOT
BRANCH  12  13
HETATM   13  N4  UNL     1      17.894  16.315  32.528  1.00  0.00    -0.380 N
ATOM     14  H4  UNL     1      18.659  16.554  31.898  1.00  0.00     0.160 HD
BRANCH  13  15
HETATM   15  C10 UNL     1      18.177  16.245  33.930  1.00  0.00     0.073 C
HETATM   16  C11 UNL     1      18.547  17.615  34.455  1.00  0.00     0.031 C
HETATM   17  C12 UNL     1      19.322  15.315  34.256  1.00  0.00     0.031 C
ENDBRANCH  13  15
ENDBRANCH  12  13
BRANCH   1  18
HETATM   18  N1  UNL     1      17.329  13.815  31.476  1.00  0.00    -0.375 N
ATOM     19  H1  UNL     1      18.158  13.943  30.896  1.00  0.00     0.161 HD
BRANCH  18  20
HETATM   20  C2  UNL     1      17.257  12.612  32.275  1.00  0.00     0.116 C
HETATM   21  C1  UNL     1      16.613  12.832  33.625  1.00  0.00     0.026 C
ENDBRANCH  18  20
ENDBRANCH   1  18
TORSDOF 4
ENDMDL