MODEL 2
REMARK VINA RESULT: -6.381843556      0.062      1.151
REMARK  5 active torsions:
REMARK  status: ('A' for Active; 'I' for Inactive)
REMARK    1  A    between atoms: C2_2  and  N1_3
REMARK    2  A    between atoms: C2_2  and  C3_7
REMARK    3  A    between atoms: C4_8  and  N2_9
REMARK    4  A    between atoms: N2_9  and  C5_11
REMARK    5  A    between atoms: C5_11  and  C6_12
ROOT
HETATM    1  C3  UNL     1      12.860  16.260  30.762  1.00  0.00     0.086 A
HETATM    2  C4  UNL     1      14.176  15.955  31.050  1.00  0.00     0.130 A
HETATM    3  N3  UNL     1      14.708  15.243  30.046  1.00  0.00    -0.282 N
ATOM      4  H3  UNL     1      15.663  14.887  29.997  1.00  0.00     0.188 HD
HETATM    5  N4  UNL     1      13.756  15.087  29.119  1.00  0.00    -0.264 N
ATOM      6  H4  UNL     1      13.870  14.586  28.239  1.00  0.00     0.190 HD
HETATM    7  C12 UNL     1      12.611  15.700  29.531  1.00  0.00     0.272 A
HETATM    8  O1  UNL     1      11.546  15.714  28.854  1.00  0.00    -0.266 OA
ENDROOT
BRANCH   2   9
HETATM    9  N2  UNL     1      14.825  16.367  32.271  1.00  0.00    -0.370 N
ATOM     10  H2  UNL     1      14.629  15.870  33.139  1.00  0.00     0.161 HD
BRANCH   9  11
HETATM   11  C5  UNL     1      15.752  17.480  32.273  1.00  0.00     0.160 C
BRANCH  11  12
HETATM   12  C6  UNL     1      17.063  17.086  32.853  1.00  0.00    -0.041 A
HETATM   13  C7  UNL     1      17.832  17.971  33.563  1.00  0.00     0.009 A
HETATM   14  C8  UNL     1      19.047  17.578  34.080  1.00  0.00     0.001 A
HETATM   15  C9  UNL     1      19.521  16.297  33.903  1.00  0.00     0.000 A
HETATM   16  C10 UNL     1      18.756  15.395  33.191  1.00  0.00     0.001 A
HETATM   17  C11 UNL     1      17.533  15.803  32.675  1.00  0.00     0.009 A
ENDBRANCH  11  12
ENDBRANCH   9  11
ENDBRANCH   2   9
BRANCH   1  18
HETATM   18  C2  UNL     1      11.893  17.019  31.584  1.00  0.00     0.221 C
HETATM   19  C1  UNL     1      11.776  18.452  31.179  1.00  0.00     0.045 C
BRANCH  18  20
HETATM   20  N1  UNL     1      10.576  16.410  31.586  1.00  0.00    -0.071 N
ATOM     21  H13 UNL     1      10.542  15.565  32.157  1.00  0.00     0.275 HD
ATOM     22  H12 UNL     1       9.895  16.964  32.105  1.00  0.00     0.275 HD
ATOM     23  H11 UNL     1      10.282  16.238  30.625  1.00  0.00     0.275 HD
ENDBRANCH  18  20
ENDBRANCH   1  18
TORSDOF 5
ENDMDL