MODEL 2
REMARK VINA RESULT: -5.907144539      3.711      7.580
REMARK  5 active torsions:
REMARK  status: ('A' for Active; 'I' for Inactive)
REMARK    1  A    between atoms: O1_2  and  C2_3
REMARK    2  A    between atoms: C6_7  and  N1_8
REMARK    3  A    between atoms: N1_8  and  C7_10
REMARK    4  A    between atoms: C7_10  and  C8_11
REMARK       I    between atoms: C8_11  and  N2_13
REMARK    5  A    between atoms: N2_13  and  C9_15
ROOT
HETATM    1  C7  UNL     1      15.206  16.619  32.535  1.00  0.00     0.223 C
ENDROOT
BRANCH   1   2
HETATM    2  N1  UNL     1      16.391  17.398  32.515  1.00  0.00    -0.381 N
ATOM      3  H1  UNL     1      16.379  18.337  32.119  1.00  0.00     0.160 HD
BRANCH   2   4
HETATM    4  C6  UNL     1      17.603  16.860  33.053  1.00  0.00     0.030 A
HETATM    5  C5  UNL     1      17.864  15.499  32.998  1.00  0.00     0.029 A
HETATM    6  C4  UNL     1      19.034  14.966  33.515  1.00  0.00     0.005 A
HETATM    7  C3  UNL     1      19.970  15.779  34.097  1.00  0.00     0.037 A
HETATM    8  C2  UNL     1      19.732  17.124  34.162  1.00  0.00     0.070 A
HETATM    9  C11 UNL     1      18.556  17.652  33.641  1.00  0.00     0.065 A
BRANCH   8  10
HETATM   10  O1  UNL     1      20.669  17.972  34.749  1.00  0.00    -0.356 OA
HETATM   11  C1  UNL     1      22.051  17.779  34.587  1.00  0.00     0.210 C
ENDBRANCH   8  10
ENDBRANCH   2   4
ENDBRANCH   1   2
BRANCH   1  12
HETATM   12  C8  UNL     1      14.677  16.186  31.241  1.00  0.00     0.240 C
HETATM   13  O2  UNL     1      15.494  15.840  30.308  1.00  0.00    -0.271 OA
HETATM   14  N2  UNL     1      13.310  16.098  30.879  1.00  0.00    -0.309 N
ATOM     15  H2  UNL     1      12.604  16.356  31.568  1.00  0.00     0.170 HD
BRANCH  14  16
HETATM   16  C9  UNL     1      12.885  15.663  29.590  1.00  0.00     0.139 A
HETATM   17  C10 UNL     1      11.928  16.048  28.680  1.00  0.00     0.157 A
HETATM   18  N3  UNL     1      12.289  15.074  27.815  1.00  0.00    -0.307 N
HETATM   19  N4  UNL     1      13.213  14.710  28.702  1.00  0.00    -0.284 N
ATOM     20  H3  UNL     1      11.988  14.759  26.892  1.00  0.00     0.186 HD
ATOM     21  H4  UNL     1      13.916  13.972  28.706  1.00  0.00     0.188 HD
ENDBRANCH  14  16
ENDBRANCH   1  12
TORSDOF 5
ENDMDL