MODEL 4
REMARK VINA RESULT: -7.128205264      2.699     10.907
REMARK  15 active torsions:
REMARK  status: ('A' for Active; 'I' for Inactive)
REMARK    1  A    between atoms: C2_2  and  N1_3
REMARK    2  A    between atoms: N1_3  and  C3_4
REMARK    3  A    between atoms: N1_3  and  C17_32
REMARK    4  A    between atoms: C3_4  and  C4_5
REMARK    5  A    between atoms: C4_5  and  C5_6
REMARK    6  A    between atoms: C5_6  and  N2_7
REMARK    7  A    between atoms: N2_7  and  C6_9
REMARK    8  A    between atoms: C9_15  and  N4_16
REMARK    9  A    between atoms: N4_16  and  C10_18
REMARK   10  A    between atoms: C10_18  and  C11_19
REMARK   11  A    between atoms: C11_19  and  C12_20
REMARK   12  A    between atoms: C12_20  and  N5_21
REMARK   13  A    between atoms: N5_21  and  C13_23
REMARK   14  A    between atoms: C13_23  and  N6_25
REMARK   15  A    between atoms: N6_25  and  C14_27
ROOT
HETATM    1  C6  UNL     1    -142.601-171.464 361.956  1.00  0.00     0.679 A
HETATM    2  N3  UNL     1    -143.068-170.211 362.018  1.00  0.00    -0.201 N
ATOM      3  H3  UNL     1    -142.495-169.474 362.427  1.00  0.00     0.183 HD
HETATM    4  C7  UNL     1    -144.310-169.917 361.535  1.00  0.00     0.129 A
HETATM    5  C8  UNL     1    -145.084-170.919 360.982  1.00  0.00     0.071 A
HETATM    6 BR1  UNL     1    -146.840-170.563 360.288  1.00  0.00    -0.046 Br
HETATM    7  C9  UNL     1    -144.613-172.215 360.913  1.00  0.00     0.135 A
HETATM    8  N7  UNL     1    -143.389-172.442 361.401  1.00  0.00    -0.176 N
ATOM      9  H7  UNL     1    -143.021-173.393 361.359  1.00  0.00     0.186 HD
ENDROOT
BRANCH   7  10
HETATM   10  N4  UNL     1    -145.355-173.131 360.391  1.00  0.00    -0.375 N
ATOM     11  H4  UNL     1    -145.199-173.405 359.422  1.00  0.00     0.161 HD
BRANCH  10  12
HETATM   12  C10 UNL     1    -146.406-173.781 361.145  1.00  0.00     0.123 C
BRANCH  12  13
HETATM   13  C11 UNL     1    -147.445-174.410 360.260  1.00  0.00     0.039 C
BRANCH  13  14
HETATM   14  C12 UNL     1    -148.800-174.459 360.934  1.00  0.00     0.123 C
BRANCH  14  15
HETATM   15  N5  UNL     1    -149.278-175.810 361.083  1.00  0.00    -0.367 N
ATOM     16  H5  UNL     1    -148.992-176.524 360.413  1.00  0.00     0.161 HD
BRANCH  15  17
HETATM   17  C13 UNL     1    -150.134-176.154 362.145  1.00  0.00     0.167 C
HETATM   18  S1  UNL     1    -150.612-174.976 363.215  1.00  0.00    -0.041 SA
BRANCH  17  19
HETATM   19  N6  UNL     1    -150.633-177.455 362.376  1.00  0.00    -0.363 N
ATOM     20  H6  UNL     1    -151.502-177.758 361.937  1.00  0.00     0.162 HD
BRANCH  19  21
HETATM   21  C14 UNL     1    -149.903-178.353 363.240  1.00  0.00     0.075 C
HETATM   22  C15 UNL     1    -149.832-179.723 362.612  1.00  0.00     0.032 C
HETATM   23  C16 UNL     1    -150.534-178.481 364.599  1.00  0.00     0.032 C
ENDBRANCH  19  21
ENDBRANCH  17  19
ENDBRANCH  15  17
ENDBRANCH  14  15
ENDBRANCH  13  14
ENDBRANCH  12  13
ENDBRANCH  10  12
ENDBRANCH   7  10
BRANCH   1  24
HETATM   24  N2  UNL     1    -141.468-171.866 362.372  1.00  0.00    -0.226 N
ATOM     25  H2  UNL     1    -141.439-172.713 362.939  1.00  0.00     0.177 HD
BRANCH  24  26
HETATM   26  C5  UNL     1    -140.236-171.206 362.094  1.00  0.00     0.140 C
BRANCH  26  27
HETATM   27  C4  UNL     1    -139.131-171.951 362.819  1.00  0.00     0.050 C
BRANCH  27  28
HETATM   28  C3  UNL     1    -138.017-171.083 363.279  1.00  0.00     0.274 C
BRANCH  28  29
HETATM   29  N1  UNL     1    -136.958-170.917 362.330  1.00  0.00     0.092 N
BRANCH  29  30
HETATM   30  C2  UNL     1    -136.988-169.598 361.710  1.00  0.00     0.268 C
HETATM   31  C1  UNL     1    -137.141-169.859 360.207  1.00  0.00     0.037 C
ENDBRANCH  29  30
BRANCH  29  32
HETATM   32  C17 UNL     1    -135.649-171.195 362.890  1.00  0.00     0.215 C
HETATM   33  C18 UNL     1    -134.897-172.252 362.152  1.00  0.00     0.042 C
HETATM   34  C19 UNL     1    -135.893-171.725 364.306  1.00  0.00     0.042 C
ENDBRANCH  29  32
ENDBRANCH  28  29
ENDBRANCH  27  28
ENDBRANCH  26  27
ENDBRANCH  24  26
ENDBRANCH   1  24
TORSDOF 15
ENDMDL