MODEL 4
REMARK VINA RESULT: -7.293685162      2.100      3.901
REMARK  14 active torsions:
REMARK  status: ('A' for Active; 'I' for Inactive)
REMARK    1  A    between atoms: C2_2  and  C3_3
REMARK    2  A    between atoms: C3_3  and  C4_4
REMARK    3  A    between atoms: C3_3  and  N1_7
REMARK    4  A    between atoms: N1_7  and  C5_8
REMARK    5  A    between atoms: N1_7  and  C10_14
REMARK    6  A    between atoms: C5_8  and  C6_9
REMARK    7  A    between atoms: C6_9  and  C7_10
REMARK    8  A    between atoms: C10_14  and  O3_15
REMARK    9  A    between atoms: C10_14  and  C11_17
REMARK   10  A    between atoms: C11_17  and  C12_18
REMARK   11  A    between atoms: C11_17  and  N3_22
REMARK   12  A    between atoms: C12_18  and  C13_19
REMARK   13  A    between atoms: C13_19  and  C14_20
REMARK       I    between atoms: N3_22  and  C15_24
REMARK       I    between atoms: C15_24  and  N5_28
REMARK   14  A    between atoms: N5_28  and  C16_30
ROOT
HETATM    1  C11 UNL     1    -142.520-171.392 359.841  1.00  0.00     0.077 C
ENDROOT
BRANCH   1   2
HETATM    2  C10 UNL     1    -143.903-171.373 359.589  1.00  0.00     0.162 C
BRANCH   2   3
HETATM    3  N1  UNL     1    -144.876-170.372 359.426  1.00  0.00    -0.345 N
BRANCH   3   4
HETATM    4  C3  UNL     1    -145.656-170.036 360.644  1.00  0.00     0.187 C
BRANCH   4   5
HETATM    5  C2  UNL     1    -147.123-169.913 360.410  1.00  0.00     0.032 C
HETATM    6  C1  UNL     1    -147.882-171.203 360.431  1.00  0.00     0.007 C
ENDBRANCH   4   5
BRANCH   4   7
HETATM    7  C4  UNL     1    -145.114-168.844 361.297  1.00  0.00     0.196 C
HETATM    8  O1  UNL     1    -145.523-167.673 361.215  1.00  0.00    -0.646 OA
HETATM    9  O2  UNL     1    -143.984-169.006 362.134  1.00  0.00    -0.646 OA
ENDBRANCH   4   7
ENDBRANCH   3   4
BRANCH   3  10
HETATM   10  C5  UNL     1    -145.163-169.677 358.232  1.00  0.00     0.130 C
BRANCH  10  11
HETATM   11  C6  UNL     1    -145.187-170.489 356.952  1.00  0.00     0.048 C
BRANCH  11  12
HETATM   12  C7  UNL     1    -144.261-169.870 355.935  1.00  0.00    -0.004 C
HETATM   13  C8  UNL     1    -143.482-170.588 355.168  1.00  0.00     0.016 C
HETATM   14  C9  UNL     1    -142.602-169.901 354.195  1.00  0.00     0.064 C
HETATM   15  N2  UNL     1    -143.446-172.003 355.230  1.00  0.00    -0.108 NA
ENDBRANCH  11  12
ENDBRANCH  10  11
ENDBRANCH   3  10
ENDBRANCH   2   3
BRANCH   2  16
HETATM   16  O3  UNL     1    -144.406-172.612 359.470  1.00  0.00    -0.345 OA
ATOM     17  H3  UNL     1    -144.047-173.086 358.729  1.00  0.00     0.219 HD
ENDBRANCH   2  16
ENDBRANCH   1   2
BRANCH   1  18
HETATM   18  C12 UNL     1    -141.423-171.789 358.970  1.00  0.00     0.063 C
BRANCH  18  19
HETATM   19  C13 UNL     1    -141.205-170.715 357.900  1.00  0.00     0.017 C
BRANCH  19  20
HETATM   20  C14 UNL     1    -140.235-171.188 356.872  1.00  0.00     0.085 C
HETATM   21 BR1  UNL     1    -139.161-169.776 356.149  1.00  0.00    -0.097 Br
ENDBRANCH  19  20
ENDBRANCH  18  19
ENDBRANCH   1  18
BRANCH   1  22
HETATM   22  N3  UNL     1    -142.130-170.865 360.993  1.00  0.00    -0.192 N
HETATM   23  C15 UNL     1    -140.933-171.100 361.646  1.00  0.00     0.672 C
HETATM   24  N4  UNL     1    -140.691-172.149 362.371  1.00  0.00    -0.235 N
HETATM   25  N5  UNL     1    -139.897-170.121 361.537  1.00  0.00    -0.222 N
ATOM     26  H42 UNL     1    -141.429-172.848 362.449  1.00  0.00     0.174 HD
ATOM     27  H41 UNL     1    -139.808-172.322 362.852  1.00  0.00     0.174 HD
ATOM     28  H5  UNL     1    -140.111-169.140 361.715  1.00  0.00     0.178 HD
ATOM     29  H3  UNL     1    -142.779-170.220 361.444  1.00  0.00     0.184 HD
BRANCH  25  30
HETATM   30  C16 UNL     1    -138.554-170.504 361.176  1.00  0.00     0.099 C
HETATM   31  C17 UNL     1    -138.207-169.774 359.890  1.00  0.00     0.026 C
HETATM   32  C18 UNL     1    -136.807-170.105 359.423  1.00  0.00     0.002 C
HETATM   33  C19 UNL     1    -135.959-170.623 360.583  1.00  0.00     0.000 C
HETATM   34  C20 UNL     1    -136.259-169.687 361.746  1.00  0.00     0.002 C
HETATM   35  C21 UNL     1    -137.619-170.108 362.296  1.00  0.00     0.026 C
ENDBRANCH  25  30
ENDBRANCH   1  22
TORSDOF 14
ENDMDL