MODEL 2
REMARK VINA RESULT: -9.170627380      2.586      7.510
REMARK  11 active torsions:
REMARK  status: ('A' for Active; 'I' for Inactive)
REMARK    1  A    between atoms: C2_2  and  C4_4
REMARK    2  A    between atoms: C4_4  and  N1_5
REMARK    3  A    between atoms: C4_4  and  C25_33
REMARK       I    between atoms: N1_5  and  C5_7
REMARK    4  A    between atoms: C5_7  and  C6_9
REMARK    5  A    between atoms: C6_9  and  C7_10
REMARK    6  A    between atoms: C6_9  and  C14_17
REMARK    7  A    between atoms: C7_10  and  C8_11
REMARK    8  A    between atoms: C14_17  and  N2_18
REMARK    9  A    between atoms: C14_17  and  C24_30
REMARK       I    between atoms: N2_18  and  C15_20
REMARK   10  A    between atoms: C15_20  and  C16_22
REMARK   11  A    between atoms: C16_22  and  C18_24
ROOT
HETATM    1  C6  UNL     1    -147.775-174.445 360.832  1.00  0.00     0.133 C
ENDROOT
BRANCH   1   2
HETATM    2  C5  UNL     1    -146.678-173.522 361.016  1.00  0.00     0.228 C
HETATM    3  N1  UNL     1    -146.596-172.230 360.426  1.00  0.00    -0.347 N
ATOM      4  H1  UNL     1    -147.354-171.933 359.812  1.00  0.00     0.163 HD
HETATM    5  O1  UNL     1    -145.697-173.861 361.762  1.00  0.00    -0.273 OA
BRANCH   3   6
HETATM    6  C4  UNL     1    -145.511-171.324 360.645  1.00  0.00     0.177 C
BRANCH   6   7
HETATM    7  C2  UNL     1    -145.969-169.926 360.366  1.00  0.00     0.009 C
HETATM    8  C1  UNL     1    -145.177-168.886 361.134  1.00  0.00     0.012 C
HETATM    9  C3  UNL     1    -147.426-169.787 360.662  1.00  0.00     0.012 C
ENDBRANCH   6   7
BRANCH   6  10
HETATM   10  C25 UNL     1    -144.390-171.698 359.709  1.00  0.00     0.254 C
HETATM   11  N4  UNL     1    -143.066-171.938 360.230  1.00  0.00    -0.060 NA
HETATM   12  O4  UNL     1    -144.527-171.820 358.484  1.00  0.00    -0.275 OA
ENDBRANCH   6  10
ENDBRANCH   3   6
ENDBRANCH   1   2
BRANCH   1  13
HETATM   13  C7  UNL     1    -148.371-174.578 359.482  1.00  0.00     0.025 C
BRANCH  13  14
HETATM   14  C8  UNL     1    -148.917-175.938 359.199  1.00  0.00    -0.013 C
HETATM   15  C9  UNL     1    -147.804-176.976 359.150  1.00  0.00     0.005 C
HETATM   16  C10 UNL     1    -148.474-178.327 359.078  1.00  0.00     0.000 C
HETATM   17  C11 UNL     1    -149.020-178.408 357.641  1.00  0.00     0.000 C
HETATM   18  C12 UNL     1    -149.973-177.305 357.350  1.00  0.00     0.000 C
HETATM   19  C13 UNL     1    -149.631-175.964 357.895  1.00  0.00     0.005 C
ENDBRANCH  13  14
ENDBRANCH   1  13
BRANCH   1  20
HETATM   20  C14 UNL     1    -148.816-174.285 361.931  1.00  0.00     0.090 C
BRANCH  20  21
HETATM   21  N2  UNL     1    -149.003-175.451 362.706  1.00  0.00    -0.325 N
HETATM   22  C15 UNL     1    -149.959-175.853 363.637  1.00  0.00     0.226 C
HETATM   23  O2  UNL     1    -150.935-175.123 363.925  1.00  0.00    -0.273 OA
ATOM     24  H2  UNL     1    -148.279-176.152 362.550  1.00  0.00     0.168 HD
BRANCH  22  25
HETATM   25  C16 UNL     1    -149.904-177.157 364.359  1.00  0.00     0.078 C
HETATM   26  C17 UNL     1    -151.110-177.198 365.326  1.00  0.00     0.020 C
BRANCH  25  27
HETATM   27  C18 UNL     1    -150.027-178.371 363.509  1.00  0.00    -0.002 C
HETATM   28  C19 UNL     1    -149.800-179.668 364.237  1.00  0.00     0.005 C
HETATM   29  C20 UNL     1    -150.096-180.835 363.325  1.00  0.00     0.000 C
HETATM   30  C21 UNL     1    -149.972-180.427 361.862  1.00  0.00     0.000 C
HETATM   31  C22 UNL     1    -150.991-179.366 361.508  1.00  0.00     0.000 C
HETATM   32  C23 UNL     1    -151.265-178.446 362.688  1.00  0.00     0.005 C
ENDBRANCH  25  27
ENDBRANCH  22  25
ENDBRANCH  20  21
BRANCH  20  33
HETATM   33  C24 UNL     1    -149.986-173.528 361.476  1.00  0.00     0.278 C
HETATM   34  N3  UNL     1    -149.933-172.070 361.514  1.00  0.00    -0.056 NA
HETATM   35  O3  UNL     1    -151.062-173.981 361.050  1.00  0.00    -0.270 OA
ENDBRANCH  20  33
ENDBRANCH   1  20
TORSDOF 11
ENDMDL