MODEL 1
REMARK VINA RESULT: -8.182937358      0.000      0.000
REMARK  13 active torsions:
REMARK  status: ('A' for Active; 'I' for Inactive)
REMARK       I    between atoms: C2_4  and  N2_5
REMARK       I    between atoms: C2_4  and  N6_31
REMARK    1  A    between atoms: C3_7  and  C4_8
REMARK    2  A    between atoms: C3_7  and  N5_22
REMARK    3  A    between atoms: C4_8  and  C5_9
REMARK    4  A    between atoms: C5_9  and  C6_10
REMARK    5  A    between atoms: C6_10  and  N3_11
REMARK       I    between atoms: N3_11  and  C7_13
REMARK    6  A    between atoms: C7_13  and  C8_15
REMARK    7  A    between atoms: N5_22  and  C13_24
REMARK    8  A    between atoms: C13_24  and  C14_25
REMARK    9  A    between atoms: C14_25  and  C15_26
REMARK   10  A    between atoms: C15_26  and  C16_27
REMARK   11  A    between atoms: C16_27  and  C17_28
REMARK   12  A    between atoms: C17_28  and  C18_29
REMARK   13  A    between atoms: N6_31  and  C19_33
ROOT
HETATM    1  C1  UNL     1    -134.145-172.005 360.866  1.00  0.00     0.165 C
HETATM    2  N1  UNL     1    -134.224-172.539 362.187  1.00  0.00    -0.231 N
ATOM      3  H1  UNL     1    -133.661-173.357 362.419  1.00  0.00     0.177 HD
HETATM    4  C2  UNL     1    -134.994-172.017 363.119  1.00  0.00     0.675 C
HETATM    5  N2  UNL     1    -135.729-170.910 362.714  1.00  0.00    -0.178 N
ATOM      6  H2  UNL     1    -135.272-170.001 362.632  1.00  0.00     0.185 HD
HETATM    7  C3  UNL     1    -137.035-171.025 362.431  1.00  0.00     0.113 C
HETATM    8  N6  UNL     1    -134.993-172.549 364.421  1.00  0.00    -0.218 N
ATOM      9  H6  UNL     1    -135.875-172.619 364.927  1.00  0.00     0.178 HD
ENDROOT
BRANCH   7  10
HETATM   10  C4  UNL     1    -137.603-172.350 362.576  1.00  0.00     0.024 C
BRANCH  10  11
HETATM   11  C5  UNL     1    -138.577-172.730 363.603  1.00  0.00     0.050 C
BRANCH  11  12
HETATM   12  C6  UNL     1    -139.843-171.903 363.675  1.00  0.00     0.127 C
BRANCH  12  13
HETATM   13  N3  UNL     1    -140.650-172.219 362.452  1.00  0.00    -0.356 N
HETATM   14  C7  UNL     1    -140.953-171.164 361.552  1.00  0.00     0.263 C
HETATM   15  O1  UNL     1    -140.500-170.018 361.927  1.00  0.00    -0.266 OA
ATOM     16  H3  UNL     1    -140.974-173.169 362.271  1.00  0.00     0.162 HD
BRANCH  14  17
HETATM   17  C8  UNL     1    -141.707-171.286 360.340  1.00  0.00     0.073 C
HETATM   18  C9  UNL     1    -141.103-171.391 359.025  1.00  0.00     0.062 C
HETATM   19  C10 UNL     1    -142.116-171.036 357.920  1.00  0.00     0.008 C
HETATM   20  C11 UNL     1    -143.469-171.605 358.156  1.00  0.00     0.020 C
HETATM   21  C12 UNL     1    -143.872-171.943 359.539  1.00  0.00     0.119 C
HETATM   22  N4  UNL     1    -142.871-172.158 360.506  1.00  0.00    -0.389 N
ATOM     23  H4  UNL     1    -142.950-172.853 361.249  1.00  0.00     0.159 HD
ENDBRANCH  14  17
ENDBRANCH  12  13
ENDBRANCH  11  12
ENDBRANCH  10  11
ENDBRANCH   7  10
BRANCH   7  24
HETATM   24  N5  UNL     1    -137.669-169.887 361.955  1.00  0.00    -0.376 N
ATOM     25  H5  UNL     1    -138.449-169.476 362.468  1.00  0.00     0.161 HD
BRANCH  24  26
HETATM   26  C13 UNL     1    -137.199-169.276 360.692  1.00  0.00     0.121 C
BRANCH  26  27
HETATM   27  C14 UNL     1    -137.838-169.988 359.511  1.00  0.00     0.020 C
BRANCH  27  28
HETATM   28  C15 UNL     1    -138.305-168.974 358.523  1.00  0.00     0.002 C
BRANCH  28  29
HETATM   29  C16 UNL     1    -137.971-169.393 357.093  1.00  0.00     0.001 C
BRANCH  29  30
HETATM   30  C17 UNL     1    -136.750-170.261 357.079  1.00  0.00     0.011 C
BRANCH  30  31
HETATM   31  C18 UNL     1    -137.000-171.501 356.220  1.00  0.00     0.085 C
HETATM   32 BR1  UNL     1    -138.846-171.890 355.949  1.00  0.00    -0.097 Br
ENDBRANCH  30  31
ENDBRANCH  29  30
ENDBRANCH  28  29
ENDBRANCH  27  28
ENDBRANCH  26  27
ENDBRANCH  24  26
ENDBRANCH   7  24
BRANCH   8  33
HETATM   33  C19 UNL     1    -133.774-172.999 365.065  1.00  0.00     0.036 C
HETATM   34  C20 UNL     1    -134.092-173.904 366.255  1.00  0.00     0.038 C
HETATM   35  C21 UNL     1    -133.009-171.803 365.564  1.00  0.00     0.038 C
HETATM   36  C22 UNL     1    -132.949-173.791 364.092  1.00  0.00     0.038 C
ENDBRANCH   8  33
TORSDOF 13
ENDMDL