MODEL 3
REMARK VINA RESULT: -9.376484845      2.224      3.833
REMARK  11 active torsions:
REMARK  status: ('A' for Active; 'I' for Inactive)
REMARK       I    between atoms: C2_4  and  N2_5
REMARK       I    between atoms: C2_4  and  N3_15
REMARK    1  A    between atoms: N2_5  and  C3_7
REMARK    2  A    between atoms: C3_7  and  C4_8
REMARK    3  A    between atoms: C4_8  and  C5_9
REMARK    4  A    between atoms: C5_9  and  C6_10
REMARK    5  A    between atoms: N3_15  and  C11_17
REMARK    6  A    between atoms: C17_23  and  N4_24
REMARK       I    between atoms: N4_24  and  C18_26
REMARK    7  A    between atoms: C18_26  and  C19_28
REMARK    8  A    between atoms: C19_28  and  C20_29
REMARK    9  A    between atoms: C20_29  and  C21_30
REMARK   10  A    between atoms: C21_30  and  C22_31
REMARK   11  A    between atoms: C22_31  and  N5_32
ROOT
HETATM    1  C11 UNL     1    -147.174-172.215 360.612  1.00  0.00     0.105 C
HETATM    2  C12 UNL     1    -148.202-171.205 360.218  1.00  0.00     0.026 C
HETATM    3  C13 UNL     1    -147.796-170.746 358.837  1.00  0.00     0.007 C
HETATM    4  C14 UNL     1    -146.294-170.871 358.804  1.00  0.00    -0.006 C
HETATM    5  C15 UNL     1    -145.715-169.509 359.062  1.00  0.00     0.007 C
HETATM    6  C16 UNL     1    -145.302-169.503 360.511  1.00  0.00     0.026 C
HETATM    7  C17 UNL     1    -145.025-170.946 360.860  1.00  0.00     0.090 C
HETATM    8  C26 UNL     1    -145.902-171.766 359.936  1.00  0.00     0.036 C
ENDROOT
BRANCH   1   9
HETATM    9  N3  UNL     1    -147.541-173.530 360.135  1.00  0.00    -0.222 N
HETATM   10  C2  UNL     1    -148.691-174.212 360.614  1.00  0.00     0.669 C
HETATM   11  N1  UNL     1    -149.577-174.566 359.775  1.00  0.00    -0.231 N
HETATM   12  N2  UNL     1    -148.810-174.467 361.996  1.00  0.00    -0.227 N
HETATM   13  C1  UNL     1    -149.526-174.344 358.362  1.00  0.00     0.165 C
ATOM     14  H1  UNL     1    -150.397-175.051 360.140  1.00  0.00     0.177 HD
ATOM     15  H2  UNL     1    -148.011-174.257 362.594  1.00  0.00     0.177 HD
ATOM     16  H3  UNL     1    -146.955-173.983 359.433  1.00  0.00     0.178 HD
BRANCH  12  17
HETATM   17  C3  UNL     1    -149.996-175.008 362.610  1.00  0.00     0.138 C
BRANCH  17  18
HETATM   18  C4  UNL     1    -149.916-176.513 362.544  1.00  0.00     0.020 C
BRANCH  18  19
HETATM   19  C5  UNL     1    -149.905-177.155 363.893  1.00  0.00     0.006 C
BRANCH  19  20
HETATM   20  C6  UNL     1    -150.898-178.291 364.010  1.00  0.00    -0.014 C
HETATM   21  C7  UNL     1    -150.281-179.534 364.581  1.00  0.00     0.004 C
HETATM   22  C8  UNL     1    -149.794-180.326 363.384  1.00  0.00     0.000 C
HETATM   23  C9  UNL     1    -150.780-179.998 362.278  1.00  0.00     0.000 C
HETATM   24  C10 UNL     1    -151.423-178.699 362.665  1.00  0.00     0.004 C
ENDBRANCH  19  20
ENDBRANCH  18  19
ENDBRANCH  17  18
ENDBRANCH  12  17
ENDBRANCH   1   9
BRANCH   7  25
HETATM   25  N4  UNL     1    -143.618-171.199 360.643  1.00  0.00    -0.356 N
HETATM   26  C18 UNL     1    -142.658-170.995 361.685  1.00  0.00     0.217 C
HETATM   27  O1  UNL     1    -143.073-170.588 362.799  1.00  0.00    -0.274 OA
ATOM     28  H4  UNL     1    -143.304-171.529 359.730  1.00  0.00     0.162 HD
BRANCH  26  29
HETATM   29  C19 UNL     1    -141.210-171.253 361.473  1.00  0.00     0.103 C
BRANCH  29  30
HETATM   30  C20 UNL     1    -140.557-171.418 362.802  1.00  0.00     0.011 C
BRANCH  30  31
HETATM   31  C21 UNL     1    -139.198-172.078 362.757  1.00  0.00     0.020 C
BRANCH  31  32
HETATM   32  C22 UNL     1    -138.191-171.245 363.479  1.00  0.00     0.127 C
BRANCH  32  33
HETATM   33  N5  UNL     1    -136.968-171.059 362.739  1.00  0.00    -0.333 N
HETATM   34  C23 UNL     1    -135.693-171.705 362.778  1.00  0.00     0.147 C
HETATM   35  C24 UNL     1    -135.265-171.650 361.315  1.00  0.00     0.144 C
HETATM   36  N6  UNL     1    -135.682-170.309 360.951  1.00  0.00    -0.341 N
HETATM   37  C25 UNL     1    -136.855-170.052 361.712  1.00  0.00     0.318 C
ATOM     38  H6  UNL     1    -135.228-169.681 360.287  1.00  0.00     0.164 HD
HETATM   39  O2  UNL     1    -137.644-169.087 361.493  1.00  0.00    -0.247 OA
ENDBRANCH  32  33
ENDBRANCH  31  32
ENDBRANCH  30  31
ENDBRANCH  29  30
ENDBRANCH  26  29
ENDBRANCH   7  25
TORSDOF 11
ENDMDL