MODEL 1
REMARK VINA RESULT: -8.205442098      0.000      0.000
REMARK  13 active torsions:
REMARK  status: ('A' for Active; 'I' for Inactive)
REMARK    1  A    between atoms: C2_2  and  C3_3
REMARK    2  A    between atoms: C3_3  and  N1_4
REMARK    3  A    between atoms: N1_4  and  C4_5
REMARK       I    between atoms: N1_4  and  C13_18
REMARK    4  A    between atoms: C4_5  and  C5_6
REMARK    5  A    between atoms: C5_6  and  C6_7
REMARK    6  A    between atoms: C6_7  and  C9_10
REMARK    7  A    between atoms: C9_10  and  N2_11
REMARK       I    between atoms: N2_11  and  C10_12
REMARK    8  A    between atoms: C10_12  and  C11_14
REMARK    9  A    between atoms: C11_14  and  C12_15
REMARK       I    between atoms: C13_18  and  N3_20
REMARK   10  A    between atoms: N3_20  and  C14_22
REMARK   11  A    between atoms: C14_22  and  C15_23
REMARK   12  A    between atoms: C14_22  and  C20_31
REMARK       I    between atoms: C15_23  and  N4_25
REMARK   13  A    between atoms: N4_25  and  C16_27
ROOT
HETATM    1  N1  UNL     1    -139.617-170.340 360.379  1.00  0.00    -0.331 N
HETATM    2  C13 UNL     1    -139.661-170.181 358.938  1.00  0.00     0.319 C
HETATM    3  O4  UNL     1    -140.623-170.724 358.295  1.00  0.00    -0.247 OA
HETATM    4  N3  UNL     1    -138.700-169.479 358.232  1.00  0.00    -0.329 N
ATOM      5  H3  UNL     1    -137.954-169.052 358.780  1.00  0.00     0.165 HD
ENDROOT
BRANCH   1   6
HETATM    6  C3  UNL     1    -140.568-171.218 360.970  1.00  0.00     0.154 C
BRANCH   6   7
HETATM    7  C2  UNL     1    -141.375-170.701 362.070  1.00  0.00    -0.017 C
HETATM    8  C1  UNL     1    -142.641-170.380 362.095  1.00  0.00     0.008 C
ENDBRANCH   6   7
ENDBRANCH   1   6
BRANCH   1   9
HETATM    9  C4  UNL     1    -138.656-169.635 361.194  1.00  0.00     0.129 C
BRANCH   9  10
HETATM   10  C5  UNL     1    -137.257-170.096 361.072  1.00  0.00     0.031 C
BRANCH  10  11
HETATM   11  C6  UNL     1    -136.679-170.803 362.275  1.00  0.00    -0.019 C
HETATM   12  C7  UNL     1    -136.102-169.777 363.225  1.00  0.00     0.018 C
HETATM   13  C8  UNL     1    -137.524-171.769 362.965  1.00  0.00     0.018 C
BRANCH  11  14
HETATM   14  C9  UNL     1    -135.427-171.572 361.678  1.00  0.00     0.230 C
BRANCH  14  15
HETATM   15  N2  UNL     1    -134.670-172.078 362.711  1.00  0.00    -0.414 NA
HETATM   16  C10 UNL     1    -133.915-172.584 363.736  1.00  0.00     0.296 C
HETATM   17  O1  UNL     1    -132.969-173.406 363.620  1.00  0.00    -0.257 OA
BRANCH  16  18
HETATM   18  C11 UNL     1    -134.166-172.179 365.183  1.00  0.00     0.231 C
BRANCH  18  19
HETATM   19  C12 UNL     1    -134.758-173.355 365.849  1.00  0.00     0.182 C
HETATM   20  O2  UNL     1    -135.964-173.672 365.688  1.00  0.00    -0.648 OA
HETATM   21  O3  UNL     1    -133.966-174.128 366.669  1.00  0.00    -0.648 OA
ENDBRANCH  18  19
ENDBRANCH  16  18
ENDBRANCH  14  15
ENDBRANCH  11  14
ENDBRANCH  10  11
ENDBRANCH   9  10
ENDBRANCH   1   9
BRANCH   4  22
HETATM   22  C14 UNL     1    -138.641-169.280 356.757  1.00  0.00     0.182 C
BRANCH  22  23
HETATM   23  C15 UNL     1    -138.224-170.550 356.183  1.00  0.00     0.241 C
HETATM   24  O5  UNL     1    -136.943-170.641 356.017  1.00  0.00    -0.271 OA
HETATM   25  N4  UNL     1    -138.933-171.661 355.783  1.00  0.00    -0.351 N
ATOM     26  H4  UNL     1    -139.951-171.654 355.865  1.00  0.00     0.163 HD
BRANCH  25  27
HETATM   27  C16 UNL     1    -138.267-172.860 355.241  1.00  0.00     0.022 C
HETATM   28  C17 UNL     1    -136.822-172.936 355.658  1.00  0.00     0.037 C
HETATM   29  C18 UNL     1    -138.269-172.806 353.730  1.00  0.00     0.037 C
HETATM   30  C19 UNL     1    -138.994-174.097 355.664  1.00  0.00     0.037 C
ENDBRANCH  25  27
ENDBRANCH  22  23
BRANCH  22  31
HETATM   31  C20 UNL     1    -137.886-168.053 356.521  1.00  0.00     0.018 C
HETATM   32  C21 UNL     1    -137.990-166.923 357.480  1.00  0.00     0.007 C
HETATM   33  C22 UNL     1    -137.595-165.708 356.643  1.00  0.00     0.000 C
HETATM   34  C23 UNL     1    -138.356-165.960 355.361  1.00  0.00     0.000 C
HETATM   35  C24 UNL     1    -138.189-167.445 355.154  1.00  0.00     0.007 C
ENDBRANCH  22  31
ENDBRANCH   4  22
TORSDOF 13
ENDMDL