MODEL 2
REMARK VINA RESULT: -8.004284447      1.389      1.782
REMARK  12 active torsions:
REMARK  status: ('A' for Active; 'I' for Inactive)
REMARK    1  A    between atoms: C3_3  and  C4_4
REMARK    2  A    between atoms: C9_9  and  C10_10
REMARK       I    between atoms: C10_10  and  N1_12
REMARK    3  A    between atoms: N1_12  and  C11_14
REMARK    4  A    between atoms: C11_14  and  C12_15
REMARK    5  A    between atoms: C12_15  and  C13_16
REMARK    6  A    between atoms: C13_16  and  N2_17
REMARK       I    between atoms: N2_17  and  C14_19
REMARK       I    between atoms: C14_19  and  N3_21
REMARK    7  A    between atoms: N3_21  and  C15_23
REMARK    8  A    between atoms: C15_23  and  C16_24
REMARK    9  A    between atoms: C15_23  and  C20_28
REMARK   10  A    between atoms: C16_24  and  C17_25
REMARK   11  A    between atoms: C17_25  and  C18_26
REMARK   12  A    between atoms: C21_31  and  C22_33
ROOT
HETATM    1  C10 UNL     1    -148.155-173.063 360.812  1.00  0.00     0.223 C
HETATM    2  O1  UNL     1    -148.948-172.205 361.246  1.00  0.00    -0.273 OA
HETATM    3  N1  UNL     1    -147.266-172.650 359.789  1.00  0.00    -0.361 N
ATOM      4  H1  UNL     1    -146.611-173.342 359.423  1.00  0.00     0.162 HD
ENDROOT
BRANCH   3   5
HETATM    5  C11 UNL     1    -147.222-171.337 359.234  1.00  0.00     0.124 C
BRANCH   5   6
HETATM    6  C12 UNL     1    -145.974-170.547 359.579  1.00  0.00     0.039 C
BRANCH   6   7
HETATM    7  C13 UNL     1    -145.452-170.960 360.935  1.00  0.00     0.126 C
BRANCH   7   8
HETATM    8  N2  UNL     1    -144.128-171.515 360.786  1.00  0.00    -0.343 N
HETATM    9  C14 UNL     1    -142.981-170.973 361.414  1.00  0.00     0.316 C
HETATM   10  O2  UNL     1    -143.009-169.968 362.157  1.00  0.00    -0.247 OA
HETATM   11  N3  UNL     1    -141.710-171.578 361.214  1.00  0.00    -0.330 N
ATOM     12  H3  UNL     1    -141.643-172.397 360.608  1.00  0.00     0.165 HD
ATOM     13  H2  UNL     1    -144.013-172.340 360.199  1.00  0.00     0.164 HD
BRANCH  11  14
HETATM   14  C15 UNL     1    -140.506-171.069 361.844  1.00  0.00     0.175 C
BRANCH  14  15
HETATM   15  C16 UNL     1    -139.688-172.162 362.472  1.00  0.00     0.034 C
BRANCH  15  16
HETATM   16  C17 UNL     1    -139.226-171.803 363.863  1.00  0.00     0.002 C
BRANCH  16  17
HETATM   17  C18 UNL     1    -137.701-171.923 363.856  1.00  0.00    -0.004 C
HETATM   18  C19 UNL     1    -137.093-170.550 364.105  1.00  0.00     0.005 C
ENDBRANCH  16  17
ENDBRANCH  15  16
ENDBRANCH  14  15
BRANCH  14  19
HETATM   19  C20 UNL     1    -139.711-170.344 360.830  1.00  0.00     0.254 C
HETATM   20  N4  UNL     1    -138.781-169.381 361.278  1.00  0.00    -0.060 NA
HETATM   21  O3  UNL     1    -139.844-170.562 359.615  1.00  0.00    -0.275 OA
ENDBRANCH  14  19
ENDBRANCH  11  14
ENDBRANCH   7   8
ENDBRANCH   6   7
ENDBRANCH   5   6
ENDBRANCH   3   5
BRANCH   1  22
HETATM   22  C9  UNL     1    -148.133-174.440 361.330  1.00  0.00     0.103 C
HETATM   23  C8  UNL     1    -148.175-174.453 362.841  1.00  0.00     0.025 C
HETATM   24  C5  UNL     1    -149.409-175.207 363.224  1.00  0.00    -0.038 C
HETATM   25  C4  UNL     1    -149.557-176.158 362.055  1.00  0.00     0.041 C
HETATM   26  C6  UNL     1    -149.161-176.065 364.470  1.00  0.00     0.015 C
HETATM   27  C7  UNL     1    -150.606-174.362 363.491  1.00  0.00     0.015 C
HETATM   28  C21 UNL     1    -149.270-175.316 360.872  1.00  0.00     0.063 C
HETATM   29 CL1  UNL     1    -150.666-174.307 360.404  1.00  0.00    -0.117 Cl
BRANCH  25  30
HETATM   30  C3  UNL     1    -150.797-176.914 362.086  1.00  0.00    -0.024 C
HETATM   31  C2  UNL     1    -150.849-178.144 362.586  1.00  0.00    -0.034 C
HETATM   32  C1  UNL     1    -152.098-178.955 362.638  1.00  0.00     0.036 C
ENDBRANCH  25  30
BRANCH  28  33
HETATM   33  C22 UNL     1    -148.893-176.098 359.627  1.00  0.00    -0.029 C
HETATM   34  C23 UNL     1    -149.255-177.546 359.683  1.00  0.00     0.016 C
HETATM   35  C24 UNL     1    -149.458-175.432 358.418  1.00  0.00     0.016 C
HETATM   36  C25 UNL     1    -147.371-176.047 359.479  1.00  0.00     0.016 C
ENDBRANCH  28  33
ENDBRANCH   1  22
TORSDOF 12
ENDMDL