MODEL 3
REMARK VINA RESULT: -8.030846320      1.171      1.744
REMARK  14 active torsions:
REMARK  status: ('A' for Active; 'I' for Inactive)
REMARK    1  A    between atoms: C5_7  and  C6_8
REMARK    2  A    between atoms: C6_8  and  N2_9
REMARK    3  A    between atoms: C6_8  and  N3_13
REMARK    4  A    between atoms: N3_13  and  C7_15
REMARK    5  A    between atoms: C7_15  and  C8_16
REMARK    6  A    between atoms: C8_16  and  C9_17
REMARK    7  A    between atoms: C9_17  and  C10_18
REMARK    8  A    between atoms: C10_18  and  N4_19
REMARK       I    between atoms: C11_21  and  N6_23
REMARK    9  A    between atoms: N6_23  and  C12_25
REMARK   10  A    between atoms: C12_25  and  C13_26
REMARK   11  A    between atoms: C13_26  and  C14_27
REMARK   12  A    between atoms: C14_27  and  C15_28
REMARK   13  A    between atoms: C17_31  and  C18_32
REMARK   14  A    between atoms: C19_33  and  C20_34
ROOT
HETATM    1  C6  UNL     1    -143.747-172.030 360.660  1.00  0.00     0.313 C
ENDROOT
BRANCH   1   2
HETATM    2  C5  UNL     1    -142.364-171.433 360.520  1.00  0.00    -0.007 C
HETATM    3  C3  UNL     1    -141.936-171.339 359.283  1.00  0.00     0.011 C
HETATM    4  N1  UNL     1    -140.673-170.802 358.985  1.00  0.00    -0.366 N
HETATM    5  C4  UNL     1    -142.829-171.795 358.137  1.00  0.00     0.068 C
HETATM    6  C2  UNL     1    -139.907-170.382 359.908  1.00  0.00    -0.001 C
ATOM      7  H1  UNL     1    -140.366-170.749 358.014  1.00  0.00     0.165 HD
HETATM    8  C1  UNL     1    -138.543-169.808 359.616  1.00  0.00     0.064 C
HETATM    9  C17 UNL     1    -140.295-170.354 361.336  1.00  0.00     0.114 C
HETATM   10  C16 UNL     1    -141.582-171.016 361.671  1.00  0.00     0.063 C
BRANCH   9  11
HETATM   11  C18 UNL     1    -139.146-170.897 362.107  1.00  0.00    -0.095 C
HETATM   12  C19 UNL     1    -138.194-171.315 362.713  1.00  0.00    -0.097 C
BRANCH  12  13
HETATM   13  C20 UNL     1    -137.016-171.803 363.429  1.00  0.00     0.013 C
HETATM   14  C21 UNL     1    -136.432-170.721 364.328  1.00  0.00     0.028 C
HETATM   15  C22 UNL     1    -135.888-172.168 362.456  1.00  0.00     0.028 C
HETATM   16  C23 UNL     1    -137.354-173.002 364.256  1.00  0.00     0.028 C
ENDBRANCH  12  13
ENDBRANCH   9  11
ENDBRANCH   1   2
BRANCH   1  17
HETATM   17  N2  UNL     1    -143.536-173.334 361.352  1.00  0.00    -0.054 N
ATOM     18  H23 UNL     1    -142.850-173.936 360.897  1.00  0.00     0.277 HD
ATOM     19  H22 UNL     1    -143.048-173.254 362.244  1.00  0.00     0.277 HD
ATOM     20  H21 UNL     1    -144.465-173.747 361.425  1.00  0.00     0.277 HD
ENDBRANCH   1  17
BRANCH   1  21
HETATM   21  N3  UNL     1    -144.604-171.270 361.439  1.00  0.00    -0.372 N
ATOM     22  H3  UNL     1    -144.905-171.653 362.335  1.00  0.00     0.161 HD
BRANCH  21  23
HETATM   23  C7  UNL     1    -145.082-170.005 361.066  1.00  0.00     0.058 C
BRANCH  23  24
HETATM   24  C8  UNL     1    -146.065-170.021 359.931  1.00  0.00     0.046 C
BRANCH  24  25
HETATM   25  C9  UNL     1    -147.270-170.850 360.304  1.00  0.00     0.025 C
BRANCH  25  26
HETATM   26  C10 UNL     1    -147.305-172.118 359.427  1.00  0.00     0.122 C
BRANCH  26  27
HETATM   27  N4  UNL     1    -148.259-173.042 359.975  1.00  0.00    -0.365 N
HETATM   28  C11 UNL     1    -147.935-173.864 360.888  1.00  0.00     0.183 C
HETATM   29  N5  UNL     1    -146.614-173.908 361.413  1.00  0.00    -0.064 NA
HETATM   30  N6  UNL     1    -148.957-174.763 361.367  1.00  0.00    -0.365 N
ATOM     31  H6  UNL     1    -149.217-175.584 360.821  1.00  0.00     0.162 HD
ATOM     32  H4  UNL     1    -149.216-173.038 359.624  1.00  0.00     0.162 HD
BRANCH  30  33
HETATM   33  C12 UNL     1    -149.606-174.490 362.625  1.00  0.00     0.122 C
BRANCH  33  34
HETATM   34  C13 UNL     1    -150.375-175.694 363.112  1.00  0.00     0.020 C
BRANCH  34  35
HETATM   35  C14 UNL     1    -150.191-176.898 362.238  1.00  0.00     0.012 C
BRANCH  35  36
HETATM   36  C15 UNL     1    -150.980-178.049 362.848  1.00  0.00     0.085 C
HETATM   37 BR1  UNL     1    -150.581-178.253 364.735  1.00  0.00    -0.097 Br
ENDBRANCH  35  36
ENDBRANCH  34  35
ENDBRANCH  33  34
ENDBRANCH  30  33
ENDBRANCH  26  27
ENDBRANCH  25  26
ENDBRANCH  24  25
ENDBRANCH  23  24
ENDBRANCH  21  23
ENDBRANCH   1  21
TORSDOF 14
ENDMDL