MODEL 2
REMARK VINA RESULT: -8.348675073      8.084     12.341
REMARK  5 active torsions:
REMARK  status: ('A' for Active; 'I' for Inactive)
REMARK    1  A    between atoms: C7_7  and  O1_9
REMARK    2  A    between atoms: C17_19  and  O2_20
REMARK    3  A    between atoms: C18_22  and  C19_23
REMARK    4  A    between atoms: N1_24  and  O3_26
REMARK    5  A    between atoms: C20_28  and  O4_29
ROOT
HETATM    1  C1  UNL     1      -3.283  -6.884  12.041  1.00  0.00     0.011 C
HETATM    2  C2  UNL     1      -2.812  -7.893  13.051  1.00  0.00    -0.009 C
HETATM    3  C3  UNL     1      -3.682  -9.141  13.006  1.00  0.00     0.014 C
HETATM    4  C4  UNL     1      -2.909 -10.354  13.480  1.00  0.00    -0.037 C
HETATM    5  C5  UNL     1      -2.508 -10.139  14.901  1.00  0.00     0.015 C
HETATM    6  C6  UNL     1      -3.888 -11.511  13.468  1.00  0.00     0.046 C
HETATM    7  C7  UNL     1      -3.208 -12.843  13.618  1.00  0.00     0.055 C
HETATM    8  C8  UNL     1      -4.249 -13.888  13.185  1.00  0.00     0.045 C
HETATM    9  C9  UNL     1      -2.048 -12.993  12.674  1.00  0.00     0.038 C
HETATM   10  C10 UNL     1      -1.079 -11.841  12.980  1.00  0.00     0.009 C
HETATM   11  C11 UNL     1      -1.770 -10.601  12.521  1.00  0.00    -0.001 C
HETATM   12  C12 UNL     1      -0.928  -9.410  12.312  1.00  0.00    -0.000 C
HETATM   13  C13 UNL     1      -0.841  -9.149  10.810  1.00  0.00     0.010 C
HETATM   14  C14 UNL     1       0.295  -8.228  10.505  1.00  0.00     0.040 C
HETATM   15  C15 UNL     1       0.088  -6.968  11.311  1.00  0.00    -0.046 A
HETATM   16  C16 UNL     1       0.681  -5.802  10.871  1.00  0.00     0.045 A
HETATM   17  C17 UNL     1       0.547  -4.645  11.569  1.00  0.00     0.080 A
HETATM   18  C18 UNL     1      -0.203  -4.638  12.752  1.00  0.00     0.048 A
HETATM   19  C20 UNL     1      -0.801  -5.796  13.204  1.00  0.00     0.087 A
HETATM   20  C21 UNL     1      -0.641  -6.956  12.460  1.00  0.00    -0.013 A
HETATM   21  C22 UNL     1      -1.345  -8.161  13.041  1.00  0.00     0.030 C
ENDROOT
BRANCH  18  22
HETATM   22  C19 UNL     1      -0.309  -3.380  13.449  1.00  0.00     0.130 C
HETATM   23  N1  UNL     1       0.739  -2.759  13.845  1.00  0.00    -0.280 N
ATOM     24  H1  UNL     1       1.644  -3.187  13.647  1.00  0.00     0.193 HD
BRANCH  23  25
HETATM   25  O3  UNL     1       0.738  -1.576  14.505  1.00  0.00    -0.290 OA
ATOM     26  H3  UNL     1       1.511  -1.139  14.841  1.00  0.00     0.244 HD
ENDBRANCH  23  25
ENDBRANCH  18  22
BRANCH  17  27
HETATM   27  O2  UNL     1       1.146  -3.453  11.130  1.00  0.00    -0.360 OA
ATOM     28  H2  UNL     1       1.906  -3.090  11.570  1.00  0.00     0.217 HD
ENDBRANCH  17  27
BRANCH  19  29
HETATM   29  O4  UNL     1      -1.518  -5.733  14.362  1.00  0.00    -0.359 OA
ATOM     30  H4  UNL     1      -2.111  -6.449  14.557  1.00  0.00     0.217 HD
ENDBRANCH  19  29
BRANCH   7  31
HETATM   31  O1  UNL     1      -2.775 -13.133  14.889  1.00  0.00    -0.390 OA
ATOM     32  H1  UNL     1      -2.047 -12.606  15.195  1.00  0.00     0.210 HD
ENDBRANCH   7  31
TORSDOF 5
ENDMDL