MODEL 4
REMARK VINA RESULT: -7.364889023      2.500      7.178
REMARK  5 active torsions:
REMARK  status: ('A' for Active; 'I' for Inactive)
REMARK    1  A    between atoms: C5_5  and  C6_6
REMARK    2  A    between atoms: C9_9  and  O1_10
REMARK    3  A    between atoms: C10_12  and  C11_13
REMARK    4  A    between atoms: C18_24  and  O3_25
REMARK    5  A    between atoms: C19_27  and  O4_28
ROOT
HETATM    1  C1  UNL     1       2.155  -8.122   7.983  1.00  0.00     0.050 C
HETATM    2  C2  UNL     1       2.348  -6.810   7.323  1.00  0.00    -0.037 A
HETATM    3  C3  UNL     1       2.996  -6.731   6.103  1.00  0.00    -0.018 A
HETATM    4  C4  UNL     1       3.328  -5.499   5.498  1.00  0.00    -0.003 A
HETATM    5  C5  UNL     1       2.972  -4.298   6.135  1.00  0.00     0.009 A
HETATM    6  C9  UNL     1       2.316  -4.384   7.364  1.00  0.00     0.087 A
HETATM    7  C10 UNL     1       2.014  -5.636   7.945  1.00  0.00     0.038 A
HETATM    8  C18 UNL     1       4.191  -5.380   4.301  1.00  0.00     0.182 C
HETATM    9  C19 UNL     1       4.384  -6.672   3.535  1.00  0.00     0.155 C
HETATM   10  C20 UNL     1       4.513  -7.822   4.576  1.00  0.00     0.069 C
HETATM   11  C21 UNL     1       3.175  -7.886   5.219  1.00  0.00    -0.070 C
HETATM   12  C22 UNL     1       2.587  -9.203   5.428  1.00  0.00     0.044 C
ENDROOT
BRANCH   7  13
HETATM   13  C11 UNL     1       1.311  -5.606   9.232  1.00  0.00     0.360 C
HETATM   14  N1  UNL     1       2.033  -4.879  10.254  1.00  0.00    -0.037 N
HETATM   15  C12 UNL     1       1.041  -4.084  10.880  1.00  0.00     0.223 C
ATOM     16  H12 UNL     1       2.560  -5.471  10.895  1.00  0.00     0.281 HD
ATOM     17  H11 UNL     1       2.834  -4.352   9.906  1.00  0.00     0.281 HD
HETATM   18  C13 UNL     1       0.851  -4.149  12.348  1.00  0.00     0.036 C
HETATM   19  C16 UNL     1      -0.211  -4.847  10.471  1.00  0.00     0.088 C
HETATM   20  C14 UNL     1      -0.631  -3.732  12.435  1.00  0.00     0.005 C
HETATM   21  C15 UNL     1      -1.192  -3.878  11.008  1.00  0.00     0.040 C
HETATM   22  C17 UNL     1      -0.363  -6.171  11.124  1.00  0.00     0.048 C
HETATM   23  O2  UNL     1       0.075  -4.872   9.134  1.00  0.00    -0.342 OA
ENDBRANCH   7  13
BRANCH   6  24
HETATM   24  O1  UNL     1       1.944  -3.263   8.040  1.00  0.00    -0.359 OA
ATOM     25  H1  UNL     1       2.491  -2.903   8.729  1.00  0.00     0.217 HD
ENDBRANCH   6  24
BRANCH   5  26
HETATM   26  C6  UNL     1       3.288  -3.033   5.489  1.00  0.00    -0.074 C
HETATM   27  C7  UNL     1       4.519  -2.357   6.127  1.00  0.00     0.044 C
HETATM   28  C8  UNL     1       2.360  -2.149   4.802  1.00  0.00     0.044 C
ENDBRANCH   5  26
BRANCH   8  29
HETATM   29  O3  UNL     1       5.561  -5.213   4.791  1.00  0.00    -0.388 OA
ATOM     30  H3  UNL     1       5.810  -6.042   5.182  1.00  0.00     0.210 HD
ENDBRANCH   8  29
BRANCH   9  31
HETATM   31  O4  UNL     1       3.364  -6.974   2.686  1.00  0.00    -0.392 OA
ATOM     32  H4  UNL     1       2.861  -6.222   2.398  1.00  0.00     0.210 HD
ENDBRANCH   9  31
TORSDOF 5
ENDMDL