MODEL 1
REMARK VINA RESULT: -8.267996620      0.000      0.000
REMARK  6 active torsions:
REMARK  status: ('A' for Active; 'I' for Inactive)
REMARK    1  A    between atoms: C5_5  and  O1_6
REMARK    2  A    between atoms: C6_8  and  O2_9
REMARK    3  A    between atoms: C7_11  and  C9_13
REMARK    4  A    between atoms: C9_13  and  C10_14
REMARK    5  A    between atoms: C10_14  and  O3_15
REMARK    6  A    between atoms: N1_17  and  O4_19
ROOT
HETATM    1  C1  UNL     1       7.419  -2.488   1.839  1.00  0.00     0.043 C
HETATM    2  C2  UNL     1       7.317  -2.899   3.288  1.00  0.00    -0.087 C
HETATM    3  C3  UNL     1       6.521  -2.258   4.127  1.00  0.00    -0.022 C
HETATM    4  C4  UNL     1       6.356  -2.590   5.559  1.00  0.00     0.061 C
HETATM    5  C5  UNL     1       4.903  -2.556   6.016  1.00  0.00     0.151 C
HETATM    6  C6  UNL     1       4.012  -3.443   5.234  1.00  0.00     0.155 C
HETATM    7  C7  UNL     1       3.571  -4.720   5.847  1.00  0.00    -0.006 C
HETATM    8  C8  UNL     1       4.454  -5.172   6.994  1.00  0.00     0.018 C
HETATM    9  C11 UNL     1       3.518  -5.804   4.761  1.00  0.00     0.044 C
HETATM   10  C12 UNL     1       4.457  -6.938   4.966  1.00  0.00     0.118 C
HETATM   11  C13 UNL     1       3.628  -8.179   5.337  1.00  0.00     0.039 C
HETATM   12  O5  UNL     1       5.060  -7.298   3.734  1.00  0.00    -0.385 OA
HETATM   13  C14 UNL     1       6.296  -7.853   4.038  1.00  0.00     0.176 C
HETATM   14  C15 UNL     1       7.307  -7.687   2.929  1.00  0.00    -0.026 C
HETATM   15  C16 UNL     1       8.370  -8.763   3.157  1.00  0.00     0.017 C
HETATM   16  C17 UNL     1       6.617  -8.034   1.627  1.00  0.00     0.017 C
HETATM   17  C18 UNL     1       7.996  -6.373   2.890  1.00  0.00     0.011 C
HETATM   18  C19 UNL     1       7.350  -5.321   3.757  1.00  0.00     0.005 C
HETATM   19  C20 UNL     1       8.144  -4.054   3.726  1.00  0.00     0.033 C
ENDROOT
BRANCH   7  20
HETATM   20  C9  UNL     1       2.169  -4.720   6.417  1.00  0.00     0.097 C
BRANCH  20  21
HETATM   21  C10 UNL     1       1.926  -3.973   7.624  1.00  0.00     0.136 C
HETATM   22  N1  UNL     1       1.417  -4.563   8.649  1.00  0.00    -0.251 N
ATOM     23  H1  UNL     1       1.186  -5.556   8.604  1.00  0.00     0.196 HD
BRANCH  21  24
HETATM   24  O3  UNL     1       2.220  -2.638   7.733  1.00  0.00    -0.348 OA
ATOM     25  H3  UNL     1       2.509  -2.245   8.548  1.00  0.00     0.219 HD
ENDBRANCH  21  24
BRANCH  22  26
HETATM   26  O4  UNL     1       1.185  -3.857   9.797  1.00  0.00    -0.288 OA
ATOM     27  H4  UNL     1       1.822  -3.876  10.502  1.00  0.00     0.244 HD
ENDBRANCH  22  26
ENDBRANCH  20  21
ENDBRANCH   7  20
BRANCH   6  28
HETATM   28  O2  UNL     1       2.897  -2.790   4.690  1.00  0.00    -0.392 OA
ATOM     29  H2  UNL     1       2.749  -2.982   3.772  1.00  0.00     0.210 HD
ENDBRANCH   6  28
BRANCH   5  30
HETATM   30  O1  UNL     1       4.553  -1.184   5.868  1.00  0.00    -0.393 OA
ATOM     31  H1  UNL     1       3.604  -1.207   5.836  1.00  0.00     0.210 HD
ENDBRANCH   5  30
TORSDOF 6
ENDMDL