MODEL 2
REMARK VINA RESULT: -6.883633949      1.359      1.736
REMARK  6 active torsions:
REMARK  status: ('A' for Active; 'I' for Inactive)
REMARK    1  A    between atoms: C2_2  and  O1_6
REMARK    2  A    between atoms: O1_6  and  C3_7
REMARK    3  A    between atoms: C6_10  and  C7_11
REMARK    4  A    between atoms: C15_20  and  O2_22
REMARK    5  A    between atoms: O2_22  and  O3_23
REMARK    6  A    between atoms: C17_25  and  O4_26
ROOT
HETATM    1  C3  UNL     1       0.265  -5.431   9.148  1.00  0.00     0.170 C
HETATM    2  C4  UNL     1      -0.929  -6.268   8.727  1.00  0.00    -0.049 C
HETATM    3  C5  UNL     1      -1.432  -6.140   7.308  1.00  0.00     0.046 C
HETATM    4  C6  UNL     1      -1.391  -7.008   9.712  1.00  0.00    -0.051 C
HETATM    5  C12 UNL     1      -0.593  -6.701  10.934  1.00  0.00     0.030 C
HETATM    6  C13 UNL     1      -1.279  -6.695  12.226  1.00  0.00     0.013 C
HETATM    7  C14 UNL     1      -0.764  -5.675  13.222  1.00  0.00     0.044 C
HETATM    8  C15 UNL     1      -0.648  -4.310  12.666  1.00  0.00     0.119 C
HETATM    9  C16 UNL     1       0.477  -3.552  13.371  1.00  0.00     0.052 C
HETATM   10  C17 UNL     1      -0.464  -4.248  11.163  1.00  0.00     0.167 C
HETATM   11  C18 UNL     1       0.208  -5.459  10.614  1.00  0.00     0.023 C
HETATM   12  C19 UNL     1       1.629  -5.617  11.159  1.00  0.00     0.022 C
ENDROOT
BRANCH   1  13
HETATM   13  O1  UNL     1       0.202  -4.204   8.495  1.00  0.00    -0.329 OA
BRANCH  13  14
HETATM   14  C2  UNL     1       1.118  -3.654   7.635  1.00  0.00     0.108 C
HETATM   15  C1  UNL     1       0.803  -3.182   6.248  1.00  0.00     0.097 C
HETATM   16  N1  UNL     1       2.331  -3.563   8.117  1.00  0.00    -0.384 N
ATOM     17  H12 UNL     1       3.012  -3.154   7.477  1.00  0.00     0.157 HD
ATOM     18  H11 UNL     1       2.544  -3.884   9.061  1.00  0.00     0.157 HD
ENDBRANCH  13  14
ENDBRANCH   1  13
BRANCH   4  19
HETATM   19  C7  UNL     1      -2.545  -7.917   9.567  1.00  0.00     0.043 C
HETATM   20  S1  UNL     1      -2.460  -9.306  10.810  1.00  0.00    -0.082 SA
HETATM   21  C8  UNL     1      -3.861  -7.255   9.907  1.00  0.00     0.026 C
HETATM   22  C9  UNL     1      -4.766  -7.497   8.720  1.00  0.00     0.002 C
HETATM   23  C10 UNL     1      -4.261  -8.812   8.192  1.00  0.00     0.002 C
HETATM   24  C11 UNL     1      -2.734  -8.613   8.271  1.00  0.00     0.026 C
ENDBRANCH   4  19
BRANCH  10  25
HETATM   25  O4  UNL     1      -1.698  -4.110  10.567  1.00  0.00    -0.392 OA
ATOM     26  H4  UNL     1      -1.581  -3.746   9.698  1.00  0.00     0.210 HD
ENDBRANCH  10  25
BRANCH   8  27
HETATM   27  O2  UNL     1      -1.815  -3.559  12.943  1.00  0.00    -0.230 OA
BRANCH  27  28
HETATM   28  O3  UNL     1      -1.676  -2.310  12.593  1.00  0.00    -0.250 OA
ATOM     29  H3  UNL     1      -2.418  -1.786  12.871  1.00  0.00     0.253 HD
ENDBRANCH  27  28
ENDBRANCH   8  27
TORSDOF 6
ENDMDL