MODEL 5
REMARK VINA RESULT: -8.382216250      3.491      6.609
REMARK  6 active torsions:
REMARK  status: ('A' for Active; 'I' for Inactive)
REMARK    1  A    between atoms: C16_17  and  C17_18
REMARK    2  A    between atoms: C17_18  and  C18_19
REMARK    3  A    between atoms: C18_19  and  C19_20
REMARK    4  A    between atoms: C20_21  and  O2_22
REMARK    5  A    between atoms: C21_25  and  O4_26
REMARK    6  A    between atoms: C22_28  and  O5_29
ROOT
HETATM    1  C1  UNL     1       9.305  -4.965   1.404  1.00  0.00     0.015 C
HETATM    2  C2  UNL     1       7.850  -4.664   1.194  1.00  0.00    -0.043 C
HETATM    3  C3  UNL     1       7.783  -4.099  -0.244  1.00  0.00     0.015 C
HETATM    4  C4  UNL     1       7.141  -5.992   1.070  1.00  0.00     0.009 C
HETATM    5  C5  UNL     1       5.831  -5.862   1.778  1.00  0.00     0.002 C
HETATM    6  C6  UNL     1       6.219  -5.541   3.229  1.00  0.00     0.010 C
HETATM    7  C7  UNL     1       6.687  -4.160   3.418  1.00  0.00    -0.028 C
HETATM    8  C8  UNL     1       7.943  -4.220   4.302  1.00  0.00     0.016 C
HETATM    9  C9  UNL     1       5.752  -3.104   3.832  1.00  0.00     0.060 C
HETATM   10  C10 UNL     1       6.651  -1.912   4.139  1.00  0.00    -0.007 C
HETATM   11  C11 UNL     1       7.641  -1.589   3.338  1.00  0.00    -0.015 C
HETATM   12  C12 UNL     1       7.923  -2.385   2.090  1.00  0.00     0.034 C
HETATM   13  C13 UNL     1       7.206  -3.679   2.043  1.00  0.00     0.006 C
HETATM   14  C14 UNL     1       6.228  -1.304   5.389  1.00  0.00     0.160 C
HETATM   15  O1  UNL     1       6.444  -0.136   5.752  1.00  0.00    -0.292 OA
HETATM   16  C15 UNL     1       5.490  -2.352   6.141  1.00  0.00     0.118 C
HETATM   17  C16 UNL     1       4.856  -3.077   4.932  1.00  0.00    -0.063 C
ENDROOT
BRANCH  17  18
HETATM   18  C17 UNL     1       4.023  -4.176   5.359  1.00  0.00     0.005 C
BRANCH  18  19
HETATM   19  C18 UNL     1       4.262  -4.836   6.467  1.00  0.00     0.020 C
BRANCH  19  20
HETATM   20  C19 UNL     1       3.360  -4.984   7.592  1.00  0.00     0.060 A
HETATM   21  C20 UNL     1       3.170  -6.124   8.345  1.00  0.00     0.199 A
HETATM   22  O3  UNL     1       2.270  -5.878   9.285  1.00  0.00    -0.261 OA
HETATM   23  C21 UNL     1       1.843  -4.655   9.216  1.00  0.00     0.220 A
HETATM   24  C22 UNL     1       2.517  -4.060   8.149  1.00  0.00     0.139 A
BRANCH  21  25
HETATM   25  O2  UNL     1       3.818  -7.339   8.151  1.00  0.00    -0.340 OA
ATOM     26  H2  UNL     1       4.074  -7.945   8.837  1.00  0.00     0.220 HD
ENDBRANCH  21  25
BRANCH  23  27
HETATM   27  O4  UNL     1       0.908  -4.085  10.046  1.00  0.00    -0.339 OA
ATOM     28  H4  UNL     1       0.398  -3.308   9.853  1.00  0.00     0.220 HD
ENDBRANCH  23  27
BRANCH  24  29
HETATM   29  O5  UNL     1       2.318  -2.760   7.777  1.00  0.00    -0.355 OA
ATOM     30  H5  UNL     1       2.286  -1.987   8.329  1.00  0.00     0.218 HD
ENDBRANCH  24  29
ENDBRANCH  19  20
ENDBRANCH  18  19
ENDBRANCH  17  18
TORSDOF 6
ENDMDL