MODEL 5
REMARK VINA RESULT: -7.569174248      1.467      2.621
REMARK  6 active torsions:
REMARK  status: ('A' for Active; 'I' for Inactive)
REMARK    1  A    between atoms: C5_5  and  O1_6
REMARK    2  A    between atoms: C8_10  and  C9_11
REMARK    3  A    between atoms: C10_12  and  O2_13
REMARK    4  A    between atoms: C12_16  and  O3_17
REMARK    5  A    between atoms: C13_19  and  C14_20
REMARK    6  A    between atoms: C22_29  and  O5_30
ROOT
HETATM    1  C9  UNL     1       4.407  -6.168   5.469  1.00  0.00     0.034 A
HETATM    2  C10 UNL     1       4.909  -7.371   5.015  1.00  0.00     0.081 A
HETATM    3  C11 UNL     1       6.030  -7.496   4.167  1.00  0.00     0.074 A
HETATM    4  C12 UNL     1       6.660  -6.346   3.771  1.00  0.00     0.080 A
HETATM    5  C13 UNL     1       6.220  -5.069   4.182  1.00  0.00     0.038 A
HETATM    6  C22 UNL     1       5.107  -5.004   5.022  1.00  0.00     0.090 A
ENDROOT
BRANCH   1   7
HETATM    7  C8  UNL     1       3.352  -6.191   6.473  1.00  0.00    -0.054 C
HETATM    8  C2  UNL     1       1.925  -6.351   5.979  1.00  0.00     0.012 C
HETATM    9  C1  UNL     1       1.816  -6.040   4.519  1.00  0.00     0.015 C
HETATM   10  C3  UNL     1       1.473  -7.806   6.208  1.00  0.00     0.011 C
HETATM   11  C4  UNL     1       1.693  -8.279   7.571  1.00  0.00     0.033 C
HETATM   12  C5  UNL     1       2.670  -7.646   8.444  1.00  0.00     0.126 C
HETATM   13  C6  UNL     1       3.600  -6.627   7.865  1.00  0.00     0.041 C
HETATM   14  C7  UNL     1       3.519  -5.440   8.875  1.00  0.00     0.017 C
BRANCH  12  15
HETATM   15  O1  UNL     1       3.435  -8.604   9.112  1.00  0.00    -0.395 OA
ATOM     16  H1  UNL     1       4.356  -8.374   9.096  1.00  0.00     0.210 HD
ENDBRANCH  12  15
ENDBRANCH   1   7
BRANCH   2  17
HETATM   17  O2  UNL     1       4.312  -8.532   5.379  1.00  0.00    -0.360 OA
ATOM     18  H2  UNL     1       3.654  -8.530   6.064  1.00  0.00     0.217 HD
ENDBRANCH   2  17
BRANCH   6  19
HETATM   19  O5  UNL     1       4.613  -3.835   5.472  1.00  0.00    -0.359 OA
ATOM     20  H5  UNL     1       3.740  -3.883   5.842  1.00  0.00     0.217 HD
ENDBRANCH   6  19
BRANCH   5  21
HETATM   21  C14 UNL     1       7.131  -3.971   3.818  1.00  0.00     0.165 C
HETATM   22  O4  UNL     1       7.134  -3.142   4.954  1.00  0.00    -0.381 OA
HETATM   23  C15 UNL     1       7.280  -1.848   4.951  1.00  0.00     0.169 C
HETATM   24  C16 UNL     1       7.435  -1.067   3.650  1.00  0.00     0.032 C
HETATM   25  C17 UNL     1       8.074  -2.071   2.781  1.00  0.00     0.003 A
HETATM   26  C18 UNL     1       6.878  -3.089   2.674  1.00  0.00     0.032 A
HETATM   27  C19 UNL     1       7.750  -2.750   1.575  1.00  0.00    -0.037 A
HETATM   28  C20 UNL     1       7.291  -1.949   0.407  1.00  0.00     0.015 C
HETATM   29  C21 UNL     1       8.906  -3.671   1.081  1.00  0.00     0.015 C
ENDBRANCH   5  21
BRANCH   4  30
HETATM   30  O3  UNL     1       7.765  -6.392   2.942  1.00  0.00    -0.360 OA
ATOM     31  H3  UNL     1       7.706  -6.114   2.036  1.00  0.00     0.217 HD
ENDBRANCH   4  30
TORSDOF 6
ENDMDL