MODEL 5
REMARK VINA RESULT: -7.108798762      1.247      1.482
REMARK  6 active torsions:
REMARK  status: ('A' for Active; 'I' for Inactive)
REMARK    1  A    between atoms: O1_2  and  C2_3
REMARK    2  A    between atoms: C3_4  and  O2_5
REMARK    3  A    between atoms: C4_7  and  O3_8
REMARK    4  A    between atoms: C7_12  and  C8_13
REMARK    5  A    between atoms: C11_16  and  O4_18
REMARK    6  A    between atoms: C19_26  and  O5_27
ROOT
HETATM    1  C2  UNL     1       4.513  -4.342   5.436  1.00  0.00     0.115 A
HETATM    2  C3  UNL     1       3.904  -3.382   6.157  1.00  0.00     0.134 A
HETATM    3  C4  UNL     1       2.956  -3.728   7.051  1.00  0.00     0.109 A
HETATM    4  C5  UNL     1       2.597  -5.064   7.238  1.00  0.00     0.003 A
HETATM    5  C6  UNL     1       3.227  -6.019   6.494  1.00  0.00    -0.000 A
HETATM    6  C7  UNL     1       4.231  -5.722   5.541  1.00  0.00     0.015 A
HETATM    7  C11 UNL     1       2.907  -7.437   6.607  1.00  0.00     0.086 C
HETATM    8  C12 UNL     1       2.103  -7.806   5.355  1.00  0.00     0.051 C
HETATM    9  C13 UNL     1       1.943  -7.762   7.737  1.00  0.00     0.078 C
HETATM   10  C14 UNL     1       1.025  -6.672   8.063  1.00  0.00    -0.059 C
HETATM   11  C15 UNL     1      -0.261  -6.973   8.168  1.00  0.00    -0.080 C
HETATM   12  C16 UNL     1      -0.851  -8.304   7.983  1.00  0.00     0.043 C
HETATM   13  C17 UNL     1      -1.258  -5.899   8.554  1.00  0.00     0.036 C
HETATM   14  C18 UNL     1      -0.538  -4.899   9.419  1.00  0.00     0.037 C
HETATM   15  C19 UNL     1       0.555  -4.328   8.504  1.00  0.00     0.135 C
HETATM   16  C20 UNL     1       1.570  -5.332   8.250  1.00  0.00     0.036 C
HETATM   17  C21 UNL     1       2.393  -5.447   9.578  1.00  0.00     0.028 C
ENDROOT
BRANCH   6  18
HETATM   18  C8  UNL     1       4.982  -6.509   4.670  1.00  0.00    -0.058 C
HETATM   19  C9  UNL     1       5.697  -7.721   4.616  1.00  0.00     0.019 C
HETATM   20  C10 UNL     1       4.219  -6.500   3.300  1.00  0.00     0.048 C
ENDBRANCH   6  18
BRANCH   1  21
HETATM   21  O1  UNL     1       5.493  -3.858   4.534  1.00  0.00    -0.352 OA
HETATM   22  C1  UNL     1       6.836  -3.630   4.914  1.00  0.00     0.210 C
ENDBRANCH   1  21
BRANCH   2  23
HETATM   23  O2  UNL     1       4.223  -2.011   6.011  1.00  0.00    -0.356 OA
ATOM     24  H2  UNL     1       3.632  -1.321   6.289  1.00  0.00     0.218 HD
ENDBRANCH   2  23
BRANCH   7  25
HETATM   25  O4  UNL     1       3.905  -8.299   6.949  1.00  0.00    -0.385 OA
ATOM     26  H4  UNL     1       3.895  -8.678   7.821  1.00  0.00     0.211 HD
ENDBRANCH   7  25
BRANCH   3  27
HETATM   27  O3  UNL     1       2.363  -2.733   7.764  1.00  0.00    -0.357 OA
ATOM     28  H3  UNL     1       1.555  -2.936   8.221  1.00  0.00     0.217 HD
ENDBRANCH   3  27
BRANCH  15  29
HETATM   29  O5  UNL     1      -0.199  -3.922   7.385  1.00  0.00    -0.394 OA
ATOM     30  H5  UNL     1      -0.617  -3.135   7.714  1.00  0.00     0.210 HD
ENDBRANCH  15  29
TORSDOF 6
ENDMDL