MODEL 3
REMARK VINA RESULT: -7.414424347      7.413     10.639
REMARK  7 active torsions:
REMARK  status: ('A' for Active; 'I' for Inactive)
REMARK    1  A    between atoms: C13_14  and  O2_15
REMARK    2  A    between atoms: C15_18  and  O3_19
REMARK    3  A    between atoms: C15_18  and  C16_21
REMARK    4  A    between atoms: C16_21  and  O4_22
REMARK    5  A    between atoms: C19_26  and  C20_27
REMARK    6  A    between atoms: C20_27  and  C21_28
REMARK    7  A    between atoms: C21_28  and  O5_29
ROOT
HETATM    1  C1  UNL     1      -3.141  -5.677  11.153  1.00  0.00     0.015 C
HETATM    2  C2  UNL     1      -1.930  -4.829  10.698  1.00  0.00    -0.043 C
HETATM    3  C3  UNL     1      -2.527  -3.917   9.688  1.00  0.00     0.015 C
HETATM    4  C4  UNL     1      -1.724  -3.827  11.844  1.00  0.00     0.009 C
HETATM    5  C5  UNL     1      -1.075  -4.388  13.018  1.00  0.00     0.002 C
HETATM    6  C6  UNL     1      -0.768  -5.890  12.870  1.00  0.00     0.010 C
HETATM    7  C7  UNL     1      -0.030  -6.206  11.621  1.00  0.00    -0.031 C
HETATM    8  C8  UNL     1       1.185  -5.212  11.772  1.00  0.00     0.016 C
HETATM    9  C9  UNL     1       0.589  -7.513  11.460  1.00  0.00     0.040 C
HETATM   10  C10 UNL     1       0.142  -8.789  12.052  1.00  0.00     0.014 A
HETATM   11  C11 UNL     1       0.128  -9.963  11.324  1.00  0.00    -0.021 A
HETATM   12  C12 UNL     1      -0.329 -10.950  12.166  1.00  0.00     0.152 A
HETATM   13  O1  UNL     1      -0.574 -10.434  13.318  1.00  0.00    -0.299 OA
HETATM   14  C13 UNL     1      -0.307  -9.137  13.311  1.00  0.00     0.190 A
HETATM   15  C14 UNL     1       0.619 -10.166   9.909  1.00  0.00     0.081 C
HETATM   16  C15 UNL     1       1.623  -8.962   9.795  1.00  0.00     0.087 C
HETATM   17  C17 UNL     1       0.714  -7.813   9.961  1.00  0.00     0.032 C
HETATM   18  C18 UNL     1       1.035  -6.656   9.102  1.00  0.00     0.013 C
HETATM   19  C19 UNL     1       0.218  -5.394   9.376  1.00  0.00    -0.006 C
HETATM   20  C22 UNL     1      -0.811  -5.691  10.367  1.00  0.00     0.006 C
ENDROOT
BRANCH  16  21
HETATM   21  O3  UNL     1       2.492  -9.206  10.858  1.00  0.00    -0.387 OA
ATOM     22  H3  UNL     1       2.877  -8.349  10.998  1.00  0.00     0.210 HD
ENDBRANCH  16  21
BRANCH  16  23
HETATM   23  C16 UNL     1       2.354  -9.157   8.536  1.00  0.00     0.202 C
BRANCH  23  24
HETATM   24  O4  UNL     1       3.721  -8.885   8.597  1.00  0.00    -0.398 OA
ATOM     25  H4  UNL     1       4.281  -9.548   8.211  1.00  0.00     0.209 HD
ENDBRANCH  23  24
ENDBRANCH  16  23
BRANCH  19  26
HETATM   26  C20 UNL     1      -0.193  -4.933   7.992  1.00  0.00     0.031 C
BRANCH  26  27
HETATM   27  C21 UNL     1       0.877  -3.942   7.454  1.00  0.00     0.164 C
BRANCH  27  28
HETATM   28  O5  UNL     1       1.630  -3.431   8.488  1.00  0.00    -0.401 OA
ATOM     29  H5  UNL     1       2.223  -2.759   8.171  1.00  0.00     0.209 HD
ENDBRANCH  27  28
ENDBRANCH  26  27
ENDBRANCH  19  26
BRANCH  14  30
HETATM   30  O2  UNL     1      -0.503  -8.404  14.488  1.00  0.00    -0.340 OA
ATOM     31  H2  UNL     1      -0.146  -8.483  15.365  1.00  0.00     0.220 HD
ENDBRANCH  14  30
TORSDOF 7
ENDMDL