MODEL 1
REMARK VINA RESULT: -7.706286748      0.000      0.000
REMARK  6 active torsions:
REMARK  status: ('A' for Active; 'I' for Inactive)
REMARK    1  A    between atoms: C2_3  and  C3_4
REMARK    2  A    between atoms: C6_7  and  O1_8
REMARK    3  A    between atoms: C8_11  and  O2_12
REMARK    4  A    between atoms: C16_21  and  C17_22
REMARK    5  A    between atoms: C17_22  and  O3_23
REMARK    6  A    between atoms: C20_27  and  O4_29
ROOT
HETATM    1  C1  UNL     1       1.394  -7.402   7.539  1.00  0.00     0.311 C
HETATM    2  N1  UNL     1       1.075  -7.431   8.948  1.00  0.00     0.101 N
HETATM    3  C2  UNL     1       1.783  -6.268   9.490  1.00  0.00     0.259 C
HETATM    4  C9  UNL     1       1.579  -5.898  10.861  1.00  0.00     0.041 C
HETATM    5  C10 UNL     1       0.765  -4.731  11.296  1.00  0.00     0.002 C
HETATM    6  C11 UNL     1      -0.191  -5.086  12.465  1.00  0.00     0.000 C
HETATM    7  C12 UNL     1      -1.554  -5.375  11.955  1.00  0.00     0.000 C
HETATM    8  C13 UNL     1      -2.057  -6.754  12.099  1.00  0.00     0.000 C
HETATM    9  C14 UNL     1      -1.647  -7.696  10.961  1.00  0.00     0.001 C
HETATM   10  C15 UNL     1      -0.639  -8.607  11.463  1.00  0.00     0.014 C
HETATM   11  C16 UNL     1       0.403  -9.198  10.655  1.00  0.00     0.015 C
HETATM   12  C18 UNL     1      -0.286 -10.527  10.180  1.00  0.00     0.017 C
HETATM   13  C19 UNL     1       0.865 -11.097   9.485  1.00  0.00     0.040 C
HETATM   14  C20 UNL     1       1.198  -9.872   8.597  1.00  0.00     0.086 C
HETATM   15  C21 UNL     1       0.095  -9.870   7.609  1.00  0.00     0.048 C
HETATM   16  C22 UNL     1       1.190  -8.674   9.581  1.00  0.00     0.267 C
ENDROOT
BRANCH   3  17
HETATM   17  C3  UNL     1       1.321  -5.138   8.608  1.00  0.00     0.008 A
HETATM   18  C4  UNL     1       0.022  -4.978   8.171  1.00  0.00     0.015 A
HETATM   19  C5  UNL     1      -0.293  -4.037   7.185  1.00  0.00     0.037 A
HETATM   20  C6  UNL     1       0.660  -3.233   6.616  1.00  0.00     0.068 A
HETATM   21  C7  UNL     1       1.960  -3.376   7.041  1.00  0.00     0.073 A
HETATM   22  C8  UNL     1       2.280  -4.298   8.004  1.00  0.00     0.076 A
BRANCH  20  23
HETATM   23  O1  UNL     1       0.340  -2.292   5.625  1.00  0.00    -0.361 OA
ATOM     24  H1  UNL     1       0.997  -1.943   5.034  1.00  0.00     0.217 HD
ENDBRANCH  20  23
BRANCH  22  25
HETATM   25  O2  UNL     1       3.601  -4.433   8.440  1.00  0.00    -0.360 OA
ATOM     26  H2  UNL     1       4.197  -4.899   7.865  1.00  0.00     0.217 HD
ENDBRANCH  22  25
ENDBRANCH   3  17
BRANCH  11  27
HETATM   27  C17 UNL     1       1.400  -9.822  11.688  1.00  0.00     0.175 C
BRANCH  27  28
HETATM   28  O3  UNL     1       2.616  -9.214  11.677  1.00  0.00    -0.400 OA
ATOM     29  H3  UNL     1       3.331  -9.826  11.548  1.00  0.00     0.209 HD
ENDBRANCH  27  28
ENDBRANCH  11  27
BRANCH  14  30
HETATM   30  O4  UNL     1       2.446 -10.262   8.183  1.00  0.00    -0.388 OA
ATOM     31  H4  UNL     1       2.695  -9.464   7.731  1.00  0.00     0.210 HD
ENDBRANCH  14  30
TORSDOF 6
ENDMDL