MODEL 1
REMARK VINA RESULT: -7.800458778      0.000      0.000
REMARK  5 active torsions:
REMARK  status: ('A' for Active; 'I' for Inactive)
REMARK    1  A    between atoms: C8_8  and  C9_9
REMARK    2  A    between atoms: C18_22  and  O2_23
REMARK    3  A    between atoms: C18_22  and  C19_25
REMARK    4  A    between atoms: C19_25  and  O3_26
REMARK    5  A    between atoms: C20_28  and  O4_29
ROOT
HETATM    1  C1  UNL     1       8.016  -3.295   4.876  1.00  0.00     0.018 C
HETATM    2  C2  UNL     1       6.871  -2.755   4.060  1.00  0.00    -0.018 C
HETATM    3  C3  UNL     1       7.407  -1.861   2.960  1.00  0.00     0.018 C
HETATM    4  C4  UNL     1       5.898  -1.944   4.882  1.00  0.00     0.016 C
HETATM    5  C5  UNL     1       5.165  -2.794   5.890  1.00  0.00     0.036 C
HETATM    6  C6  UNL     1       5.093  -4.209   5.525  1.00  0.00    -0.069 C
HETATM    7  C7  UNL     1       5.517  -4.740   4.375  1.00  0.00    -0.037 C
HETATM    8  C8  UNL     1       5.326  -6.214   4.252  1.00  0.00     0.077 C
HETATM    9  C12 UNL     1       3.936  -6.665   4.649  1.00  0.00     0.029 C
HETATM   10  C13 UNL     1       3.376  -5.936   5.782  1.00  0.00    -0.003 C
HETATM   11  C14 UNL     1       2.315  -4.943   5.299  1.00  0.00     0.019 C
HETATM   12  C15 UNL     1       4.511  -5.171   6.478  1.00  0.00     0.026 C
HETATM   13  C16 UNL     1       3.761  -4.570   7.613  1.00  0.00     0.013 C
HETATM   14  C17 UNL     1       2.936  -5.745   8.101  1.00  0.00     0.041 C
HETATM   15  C18 UNL     1       2.803  -6.696   6.905  1.00  0.00     0.087 C
HETATM   16  C20 UNL     1       6.128  -3.891   3.343  1.00  0.00     0.156 C
ENDROOT
BRANCH   8  17
HETATM   17  C9  UNL     1       5.525  -6.711   2.870  1.00  0.00     0.080 A
HETATM   18  C10 UNL     1       6.396  -7.696   2.453  1.00  0.00     0.124 A
HETATM   19  N1  UNL     1       6.247  -7.819   1.134  1.00  0.00    -0.335 N
HETATM   20  C11 UNL     1       5.322  -6.951   0.736  1.00  0.00     0.219 A
ATOM     21  H1  UNL     1       6.755  -8.468   0.533  1.00  0.00     0.168 HD
HETATM   22  S1  UNL     1       4.774  -6.711  -0.811  1.00  0.00    -0.033 SA
HETATM   23  O1  UNL     1       4.909  -6.303   1.788  1.00  0.00    -0.287 OA
ENDBRANCH   8  17
BRANCH  16  24
HETATM   24  O4  UNL     1       7.124  -4.533   2.608  1.00  0.00    -0.390 OA
ATOM     25  H4  UNL     1       7.414  -5.234   3.180  1.00  0.00     0.210 HD
ENDBRANCH  16  24
BRANCH  15  26
HETATM   26  O2  UNL     1       1.437  -6.906   6.676  1.00  0.00    -0.387 OA
ATOM     27  H2  UNL     1       1.019  -6.076   6.478  1.00  0.00     0.210 HD
ENDBRANCH  15  26
BRANCH  15  28
HETATM   28  C19 UNL     1       3.482  -7.996   7.218  1.00  0.00     0.202 C
BRANCH  28  29
HETATM   29  O3  UNL     1       3.574  -8.161   8.593  1.00  0.00    -0.398 OA
ATOM     30  H3  UNL     1       3.839  -9.050   8.794  1.00  0.00     0.209 HD
ENDBRANCH  28  29
ENDBRANCH  15  28
TORSDOF 5
ENDMDL