MODEL 4
REMARK VINA RESULT: -6.314869156      4.642      7.237
REMARK  5 active torsions:
REMARK  status: ('A' for Active; 'I' for Inactive)
REMARK    1  A    between atoms: C2_2  and  C3_3
REMARK    2  A    between atoms: C3_3  and  N1_4
REMARK    3  A    between atoms: N1_4  and  C4_5
REMARK    4  A    between atoms: N1_4  and  C6_7
REMARK    5  A    between atoms: C7_10  and  N3_11
ROOT
HETATM    1  C6  UNL     1      52.015 -44.240  -7.883  1.00  0.00     0.129 A
HETATM    2  N2  UNL     1      53.323 -44.473  -8.085  1.00  0.00    -0.176 N
ATOM      3  H2  UNL     1      53.836 -45.026  -7.398  1.00  0.00     0.186 HD
HETATM    4  C7  UNL     1      53.978 -44.003  -9.160  1.00  0.00     0.679 A
HETATM    5  N4  UNL     1      53.306 -43.277 -10.066  1.00  0.00    -0.177 N
ATOM      6  H4  UNL     1      53.809 -42.926 -10.879  1.00  0.00     0.186 HD
HETATM    7  C8  UNL     1      52.007 -42.995  -9.950  1.00  0.00     0.127 A
HETATM    8  C9  UNL     1      51.348 -43.499  -8.817  1.00  0.00     0.031 A
HETATM    9  C10 UNL     1      49.928 -43.212  -8.654  1.00  0.00     0.048 C
HETATM   10  C11 UNL     1      49.277 -43.109 -10.033  1.00  0.00     0.024 C
HETATM   11  C12 UNL     1      49.891 -41.978 -10.825  1.00  0.00     0.121 C
HETATM   12  N5  UNL     1      51.314 -42.224 -10.919  1.00  0.00    -0.375 N
ATOM     13  H5  UNL     1      51.834 -41.832 -11.705  1.00  0.00     0.161 HD
ENDROOT
BRANCH   1  14
HETATM   14  N1  UNL     1      51.368 -44.748  -6.746  1.00  0.00    -0.367 N
BRANCH  14  15
HETATM   15  C3  UNL     1      51.023 -43.951  -5.585  1.00  0.00     0.124 C
BRANCH  15  16
HETATM   16  C2  UNL     1      51.232 -44.639  -4.281  1.00  0.00     0.015 C
HETATM   17  C1  UNL     1      51.925 -43.666  -3.351  1.00  0.00     0.006 C
ENDBRANCH  15  16
ENDBRANCH  14  15
BRANCH  14  18
HETATM   18  C4  UNL     1      51.007 -46.156  -6.729  1.00  0.00     0.120 C
HETATM   19  C5  UNL     1      49.592 -46.439  -7.095  1.00  0.00     0.026 C
ENDBRANCH  14  18
ENDBRANCH   1  14
BRANCH   4  20
HETATM   20  N3  UNL     1      55.241 -44.247  -9.321  1.00  0.00    -0.234 N
ATOM     21  H32 UNL     1      55.690 -44.081 -10.221  1.00  0.00     0.174 HD
ATOM     22  H31 UNL     1      55.801 -44.609  -8.548  1.00  0.00     0.174 HD
ENDBRANCH   4  20
TORSDOF 5
ENDMDL