MODEL 1
REMARK VINA RESULT: -6.560414029      0.000      0.000
REMARK  5 active torsions:
REMARK  status: ('A' for Active; 'I' for Inactive)
REMARK    1  A    between atoms: C2_2  and  C3_3
REMARK    2  A    between atoms: C3_3  and  C4_4
REMARK    3  A    between atoms: C4_4  and  C5_5
REMARK    4  A    between atoms: C5_5  and  C6_6
REMARK    5  A    between atoms: C6_6  and  O1_7
ROOT
HETATM    1  C6  UNL     1      50.232 -45.765  -4.138  1.00  0.00     0.142 C
HETATM    2  N1  UNL     1      50.365 -44.497  -4.848  1.00  0.00    -0.332 N
ATOM      3  H1  UNL     1      49.745 -43.709  -4.657  1.00  0.00     0.165 HD
HETATM    4  C7  UNL     1      51.401 -44.415  -5.823  1.00  0.00     0.186 C
HETATM    5  N2  UNL     1      52.110 -43.202  -6.014  1.00  0.00    -0.064 NA
HETATM    6  N3  UNL     1      51.638 -45.479  -6.502  1.00  0.00    -0.364 N
ATOM      7  H3  UNL     1      52.378 -45.430  -7.201  1.00  0.00     0.162 HD
HETATM    8  C8  UNL     1      50.952 -46.728  -6.363  1.00  0.00     0.136 C
HETATM    9  C9  UNL     1      50.325 -46.966  -5.007  1.00  0.00     0.026 C
HETATM   10  C10 UNL     1      48.931 -47.542  -5.305  1.00  0.00     0.016 C
HETATM   11  C11 UNL     1      48.821 -48.841  -4.578  1.00  0.00     0.001 C
HETATM   12  C12 UNL     1      49.927 -48.772  -3.532  1.00  0.00     0.001 C
HETATM   13  C13 UNL     1      51.020 -48.110  -4.297  1.00  0.00     0.016 C
ENDROOT
BRANCH   1  14
HETATM   14  C5  UNL     1      51.268 -45.708  -3.026  1.00  0.00     0.062 C
BRANCH  14  15
HETATM   15  C4  UNL     1      50.559 -45.172  -1.774  1.00  0.00     0.005 C
BRANCH  15  16
HETATM   16  C3  UNL     1      51.503 -44.194  -1.061  1.00  0.00    -0.000 C
BRANCH  16  17
HETATM   17  C2  UNL     1      50.832 -43.858   0.257  1.00  0.00    -0.005 C
HETATM   18  C1  UNL     1      49.738 -44.824   0.602  1.00  0.00     0.005 C
ENDBRANCH  16  17
ENDBRANCH  15  16
ENDBRANCH  14  15
ENDBRANCH   1  14
BRANCH   1  19
HETATM   19  O1  UNL     1      48.966 -45.735  -3.504  1.00  0.00    -0.370 OA
ATOM     20  H1  UNL     1      48.483 -45.022  -3.907  1.00  0.00     0.212 HD
ENDBRANCH   1  19
TORSDOF 5
ENDMDL