MODEL 5
REMARK VINA RESULT: -6.429593363      1.036      1.423
REMARK  5 active torsions:
REMARK  status: ('A' for Active; 'I' for Inactive)
REMARK    1  A    between atoms: C2_3  and  N2_4
REMARK    2  A    between atoms: N2_4  and  C3_7
REMARK    3  A    between atoms: C3_7  and  C4_8
REMARK    4  A    between atoms: C6_12  and  C7_13
REMARK    5  A    between atoms: C7_13  and  O1_14
ROOT
HETATM    1  N1  UNL     1      49.383 -42.781  -6.070  1.00  0.00    -0.195 NA
HETATM    2  C1  UNL     1      50.170 -43.633  -6.209  1.00  0.00     0.099 C
HETATM    3  C2  UNL     1      51.160 -44.691  -6.398  1.00  0.00     0.213 C
HETATM    4  C8  UNL     1      52.118 -44.229  -7.487  1.00  0.00     0.055 C
HETATM    5  C9  UNL     1      51.272 -43.691  -8.606  1.00  0.00     0.003 C
HETATM    6  C10 UNL     1      50.234 -44.622  -9.104  1.00  0.00     0.000 C
HETATM    7  C11 UNL     1      49.566 -45.459  -8.074  1.00  0.00     0.003 C
HETATM    8  C12 UNL     1      50.448 -45.888  -6.943  1.00  0.00     0.055 C
ENDROOT
BRANCH   3   9
HETATM    9  N2  UNL     1      51.839 -44.902  -5.173  1.00  0.00    -0.047 N
ATOM     10  H22 UNL     1      52.849 -44.892  -5.317  1.00  0.00     0.279 HD
ATOM     11  H21 UNL     1      51.742 -44.089  -4.566  1.00  0.00     0.279 HD
BRANCH   9  12
HETATM   12  C3  UNL     1      51.439 -46.103  -4.478  1.00  0.00     0.310 C
BRANCH  12  13
HETATM   13  C4  UNL     1      50.780 -45.783  -3.187  1.00  0.00     0.107 A
HETATM   14  N3  UNL     1      49.569 -46.185  -2.793  1.00  0.00    -0.352 N
HETATM   15  C5  UNL     1      49.297 -45.704  -1.563  1.00  0.00     0.116 A
ATOM     16  H3  UNL     1      48.942 -46.771  -3.343  1.00  0.00     0.166 HD
HETATM   17  C6  UNL     1      50.390 -44.965  -1.166  1.00  0.00     0.049 A
HETATM   18  N4  UNL     1      51.270 -45.032  -2.171  1.00  0.00    -0.345 N
ATOM     19  H4  UNL     1      52.185 -44.580  -2.173  1.00  0.00     0.167 HD
BRANCH  17  20
HETATM   20  C7  UNL     1      50.492 -44.259   0.144  1.00  0.00     0.222 C
BRANCH  20  21
HETATM   21  O1  UNL     1      51.310 -43.149  -0.045  1.00  0.00    -0.395 OA
ATOM     22  H1  UNL     1      51.141 -42.546   0.669  1.00  0.00     0.209 HD
ENDBRANCH  20  21
ENDBRANCH  17  20
ENDBRANCH  12  13
ENDBRANCH   9  12
ENDBRANCH   3   9
TORSDOF 5
ENDMDL