MODEL 5
REMARK VINA RESULT: -6.433127082      1.680      2.674
REMARK  6 active torsions:
REMARK  status: ('A' for Active; 'I' for Inactive)
REMARK    1  A    between atoms: C2_2  and  C3_3
REMARK    2  A    between atoms: C3_3  and  C4_4
REMARK    3  A    between atoms: C4_4  and  C5_5
REMARK    4  A    between atoms: C5_5  and  N1_6
REMARK    5  A    between atoms: N1_6  and  C6_8
REMARK    6  A    between atoms: C7_11  and  N3_12
ROOT
HETATM    1  C6  UNL     1      50.201 -45.554  -2.467  1.00  0.00     0.148 A
HETATM    2  N2  UNL     1      50.770 -45.116  -3.590  1.00  0.00    -0.175 N
ATOM      3  H2  UNL     1      50.555 -45.591  -4.467  1.00  0.00     0.186 HD
HETATM    4  C7  UNL     1      51.617 -44.074  -3.614  1.00  0.00     0.679 A
HETATM    5  N4  UNL     1      51.905 -43.447  -2.468  1.00  0.00    -0.168 N
ATOM      6  H4  UNL     1      52.550 -42.657  -2.492  1.00  0.00     0.186 HD
HETATM    7  C8  UNL     1      51.381 -43.816  -1.288  1.00  0.00     0.195 A
HETATM    8  O1  UNL     1      51.488 -43.390  -0.051  1.00  0.00    -0.278 OA
HETATM    9  C9  UNL     1      50.738 -44.128   0.743  1.00  0.00     0.122 A
HETATM   10  C10 UNL     1      50.544 -44.022   2.200  1.00  0.00     0.098 C
HETATM   11  N5  UNL     1      50.119 -45.074  -0.020  1.00  0.00    -0.334 N
ATOM     12  H5  UNL     1      49.475 -45.792   0.310  1.00  0.00     0.168 HD
HETATM   13  C11 UNL     1      50.516 -44.883  -1.280  1.00  0.00     0.131 A
ENDROOT
BRANCH   1  14
HETATM   14  N1  UNL     1      49.375 -46.561  -2.414  1.00  0.00    -0.374 N
ATOM     15  H1  UNL     1      49.714 -47.490  -2.162  1.00  0.00     0.161 HD
BRANCH  14  16
HETATM   16  C5  UNL     1      47.977 -46.355  -2.715  1.00  0.00     0.121 C
BRANCH  16  17
HETATM   17  C4  UNL     1      47.134 -47.028  -1.646  1.00  0.00     0.020 C
BRANCH  17  18
HETATM   18  C3  UNL     1      46.596 -45.961  -0.719  1.00  0.00     0.001 C
BRANCH  18  19
HETATM   19  C2  UNL     1      46.876 -46.294   0.708  1.00  0.00    -0.004 C
HETATM   20  C1  UNL     1      47.749 -47.498   0.883  1.00  0.00     0.005 C
ENDBRANCH  18  19
ENDBRANCH  17  18
ENDBRANCH  16  17
ENDBRANCH  14  16
ENDBRANCH   1  14
BRANCH   4  21
HETATM   21  N3  UNL     1      52.160 -43.670  -4.738  1.00  0.00    -0.234 N
ATOM     22  H32 UNL     1      51.862 -42.792  -5.162  1.00  0.00     0.174 HD
ATOM     23  H31 UNL     1      52.882 -44.222  -5.201  1.00  0.00     0.174 HD
ENDBRANCH   4  21
TORSDOF 6
ENDMDL