MODEL 4
REMARK VINA RESULT: -6.148570432      2.272      4.522
REMARK  4 active torsions:
REMARK  status: ('A' for Active; 'I' for Inactive)
REMARK    1  A    between atoms: C2_2  and  C4_4
REMARK    2  A    between atoms: C2_2  and  N3_14
REMARK    3  A    between atoms: C4_4  and  C5_5
REMARK    4  A    between atoms: N3_14  and  C8_16
ROOT
HETATM    1  C1  UNL     1      52.303 -43.408  -8.803  1.00  0.00     0.038 C
HETATM    2  C2  UNL     1      51.308 -44.255  -8.056  1.00  0.00     0.024 C
HETATM    3  C3  UNL     1      51.854 -45.681  -8.178  1.00  0.00     0.038 C
ENDROOT
BRANCH   2   4
HETATM    4  C4  UNL     1      49.995 -44.149  -8.831  1.00  0.00     0.096 C
BRANCH   4   5
HETATM    5  C5  UNL     1      49.098 -43.122  -8.306  1.00  0.00     0.074 A
HETATM    6  C6  UNL     1      47.853 -43.290  -7.750  1.00  0.00     0.124 A
HETATM    7  N1  UNL     1      47.351 -42.091  -7.388  1.00  0.00    -0.330 N
HETATM    8  C7  UNL     1      48.294 -41.205  -7.727  1.00  0.00     0.222 A
ATOM      9  H1  UNL     1      46.449 -41.902  -6.951  1.00  0.00     0.168 HD
HETATM   10  N2  UNL     1      48.157 -39.928  -7.524  1.00  0.00    -0.365 N
HETATM   11  O1  UNL     1      49.304 -41.815  -8.259  1.00  0.00    -0.283 OA
ATOM     12  H22 UNL     1      47.362 -39.447  -7.105  1.00  0.00     0.159 HD
ATOM     13  H21 UNL     1      48.876 -39.253  -7.783  1.00  0.00     0.159 HD
ENDBRANCH   4   5
ENDBRANCH   2   4
BRANCH   2  14
HETATM   14  N3  UNL     1      51.180 -43.811  -6.750  1.00  0.00    -0.407 N
ATOM     15  H3  UNL     1      50.956 -42.821  -6.651  1.00  0.00     0.154 HD
BRANCH  14  16
HETATM   16  C8  UNL     1      51.310 -44.495  -5.573  1.00  0.00     0.101 C
HETATM   17  C9  UNL     1      51.729 -43.679  -4.390  1.00  0.00     0.029 C
HETATM   18  C10 UNL     1      51.804 -44.543  -3.111  1.00  0.00     0.028 C
HETATM   19  C11 UNL     1      50.564 -45.357  -2.933  1.00  0.00     0.167 C
HETATM   20  O2  UNL     1      50.307 -46.042  -4.121  1.00  0.00    -0.389 OA
HETATM   21  C12 UNL     1      49.969 -45.155  -5.135  1.00  0.00     0.192 C
ENDBRANCH  14  16
ENDBRANCH   2  14
TORSDOF 4
ENDMDL