MODEL 5
REMARK VINA RESULT: -5.927407902      2.197      5.757
REMARK  5 active torsions:
REMARK  status: ('A' for Active; 'I' for Inactive)
REMARK    1  A    between atoms: C2_2  and  N1_3
REMARK    2  A    between atoms: C5_9  and  C6_10
REMARK    3  A    between atoms: C5_9  and  C7_15
REMARK    4  A    between atoms: C6_10  and  N2_11
REMARK    5  A    between atoms: C8_16  and  N3_17
ROOT
HETATM    1  C1  UNL     1      52.744 -41.870 -10.940  1.00  0.00     0.046 C
HETATM    2  C2  UNL     1      51.916 -43.122 -10.819  1.00  0.00     0.120 C
HETATM    3  C3  UNL     1      50.443 -42.848 -11.098  1.00  0.00     0.039 C
HETATM    4  C4  UNL     1      49.657 -44.016 -10.636  1.00  0.00     0.018 C
HETATM    5  C5  UNL     1      49.515 -44.087  -9.080  1.00  0.00     0.002 C
HETATM    6  C12 UNL     1      50.715 -43.272  -8.649  1.00  0.00     0.018 C
HETATM    7  C13 UNL     1      51.987 -43.630  -9.407  1.00  0.00     0.039 C
ENDROOT
BRANCH   5   8
HETATM    8  C6  UNL     1      48.286 -43.343  -8.717  1.00  0.00     0.243 C
BRANCH   8   9
HETATM    9  N2  UNL     1      47.061 -43.789  -9.253  1.00  0.00    -0.078 N
ATOM     10  H23 UNL     1      46.865 -44.727  -8.903  1.00  0.00     0.274 HD
ATOM     11  H22 UNL     1      46.298 -43.261  -8.830  1.00  0.00     0.274 HD
ATOM     12  H21 UNL     1      46.952 -43.781 -10.267  1.00  0.00     0.274 HD
ENDBRANCH   8   9
ENDBRANCH   5   8
BRANCH   5  13
HETATM   13  C7  UNL     1      49.635 -45.477  -8.700  1.00  0.00     0.002 C
HETATM   14  C8  UNL     1      49.446 -46.115  -7.427  1.00  0.00     0.094 C
BRANCH  14  15
HETATM   15  N3  UNL     1      50.208 -45.750  -6.262  1.00  0.00    -0.328 N
HETATM   16  C9  UNL     1      49.972 -44.796  -5.344  1.00  0.00     0.114 A
HETATM   17  C10 UNL     1      50.969 -44.806  -4.413  1.00  0.00     0.106 A
HETATM   18  N4  UNL     1      51.836 -45.770  -4.747  1.00  0.00    -0.360 N
HETATM   19  C11 UNL     1      51.379 -46.342  -5.863  1.00  0.00     0.187 A
ATOM     20  H4  UNL     1      52.685 -46.021  -4.242  1.00  0.00     0.166 HD
ENDBRANCH  14  15
ENDBRANCH   5  13
BRANCH   2  21
HETATM   21  N1  UNL     1      52.376 -44.062 -11.796  1.00  0.00    -0.071 N
ATOM     22  H13 UNL     1      52.468 -43.651 -12.724  1.00  0.00     0.275 HD
ATOM     23  H12 UNL     1      53.354 -44.321 -11.662  1.00  0.00     0.275 HD
ATOM     24  H11 UNL     1      51.752 -44.869 -11.784  1.00  0.00     0.275 HD
ENDBRANCH   2  21
TORSDOF 5
ENDMDL