MODEL 3
REMARK VINA RESULT: -5.430492391      6.354      8.226
REMARK  7 active torsions:
REMARK  status: ('A' for Active; 'I' for Inactive)
REMARK    1  A    between atoms: C2_2  and  O1_3
REMARK    2  A    between atoms: C2_2  and  C6_7
REMARK    3  A    between atoms: O1_3  and  C3_4
REMARK    4  A    between atoms: C3_4  and  C4_5
REMARK    5  A    between atoms: C6_7  and  C7_8
REMARK    6  A    between atoms: C7_8  and  N1_10
REMARK    7  A    between atoms: C9_17  and  N3_18
ROOT
HETATM    1  C6  UNL     1      49.552 -46.165  -4.800  1.00  0.00     0.209 C
HETATM    2  N2  UNL     1      49.965 -44.826  -5.202  1.00  0.00    -0.029 N
ATOM      3  H21 UNL     1      49.987 -44.179  -4.414  1.00  0.00     0.281 HD
ATOM      4  H22 UNL     1      49.251 -44.357  -5.761  1.00  0.00     0.281 HD
HETATM    5  C9  UNL     1      51.207 -44.885  -5.872  1.00  0.00     0.382 C
HETATM    6  C10 UNL     1      51.336 -46.307  -6.328  1.00  0.00     0.074 C
HETATM    7  C11 UNL     1      50.669 -47.053  -5.185  1.00  0.00    -0.002 C
HETATM    8  C12 UNL     1      51.752 -47.096  -4.083  1.00  0.00     0.018 C
HETATM    9  C13 UNL     1      50.414 -48.438  -5.597  1.00  0.00     0.018 C
ENDROOT
BRANCH   1  10
HETATM   10  C2  UNL     1      49.393 -46.109  -3.298  1.00  0.00     0.076 C
HETATM   11  C1  UNL     1      48.929 -47.179  -2.694  1.00  0.00     0.048 C
BRANCH  10  12
HETATM   12  O1  UNL     1      49.699 -45.006  -2.536  1.00  0.00    -0.354 OA
BRANCH  12  13
HETATM   13  C3  UNL     1      50.359 -45.115  -1.310  1.00  0.00     0.175 C
BRANCH  13  14
HETATM   14  C4  UNL     1      51.515 -44.214  -1.071  1.00  0.00     0.022 C
HETATM   15  C5  UNL     1      52.139 -43.753  -2.375  1.00  0.00     0.007 C
ENDBRANCH  13  14
ENDBRANCH  12  13
ENDBRANCH  10  12
ENDBRANCH   1  10
BRANCH   1  16
HETATM   16  C7  UNL     1      48.218 -46.359  -5.392  1.00  0.00     0.223 C
HETATM   17  C8  UNL     1      47.132 -45.426  -4.864  1.00  0.00     0.043 C
BRANCH  16  18
HETATM   18  N1  UNL     1      48.183 -46.343  -6.840  1.00  0.00    -0.072 N
ATOM     19  H13 UNL     1      47.561 -45.605  -7.169  1.00  0.00     0.274 HD
ATOM     20  H12 UNL     1      49.072 -46.004  -7.209  1.00  0.00     0.274 HD
ATOM     21  H11 UNL     1      47.936 -47.231  -7.275  1.00  0.00     0.274 HD
ENDBRANCH  16  18
ENDBRANCH   1  16
BRANCH   5  22
HETATM   22  N3  UNL     1      51.229 -43.961  -6.999  1.00  0.00    -0.050 N
ATOM     23  H33 UNL     1      52.090 -44.042  -7.538  1.00  0.00     0.276 HD
ATOM     24  H32 UNL     1      50.566 -44.233  -7.724  1.00  0.00     0.276 HD
ATOM     25  H31 UNL     1      51.070 -43.004  -6.682  1.00  0.00     0.276 HD
ENDBRANCH   5  22
TORSDOF 7
ENDMDL