MODEL 4
REMARK VINA RESULT: -7.040786432      0.866      1.316
REMARK  5 active torsions:
REMARK  status: ('A' for Active; 'I' for Inactive)
REMARK    1  A    between atoms: C2_2  and  N1_3
REMARK    2  A    between atoms: N1_3  and  C3_4
REMARK    3  A    between atoms: N1_3  and  C5_6
REMARK    4  A    between atoms: C6_9  and  C7_10
REMARK    5  A    between atoms: C12_19  and  N5_20
ROOT
HETATM    1  C5  UNL     1      50.771 -45.280  -3.406  1.00  0.00     0.150 A
HETATM    2  N2  UNL     1      50.324 -45.557  -2.158  1.00  0.00    -0.328 N
ATOM      3  H2  UNL     1      49.745 -46.383  -2.002  1.00  0.00     0.169 HD
HETATM    4  C6  UNL     1      50.628 -44.770  -1.139  1.00  0.00     0.101 A
HETATM    5  N3  UNL     1      51.393 -43.693  -1.388  1.00  0.00    -0.287 N
ATOM      6  H3  UNL     1      51.627 -43.088  -0.601  1.00  0.00     0.188 HD
HETATM    7  N4  UNL     1      51.861 -43.363  -2.567  1.00  0.00    -0.281 N
ATOM      8  H4  UNL     1      52.438 -42.532  -2.698  1.00  0.00     0.188 HD
HETATM    9  C12 UNL     1      51.542 -44.179  -3.607  1.00  0.00     0.158 A
ENDROOT
BRANCH   1  10
HETATM   10  N1  UNL     1      50.428 -46.138  -4.481  1.00  0.00    -0.365 N
BRANCH  10  11
HETATM   11  C2  UNL     1      51.145 -47.376  -4.638  1.00  0.00     0.120 C
HETATM   12  C1  UNL     1      50.359 -48.599  -4.254  1.00  0.00     0.026 C
ENDBRANCH  10  11
BRANCH  10  13
HETATM   13  C3  UNL     1      49.389 -45.761  -5.376  1.00  0.00     0.120 C
HETATM   14  C4  UNL     1      49.713 -45.913  -6.841  1.00  0.00     0.026 C
ENDBRANCH  10  13
ENDBRANCH   1  10
BRANCH   9  15
HETATM   15  N5  UNL     1      52.016 -43.834  -4.758  1.00  0.00    -0.381 N
ATOM     16  H52 UNL     1      51.397 -43.980  -5.555  1.00  0.00     0.157 HD
ATOM     17  H51 UNL     1      52.947 -43.438  -4.893  1.00  0.00     0.157 HD
ENDBRANCH   9  15
BRANCH   4  18
HETATM   18  C7  UNL     1      50.200 -44.975   0.256  1.00  0.00     0.055 C
HETATM   19  C8  UNL     1      50.211 -43.668   1.050  1.00  0.00     0.012 C
HETATM   20  C9  UNL     1      49.589 -44.186   2.355  1.00  0.00     0.001 C
HETATM   21  C10 UNL     1      48.539 -45.193   1.884  1.00  0.00     0.001 C
HETATM   22  C11 UNL     1      48.785 -45.407   0.404  1.00  0.00     0.012 C
ENDBRANCH   4  18
TORSDOF 5
ENDMDL