MODEL 2
REMARK VINA RESULT: -5.583556590      2.808      4.838
REMARK  6 active torsions:
REMARK  status: ('A' for Active; 'I' for Inactive)
REMARK    1  A    between atoms: C2_2  and  C3_3
REMARK    2  A    between atoms: C3_3  and  N1_4
REMARK    3  A    between atoms: C4_5  and  N2_6
REMARK    4  A    between atoms: C5_11  and  C6_12
REMARK    5  A    between atoms: C9_15  and  N4_16
REMARK    6  A    between atoms: C12_19  and  N5_20
ROOT
HETATM    1  N1  UNL     1      51.797 -44.346  -9.249  1.00  0.00    -0.167 N
HETATM    2  C4  UNL     1      52.782 -44.393  -8.337  1.00  0.00     0.680 A
HETATM    3  N3  UNL     1      52.402 -44.634  -7.044  1.00  0.00    -0.193 N
ATOM      4  H3  UNL     1      53.127 -44.677  -6.328  1.00  0.00     0.184 HD
HETATM    5  C5  UNL     1      51.138 -44.817  -6.671  1.00  0.00     0.060 A
HETATM    6  C9  UNL     1      50.124 -44.771  -7.587  1.00  0.00     0.098 A
HETATM    7  C12 UNL     1      50.509 -44.522  -8.923  1.00  0.00     0.146 A
ENDROOT
BRANCH   1   8
HETATM    8  C3  UNL     1      52.130 -44.113 -10.626  1.00  0.00     0.149 C
BRANCH   8   9
HETATM    9  C2  UNL     1      52.530 -42.712 -10.942  1.00  0.00     0.016 C
HETATM   10  C1  UNL     1      51.307 -42.022 -11.535  1.00  0.00     0.006 C
ENDBRANCH   8   9
ENDBRANCH   1   8
BRANCH   2  11
HETATM   11  N2  UNL     1      54.035 -44.213  -8.580  1.00  0.00    -0.234 N
ATOM     12  H22 UNL     1      54.324 -43.326  -8.995  1.00  0.00     0.174 HD
ATOM     13  H21 UNL     1      54.775 -44.893  -8.406  1.00  0.00     0.174 HD
ENDBRANCH   2  11
BRANCH   7  14
HETATM   14  N5  UNL     1      49.546 -44.451  -9.769  1.00  0.00    -0.383 N
ATOM     15  H52 UNL     1      49.673 -44.994 -10.622  1.00  0.00     0.157 HD
ATOM     16  H51 UNL     1      48.693 -43.914  -9.608  1.00  0.00     0.157 HD
ENDBRANCH   7  14
BRANCH   6  17
HETATM   17  N4  UNL     1      48.751 -44.945  -7.287  1.00  0.00    -0.385 N
HETATM   18  C10 UNL     1      48.194 -46.277  -7.335  1.00  0.00     0.149 C
HETATM   19  C11 UNL     1      47.896 -43.828  -6.960  1.00  0.00     0.149 C
ENDBRANCH   6  17
BRANCH   5  20
HETATM   20  C6  UNL     1      50.843 -45.053  -5.238  1.00  0.00     0.030 C
HETATM   21  C7  UNL     1      51.556 -46.337  -4.830  1.00  0.00     0.016 C
HETATM   22  C8  UNL     1      51.557 -43.943  -4.442  1.00  0.00     0.016 C
ENDBRANCH   5  20
TORSDOF 6
ENDMDL