MODEL 3
REMARK VINA RESULT: -6.459297728      1.748      2.078
REMARK  5 active torsions:
REMARK  status: ('A' for Active; 'I' for Inactive)
REMARK    1  A    between atoms: C2_2  and  C3_3
REMARK    2  A    between atoms: C3_3  and  C4_4
REMARK    3  A    between atoms: C4_4  and  S1_5
REMARK    4  A    between atoms: S1_5  and  C5_6
REMARK    5  A    between atoms: C6_9  and  N2_10
ROOT
HETATM    1  C5  UNL     1      50.019 -45.518  -1.862  1.00  0.00     0.096 A
HETATM    2  N1  UNL     1      51.070 -44.889  -2.383  1.00  0.00    -0.185 N
ATOM      3  H1  UNL     1      51.406 -45.139  -3.312  1.00  0.00     0.185 HD
HETATM    4  C6  UNL     1      51.694 -43.914  -1.676  1.00  0.00     0.678 A
HETATM    5  N3  UNL     1      51.242 -43.596  -0.456  1.00  0.00    -0.177 N
ATOM      6  H3  UNL     1      51.721 -42.862   0.064  1.00  0.00     0.186 HD
HETATM    7  C7  UNL     1      50.190 -44.198   0.111  1.00  0.00     0.126 A
HETATM    8  C8  UNL     1      49.557 -45.193  -0.616  1.00  0.00     0.020 A
HETATM    9  C9  UNL     1      48.390 -45.854   0.022  1.00  0.00     0.047 C
HETATM   10  C10 UNL     1      48.733 -46.117   1.463  1.00  0.00     0.024 C
HETATM   11  C11 UNL     1      48.953 -44.819   2.214  1.00  0.00     0.121 C
HETATM   12  N4  UNL     1      49.701 -43.872   1.406  1.00  0.00    -0.375 N
ATOM     13  H4  UNL     1      49.881 -42.940   1.781  1.00  0.00     0.161 HD
ENDROOT
BRANCH   1  14
HETATM   14  S1  UNL     1      49.213 -46.791  -2.798  1.00  0.00    -0.111 SA
BRANCH  14  15
HETATM   15  C4  UNL     1      47.837 -46.025  -3.701  1.00  0.00     0.081 C
BRANCH  15  16
HETATM   16  C3  UNL     1      46.511 -46.488  -3.141  1.00  0.00     0.010 C
BRANCH  16  17
HETATM   17  C2  UNL     1      46.694 -47.896  -2.622  1.00  0.00    -0.004 C
HETATM   18  C1  UNL     1      45.731 -48.163  -1.490  1.00  0.00     0.005 C
ENDBRANCH  16  17
ENDBRANCH  15  16
ENDBRANCH  14  15
ENDBRANCH   1  14
BRANCH   4  19
HETATM   19  N2  UNL     1      52.709 -43.326  -2.212  1.00  0.00    -0.234 N
ATOM     20  H22 UNL     1      53.390 -43.824  -2.787  1.00  0.00     0.174 HD
ATOM     21  H21 UNL     1      52.828 -42.326  -2.052  1.00  0.00     0.174 HD
ENDBRANCH   4  19
TORSDOF 5
ENDMDL