MODEL 4
REMARK VINA RESULT: -8.095015431      4.104      6.911
REMARK  18 active torsions:
REMARK  status: ('A' for Active; 'I' for Inactive)
REMARK       I    between atoms: C2_4  and  N2_5
REMARK       I    between atoms: C2_4  and  N7_41
REMARK    1  A    between atoms: N2_5  and  C3_7
REMARK    2  A    between atoms: C3_7  and  C4_8
REMARK    3  A    between atoms: C4_8  and  C5_9
REMARK    4  A    between atoms: C5_9  and  C6_10
REMARK    5  A    between atoms: C6_10  and  C7_11
REMARK    6  A    between atoms: C7_11  and  C8_12
REMARK    7  A    between atoms: C8_12  and  N3_13
REMARK    8  A    between atoms: N3_13  and  C9_14
REMARK       I    between atoms: N3_13  and  C11_17
REMARK    9  A    between atoms: C9_14  and  C10_15
REMARK   10  A    between atoms: C11_17  and  C12_19
REMARK   11  A    between atoms: C12_19  and  N4_20
REMARK       I    between atoms: N4_20  and  C14_22
REMARK   12  A    between atoms: C14_22  and  C15_24
REMARK   13  A    between atoms: C18_27  and  N5_28
REMARK       I    between atoms: N5_28  and  C19_30
REMARK   14  A    between atoms: C19_30  and  C20_32
REMARK   15  A    between atoms: C20_32  and  C21_33
REMARK   16  A    between atoms: N7_41  and  C25_43
REMARK   17  A    between atoms: C25_43  and  C26_44
REMARK   18  A    between atoms: C28_47  and  N8_48
ROOT
HETATM    1  N3  UNL     1       8.306  26.005   3.354  1.00  0.00    -0.350 N
HETATM    2  C11 UNL     1       7.584  25.448   4.485  1.00  0.00     0.237 C
HETATM    3  O1  UNL     1       7.269  26.245   5.398  1.00  0.00    -0.272 OA
ENDROOT
BRANCH   1   4
HETATM    4  C8  UNL     1       8.611  27.402   3.350  1.00  0.00     0.126 C
BRANCH   4   5
HETATM    5  C7  UNL     1       9.997  27.855   3.222  1.00  0.00     0.020 C
BRANCH   5   6
HETATM    6  C6  UNL     1      10.383  28.824   2.182  1.00  0.00     0.002 C
BRANCH   6   7
HETATM    7  C5  UNL     1       9.225  29.301   1.330  1.00  0.00     0.002 C
BRANCH   7   8
HETATM    8  C4  UNL     1       9.022  30.798   1.589  1.00  0.00     0.020 C
BRANCH   8   9
HETATM    9  C3  UNL     1       7.849  30.920   2.526  1.00  0.00     0.138 C
BRANCH   9  10
HETATM   10  N2  UNL     1       8.195  31.788   3.617  1.00  0.00    -0.227 N
HETATM   11  C2  UNL     1       8.140  31.481   4.994  1.00  0.00     0.669 C
HETATM   12  N1  UNL     1       7.712  32.448   5.767  1.00  0.00    -0.231 N
HETATM   13  N7  UNL     1       8.511  30.235   5.567  1.00  0.00    -0.221 N
HETATM   14  C1  UNL     1       7.326  33.734   5.242  1.00  0.00     0.165 C
ATOM     15  H1  UNL     1       7.650  32.287   6.773  1.00  0.00     0.177 HD
ATOM     16  H7  UNL     1       9.465  29.898   5.434  1.00  0.00     0.178 HD
ATOM     17  H2  UNL     1       8.514  32.726   3.370  1.00  0.00     0.177 HD
BRANCH  13  18
HETATM   18  C25 UNL     1       7.586  29.426   6.333  1.00  0.00     0.195 C
BRANCH  18  19
HETATM   19  C26 UNL     1       7.901  29.532   7.819  1.00  0.00     0.036 A
HETATM   20  C27 UNL     1       6.868  29.483   8.720  1.00  0.00     0.080 A
HETATM   21  S2  UNL     1       7.687  29.635  10.209  1.00  0.00    -0.064 SA
HETATM   22  C28 UNL     1       9.278  29.753   9.606  1.00  0.00     0.142 A
HETATM   23  N9  UNL     1       9.106  29.669   8.289  1.00  0.00    -0.339 N
ATOM     24  H9  UNL     1       9.907  29.711   7.659  1.00  0.00     0.168 HD
BRANCH  22  25
HETATM   25  N8  UNL     1      10.416  29.891  10.256  1.00  0.00    -0.380 N
ATOM     26  H82 UNL     1      10.636  30.577  10.978  1.00  0.00     0.158 HD
ATOM     27  H81 UNL     1      11.282  29.359  10.171  1.00  0.00     0.158 HD
ENDBRANCH  22  25
ENDBRANCH  18  19
ENDBRANCH  13  18
ENDBRANCH   9  10
ENDBRANCH   8   9
ENDBRANCH   7   8
ENDBRANCH   6   7
ENDBRANCH   5   6
ENDBRANCH   4   5
ENDBRANCH   1   4
BRANCH   1  28
HETATM   28  C9  UNL     1       8.755  25.067   2.385  1.00  0.00     0.141 C
BRANCH  28  29
HETATM   29  C10 UNL     1       8.456  25.295   0.952  1.00  0.00     0.134 C
HETATM   30 CL1  UNL     1       9.974  25.821   0.128  1.00  0.00    -0.129 Cl
ENDBRANCH  28  29
ENDBRANCH   1  28
BRANCH   2  31
HETATM   31  C12 UNL     1       7.217  24.033   4.610  1.00  0.00     0.228 C
BRANCH  31  32
HETATM   32  N4  UNL     1       5.772  23.906   4.917  1.00  0.00    -0.343 N
HETATM   33  C13 UNL     1       4.844  24.726   4.182  1.00  0.00     0.153 C
HETATM   34  C14 UNL     1       5.436  22.987   5.910  1.00  0.00     0.260 C
HETATM   35  O2  UNL     1       6.283  22.286   6.530  1.00  0.00    -0.267 OA
BRANCH  34  36
HETATM   36  C15 UNL     1       4.022  22.789   6.292  1.00  0.00     0.074 A
HETATM   37  C16 UNL     1       3.544  22.057   7.347  1.00  0.00     0.027 A
HETATM   38  C17 UNL     1       2.218  22.010   7.520  1.00  0.00     0.039 A
HETATM   39  C18 UNL     1       1.420  22.685   6.650  1.00  0.00     0.077 A
HETATM   40  S1  UNL     1       2.601  23.387   5.578  1.00  0.00    -0.067 SA
BRANCH  39  41
HETATM   41  N5  UNL     1       0.010  22.832   6.556  1.00  0.00    -0.321 N
HETATM   42  C19 UNL     1      -0.909  21.913   7.024  1.00  0.00     0.222 C
HETATM   43  O3  UNL     1      -0.573  20.855   7.578  1.00  0.00    -0.273 OA
ATOM     44  H5  UNL     1      -0.349  23.677   6.112  1.00  0.00     0.169 HD
BRANCH  42  45
HETATM   45  C20 UNL     1      -2.356  22.175   6.871  1.00  0.00     0.109 C
BRANCH  45  46
HETATM   46  C21 UNL     1      -3.220  21.730   7.994  1.00  0.00     0.021 C
HETATM   47  C22 UNL     1      -3.847  20.379   7.840  1.00  0.00     0.034 C
HETATM   48  C23 UNL     1      -5.269  20.619   8.312  1.00  0.00     0.232 C
HETATM   49  N6  UNL     1      -5.188  21.800   9.158  1.00  0.00    -0.075 N
HETATM   50  C24 UNL     1      -4.334  22.685   8.354  1.00  0.00     0.237 C
ATOM     51  H62 UNL     1      -6.085  22.198   9.436  1.00  0.00     0.277 HD
ATOM     52  H61 UNL     1      -4.862  21.630  10.110  1.00  0.00     0.277 HD
ENDBRANCH  45  46
ENDBRANCH  42  45
ENDBRANCH  39  41
ENDBRANCH  34  36
ENDBRANCH  31  32
ENDBRANCH   2  31
TORSDOF 18
ENDMDL