MODEL 2
REMARK VINA RESULT: -6.174436187      1.448      1.990
REMARK  19 active torsions:
REMARK  status: ('A' for Active; 'I' for Inactive)
REMARK    1  A    between atoms: C2_2  and  C3_3
REMARK    2  A    between atoms: C3_3  and  C4_4
REMARK    3  A    between atoms: C4_4  and  C5_5
REMARK    4  A    between atoms: C5_5  and  N1_6
REMARK       I    between atoms: N1_6  and  C6_7
REMARK    5  A    between atoms: C6_7  and  C7_9
REMARK    6  A    between atoms: C8_10  and  C9_11
REMARK       I    between atoms: C9_11  and  N2_13
REMARK    7  A    between atoms: C13_17  and  C14_18
REMARK    8  A    between atoms: C14_18  and  C15_19
REMARK    9  A    between atoms: C15_19  and  C16_20
REMARK   10  A    between atoms: C16_20  and  C17_21
REMARK   11  A    between atoms: C17_21  and  C18_22
REMARK   12  A    between atoms: C18_22  and  N3_23
REMARK   13  A    between atoms: N5_41  and  C31_42
REMARK   14  A    between atoms: C31_42  and  C32_43
REMARK   15  A    between atoms: C32_43  and  C33_44
REMARK   16  A    between atoms: C33_44  and  N6_45
REMARK   17  A    between atoms: N6_45  and  C34_47
REMARK   18  A    between atoms: C34_47  and  O4_48
REMARK   19  A    between atoms: N7_50  and  O5_52
ROOT
HETATM    1  C7  UNL     1       9.677  27.787  -2.838  1.00  0.00     0.129 C
HETATM    2  C8  UNL     1      10.903  28.681  -3.128  1.00  0.00     0.232 C
HETATM    3  N4  UNL     1      11.135  28.333  -4.503  1.00  0.00    -0.374 N
ATOM      4  H4  UNL     1      10.470  28.560  -5.243  1.00  0.00     0.160 HD
HETATM    5  C21 UNL     1      12.350  27.655  -4.759  1.00  0.00     0.016 C
HETATM    6  C22 UNL     1      13.344  27.610  -3.708  1.00  0.00    -0.014 A
HETATM    7  C23 UNL     1      14.089  28.732  -3.317  1.00  0.00     0.016 A
HETATM    8  C24 UNL     1      15.042  28.772  -2.307  1.00  0.00     0.043 A
HETATM    9  C25 UNL     1      15.291  27.604  -1.626  1.00  0.00     0.116 A
HETATM   10  F1  UNL     1      16.211  27.666  -0.645  1.00  0.00    -0.206 F
HETATM   11  C26 UNL     1      14.563  26.479  -1.989  1.00  0.00     0.043 A
HETATM   12  C27 UNL     1      13.606  26.494  -3.020  1.00  0.00     0.016 A
HETATM   13  C28 UNL     1      12.132  26.386  -5.545  1.00  0.00     0.067 C
HETATM   14  C29 UNL     1      10.654  26.181  -5.868  1.00  0.00     0.109 C
HETATM   15  C30 UNL     1       9.804  25.944  -4.703  1.00  0.00     0.224 C
HETATM   16  O3  UNL     1       9.034  24.967  -4.887  1.00  0.00    -0.273 OA
HETATM   17  N5  UNL     1       9.618  26.538  -3.381  1.00  0.00    -0.313 N
ENDROOT
BRANCH   2  18
HETATM   18  C9  UNL     1      10.482  30.086  -3.101  1.00  0.00     0.248 C
HETATM   19  O2  UNL     1      10.147  30.571  -4.248  1.00  0.00    -0.271 OA
HETATM   20  N2  UNL     1      10.395  31.007  -2.019  1.00  0.00    -0.350 N
HETATM   21  C10 UNL     1       9.289  31.953  -1.868  1.00  0.00     0.126 C
HETATM   22  C20 UNL     1      11.502  31.415  -1.126  1.00  0.00     0.130 C
HETATM   23  C11 UNL     1       8.752  31.661  -0.485  1.00  0.00     0.020 C
HETATM   24  C12 UNL     1       9.668  31.232   0.558  1.00  0.00     0.008 C
HETATM   25  C13 UNL     1      11.143  31.174   0.269  1.00  0.00     0.004 C
BRANCH  25  26
HETATM   26  C14 UNL     1      11.856  32.016   1.304  1.00  0.00     0.006 C
BRANCH  26  27
HETATM   27  C15 UNL     1      11.432  31.838   2.736  1.00  0.00     0.000 C
BRANCH  27  28
HETATM   28  C16 UNL     1      11.284  33.271   3.288  1.00  0.00     0.002 C
BRANCH  28  29
HETATM   29  C17 UNL     1      10.425  33.322   4.496  1.00  0.00     0.019 C
BRANCH  29  30
HETATM   30  C18 UNL     1       9.382  32.167   4.387  1.00  0.00     0.113 C
BRANCH  30  31
HETATM   31  N3  UNL     1       9.208  31.634   5.705  1.00  0.00    -0.425 N
HETATM   32  C19 UNL     1       7.977  31.006   5.936  1.00  0.00     0.139 C
ATOM     33  H3  UNL     1       9.928  31.707   6.424  1.00  0.00     0.152 HD
ENDBRANCH  30  31
ENDBRANCH  29  30
ENDBRANCH  28  29
ENDBRANCH  27  28
ENDBRANCH  26  27
ENDBRANCH  25  26
ENDBRANCH   2  18
BRANCH   1  34
HETATM   34  C6  UNL     1       9.213  28.050  -1.453  1.00  0.00     0.340 C
HETATM   35  N1  UNL     1      10.341  27.890  -0.454  1.00  0.00    -0.383 NA
HETATM   36  O1  UNL     1       8.183  28.303  -1.052  1.00  0.00    -0.250 OA
BRANCH  35  37
HETATM   37  C5  UNL     1      11.272  27.759   0.386  1.00  0.00     0.159 C
BRANCH  37  38
HETATM   38  C4  UNL     1      10.907  27.525   1.873  1.00  0.00     0.059 C
BRANCH  38  39
HETATM   39  C3  UNL     1       9.607  28.249   2.186  1.00  0.00     0.006 C
BRANCH  39  40
HETATM   40  C2  UNL     1       9.656  28.600   3.625  1.00  0.00    -0.004 C
HETATM   41  C1  UNL     1       9.183  27.480   4.457  1.00  0.00     0.005 C
ENDBRANCH  39  40
ENDBRANCH  38  39
ENDBRANCH  37  38
ENDBRANCH  35  37
ENDBRANCH   1  34
BRANCH  17  42
HETATM   42  C31 UNL     1       9.101  25.400  -2.599  1.00  0.00     0.134 C
BRANCH  42  43
HETATM   43  C32 UNL     1      10.339  24.790  -1.882  1.00  0.00     0.040 C
BRANCH  43  44
HETATM   44  C33 UNL     1       9.852  23.906  -0.802  1.00  0.00     0.125 C
BRANCH  44  45
HETATM   45  N6  UNL     1       9.956  24.630   0.460  1.00  0.00    -0.355 N
ATOM     46  H6  UNL     1      10.839  24.920   0.881  1.00  0.00     0.163 HD
BRANCH  45  47
HETATM   47  C34 UNL     1       8.639  24.892   1.051  1.00  0.00     0.237 C
HETATM   48  N7  UNL     1       8.445  24.534   2.300  1.00  0.00    -0.233 N
ATOM     49  H7  UNL     1       9.217  24.090   2.798  1.00  0.00     0.198 HD
BRANCH  47  50
HETATM   50  O4  UNL     1       7.659  25.481   0.332  1.00  0.00    -0.331 OA
ATOM     51  H4  UNL     1       6.798  25.627   0.707  1.00  0.00     0.221 HD
ENDBRANCH  47  50
BRANCH  48  52
HETATM   52  O5  UNL     1       7.274  24.720   2.971  1.00  0.00    -0.287 OA
ATOM     53  H5  UNL     1       6.870  24.062   3.525  1.00  0.00     0.244 HD
ENDBRANCH  48  52
ENDBRANCH  45  47
ENDBRANCH  44  45
ENDBRANCH  43  44
ENDBRANCH  42  43
ENDBRANCH  17  42
TORSDOF 19
ENDMDL