MODEL 3
REMARK VINA RESULT: -6.616203484      2.853      8.578
REMARK  22 active torsions:
REMARK  status: ('A' for Active; 'I' for Inactive)
REMARK    1  A    between atoms: C2_2  and  C3_3
REMARK    2  A    between atoms: C3_3  and  C4_4
REMARK    3  A    between atoms: C4_4  and  C5_5
REMARK    4  A    between atoms: C5_5  and  C6_6
REMARK    5  A    between atoms: C6_6  and  N1_7
REMARK       I    between atoms: N1_7  and  C7_9
REMARK    6  A    between atoms: C7_9  and  C8_11
REMARK    7  A    between atoms: C8_11  and  C9_12
REMARK    8  A    between atoms: C8_11  and  N3_24
REMARK    9  A    between atoms: C9_12  and  C10_13
REMARK   10  A    between atoms: C10_13  and  C11_14
REMARK   11  A    between atoms: C11_14  and  N2_15
REMARK       I    between atoms: N2_15  and  C12_17
REMARK   12  A    between atoms: C12_17  and  O3_19
REMARK   13  A    between atoms: O3_19  and  C13_20
REMARK   14  A    between atoms: C21_32  and  C22_33
REMARK   15  A    between atoms: C22_33  and  C23_34
REMARK   16  A    between atoms: C26_39  and  O5_40
REMARK   17  A    between atoms: C27_42  and  C28_43
REMARK   18  A    between atoms: C28_43  and  C29_44
REMARK   19  A    between atoms: C29_44  and  C30_45
REMARK   20  A    between atoms: C30_45  and  C31_46
REMARK   21  A    between atoms: C31_46  and  N6_47
REMARK   22  A    between atoms: C32_53  and  O6_54
ROOT
HETATM    1  N3  UNL     1       8.902  27.136   2.201  1.00  0.00    -0.312 N
HETATM    2  C17 UNL     1       8.322  27.886   1.064  1.00  0.00     0.134 C
HETATM    3  C18 UNL     1       8.690  29.323   1.038  1.00  0.00     0.040 C
HETATM    4  C19 UNL     1       9.725  29.710   0.011  1.00  0.00     0.124 C
HETATM    5  N4  UNL     1       9.313  29.471  -1.353  1.00  0.00    -0.356 N
ATOM      6  H4  UNL     1       8.557  30.077  -1.674  1.00  0.00     0.162 HD
HETATM    7  C20 UNL     1       9.761  28.565  -2.306  1.00  0.00     0.264 C
HETATM    8  O4  UNL     1       8.875  28.097  -3.086  1.00  0.00    -0.266 OA
HETATM    9  C21 UNL     1      11.112  28.026  -2.591  1.00  0.00     0.079 C
HETATM   10  N5  UNL     1      11.698  27.177  -1.629  1.00  0.00    -0.338 N
ATOM     11  H5  UNL     1      12.711  27.163  -1.738  1.00  0.00     0.167 HD
HETATM   12  C26 UNL     1      11.316  26.363  -0.590  1.00  0.00     0.139 C
HETATM   13  C27 UNL     1      10.474  25.201  -0.378  1.00  0.00     0.159 C
HETATM   14  N7  UNL     1       9.888  25.105   0.941  1.00  0.00    -0.344 N
ATOM     15  H7  UNL     1       9.518  24.177   1.145  1.00  0.00     0.164 HD
HETATM   16  C32 UNL     1       9.720  25.993   1.985  1.00  0.00     0.220 C
ENDROOT
BRANCH   1  17
HETATM   17  C8  UNL     1       8.546  27.678   3.499  1.00  0.00     0.083 C
BRANCH  17  18
HETATM   18  C7  UNL     1       7.640  26.899   4.312  1.00  0.00     0.264 C
HETATM   19  N1  UNL     1       7.128  25.680   3.819  1.00  0.00    -0.356 N
ATOM     20  H1  UNL     1       7.406  25.370   2.887  1.00  0.00     0.162 HD
HETATM   21  O1  UNL     1       7.294  27.269   5.443  1.00  0.00    -0.266 OA
BRANCH  19  22
HETATM   22  C6  UNL     1       6.217  24.849   4.594  1.00  0.00     0.123 C
BRANCH  22  23
HETATM   23  C5  UNL     1       6.957  23.804   5.393  1.00  0.00     0.020 C
BRANCH  23  24
HETATM   24  C4  UNL     1       6.019  22.805   6.018  1.00  0.00     0.002 C
BRANCH  24  25
HETATM   25  C3  UNL     1       4.591  23.183   5.641  1.00  0.00    -0.000 C
BRANCH  25  26
HETATM   26  C2  UNL     1       3.656  22.139   6.222  1.00  0.00    -0.005 C
HETATM   27  C1  UNL     1       3.011  22.637   7.504  1.00  0.00     0.005 C
ENDBRANCH  25  26
ENDBRANCH  24  25
ENDBRANCH  23  24
ENDBRANCH  22  23
ENDBRANCH  19  22
ENDBRANCH  17  18
BRANCH  17  28
HETATM   28  C9  UNL     1       8.311  29.141   3.474  1.00  0.00     0.065 C
BRANCH  28  29
HETATM   29  C10 UNL     1       9.150  30.041   4.291  1.00  0.00     0.026 C
BRANCH  29  30
HETATM   30  C11 UNL     1       8.242  30.602   5.410  1.00  0.00     0.125 C
BRANCH  30  31
HETATM   31  N2  UNL     1       8.390  29.846   6.617  1.00  0.00    -0.337 N
HETATM   32  C12 UNL     1       7.366  29.500   7.530  1.00  0.00     0.361 C
HETATM   33  O2  UNL     1       6.193  29.859   7.324  1.00  0.00    -0.238 OA
ATOM     34  H2  UNL     1       9.330  29.522   6.842  1.00  0.00     0.164 HD
BRANCH  32  35
HETATM   35  O3  UNL     1       7.634  28.766   8.653  1.00  0.00    -0.294 OA
BRANCH  35  36
HETATM   36  C13 UNL     1       7.616  29.298   9.968  1.00  0.00     0.061 C
HETATM   37  C14 UNL     1       8.386  28.311  10.825  1.00  0.00     0.046 C
HETATM   38  C15 UNL     1       8.331  30.615  10.057  1.00  0.00     0.046 C
HETATM   39  C16 UNL     1       6.229  29.454  10.512  1.00  0.00     0.046 C
ENDBRANCH  35  36
ENDBRANCH  32  35
ENDBRANCH  30  31
ENDBRANCH  29  30
ENDBRANCH  28  29
ENDBRANCH  17  28
ENDBRANCH   1  17
BRANCH  16  40
HETATM   40  O6  UNL     1      10.479  25.742   3.022  1.00  0.00    -0.332 OA
ATOM     41  H6  UNL     1      10.085  25.094   3.594  1.00  0.00     0.220 HD
ENDBRANCH  16  40
BRANCH  13  42
HETATM   42  C28 UNL     1       9.440  24.875  -1.417  1.00  0.00     0.034 C
BRANCH  42  43
HETATM   43  C29 UNL     1       9.976  24.226  -2.624  1.00  0.00     0.004 C
BRANCH  43  44
HETATM   44  C30 UNL     1       9.215  24.523  -3.865  1.00  0.00     0.027 C
BRANCH  44  45
HETATM   45  C31 UNL     1       9.377  23.692  -5.066  1.00  0.00     0.229 C
BRANCH  45  46
HETATM   46  N6  UNL     1       9.934  22.392  -4.817  1.00  0.00    -0.079 N
ATOM     47  H63 UNL     1      10.662  22.446  -4.104  1.00  0.00     0.274 HD
ATOM     48  H62 UNL     1       9.257  21.802  -4.331  1.00  0.00     0.274 HD
ATOM     49  H61 UNL     1      10.285  21.917  -5.648  1.00  0.00     0.274 HD
ENDBRANCH  45  46
ENDBRANCH  44  45
ENDBRANCH  43  44
ENDBRANCH  42  43
ENDBRANCH  13  42
BRANCH  12  50
HETATM   50  O5  UNL     1      11.850  26.703   0.565  1.00  0.00    -0.348 OA
ATOM     51  H5  UNL     1      12.308  25.990   0.994  1.00  0.00     0.219 HD
ENDBRANCH  12  50
BRANCH   9  52
HETATM   52  C22 UNL     1      11.176  27.638  -4.037  1.00  0.00     0.067 C
BRANCH  52  53
HETATM   53  C23 UNL     1      12.489  27.201  -4.576  1.00  0.00    -0.017 C
HETATM   54  C24 UNL     1      12.619  27.733  -6.035  1.00  0.00     0.010 C
HETATM   55  C25 UNL     1      12.677  25.713  -4.745  1.00  0.00     0.010 C
ENDBRANCH  52  53
ENDBRANCH   9  52
TORSDOF 22
ENDMDL