MODEL 4
REMARK VINA RESULT: -7.929699875      1.671      2.535
REMARK  25 active torsions:
REMARK  status: ('A' for Active; 'I' for Inactive)
REMARK    1  A    between atoms: C2_2  and  C3_3
REMARK    2  A    between atoms: C3_3  and  N1_4
REMARK    3  A    between atoms: N1_4  and  C4_5
REMARK       I    between atoms: N1_4  and  C7_8
REMARK    4  A    between atoms: C4_5  and  C5_6
REMARK    5  A    between atoms: C7_8  and  O2_10
REMARK    6  A    between atoms: O2_10  and  C8_11
REMARK    7  A    between atoms: C8_11  and  C9_12
REMARK    8  A    between atoms: C9_12  and  C10_13
REMARK    9  A    between atoms: C10_13  and  C11_14
REMARK   10  A    between atoms: C11_14  and  C12_15
REMARK   11  A    between atoms: C12_15  and  C13_16
REMARK   12  A    between atoms: C13_16  and  C14_17
REMARK   13  A    between atoms: C14_17  and  C15_18
REMARK   14  A    between atoms: C15_18  and  C16_19
REMARK   15  A    between atoms: C16_19  and  C17_20
REMARK   16  A    between atoms: C17_20  and  C18_21
REMARK   17  A    between atoms: C18_21  and  N2_22
REMARK   18  A    between atoms: C18_21  and  N4_32
REMARK       I    between atoms: N2_22  and  C19_23
REMARK   19  A    between atoms: C19_23  and  C20_25
REMARK   20  A    between atoms: N4_32  and  C24_34
REMARK   21  A    between atoms: C26_37  and  O5_38
REMARK   22  A    between atoms: C26_37  and  C27_40
REMARK   23  A    between atoms: C27_40  and  O6_41
REMARK   24  A    between atoms: C28_43  and  O7_44
REMARK   25  A    between atoms: C29_46  and  O8_47
ROOT
HETATM    1  C18 UNL     1       8.414  25.106   3.475  1.00  0.00     0.157 C
ENDROOT
BRANCH   1   2
HETATM    2  C17 UNL     1       7.514  24.009   4.061  1.00  0.00     0.092 C
BRANCH   2   3
HETATM    3  C16 UNL     1       6.390  24.655   4.828  1.00  0.00     0.008 C
BRANCH   3   4
HETATM    4  C15 UNL     1       5.368  23.707   5.350  1.00  0.00     0.000 C
BRANCH   4   5
HETATM    5  C14 UNL     1       3.955  24.011   4.929  1.00  0.00     0.000 C
BRANCH   5   6
HETATM    6  C13 UNL     1       2.931  23.437   5.885  1.00  0.00     0.000 C
BRANCH   6   7
HETATM    7  C12 UNL     1       3.554  22.614   6.962  1.00  0.00     0.000 C
BRANCH   7   8
HETATM    8  C11 UNL     1       2.516  21.908   7.788  1.00  0.00     0.000 C
BRANCH   8   9
HETATM    9  C10 UNL     1       1.163  22.073   7.147  1.00  0.00     0.002 C
BRANCH   9  10
HETATM   10  C9  UNL     1       0.098  21.221   7.794  1.00  0.00     0.027 C
BRANCH  10  11
HETATM   11  C8  UNL     1      -1.204  21.216   7.044  1.00  0.00     0.180 C
BRANCH  11  12
HETATM   12  O2  UNL     1      -2.219  20.923   8.013  1.00  0.00    -0.304 OA
BRANCH  12  13
HETATM   13  C7  UNL     1      -3.370  21.686   8.100  1.00  0.00     0.362 C
HETATM   14  N1  UNL     1      -4.611  21.107   8.573  1.00  0.00    -0.328 N
HETATM   15  O1  UNL     1      -3.271  22.882   7.751  1.00  0.00    -0.238 OA
BRANCH  14  16
HETATM   16  C3  UNL     1      -5.732  21.963   8.624  1.00  0.00     0.127 C
BRANCH  16  17
HETATM   17  C2  UNL     1      -5.865  22.939   9.738  1.00  0.00     0.015 C
HETATM   18  C1  UNL     1      -6.806  22.598  10.834  1.00  0.00     0.006 C
ENDBRANCH  16  17
ENDBRANCH  14  16
BRANCH  14  19
HETATM   19  C4  UNL     1      -4.550  19.771   9.034  1.00  0.00     0.127 C
BRANCH  19  20
HETATM   20  C5  UNL     1      -5.736  19.181   9.706  1.00  0.00     0.015 C
HETATM   21  C6  UNL     1      -5.399  19.168  11.215  1.00  0.00     0.006 C
ENDBRANCH  19  20
ENDBRANCH  14  19
ENDBRANCH  12  13
ENDBRANCH  11  12
ENDBRANCH  10  11
ENDBRANCH   9  10
ENDBRANCH   8   9
ENDBRANCH   7   8
ENDBRANCH   6   7
ENDBRANCH   5   6
ENDBRANCH   4   5
ENDBRANCH   3   4
ENDBRANCH   2   3
ENDBRANCH   1   2
BRANCH   1  22
HETATM   22  N2  UNL     1       8.324  25.324   2.307  1.00  0.00    -0.352 NA
HETATM   23  C19 UNL     1       8.227  25.538   1.023  1.00  0.00     0.344 C
HETATM   24  O3  UNL     1       7.113  25.702   0.416  1.00  0.00    -0.249 OA
BRANCH  23  25
HETATM   25  C20 UNL     1       9.423  25.611   0.150  1.00  0.00     0.116 A
HETATM   26  C21 UNL     1       9.665  24.866  -0.983  1.00  0.00     0.039 A
HETATM   27  C22 UNL     1      10.883  25.242  -1.491  1.00  0.00     0.040 A
HETATM   28  C23 UNL     1      11.377  26.217  -0.661  1.00  0.00     0.080 A
HETATM   29 BR1  UNL     1      13.038  27.108  -0.881  1.00  0.00    -0.031 Br
HETATM   30  N3  UNL     1      10.484  26.421   0.317  1.00  0.00    -0.345 N
ATOM     31  H3  UNL     1      10.593  27.093   1.077  1.00  0.00     0.167 HD
ENDBRANCH  23  25
ENDBRANCH   1  22
BRANCH   1  32
HETATM   32  N4  UNL     1       9.279  25.763   4.434  1.00  0.00    -0.340 N
ATOM     33  H4  UNL     1       9.737  25.192   5.144  1.00  0.00     0.164 HD
BRANCH  32  34
HETATM   34  C24 UNL     1       9.527  27.190   4.433  1.00  0.00     0.254 C
HETATM   35  O4  UNL     1      10.014  27.521   3.176  1.00  0.00    -0.361 OA
HETATM   36  C25 UNL     1       9.953  28.892   2.936  1.00  0.00     0.213 C
HETATM   37  C26 UNL     1       8.497  29.200   2.671  1.00  0.00     0.128 C
HETATM   38  C28 UNL     1       7.740  28.913   3.920  1.00  0.00     0.189 C
HETATM   39  C29 UNL     1       8.322  27.923   4.850  1.00  0.00     0.198 C
BRANCH  37  40
HETATM   40  O5  UNL     1       8.061  28.404   1.601  1.00  0.00    -0.383 OA
ATOM     41  H5  UNL     1       7.135  28.567   1.461  1.00  0.00     0.210 HD
ENDBRANCH  37  40
BRANCH  37  42
HETATM   42  C27 UNL     1       8.393  30.669   2.312  1.00  0.00     0.206 C
BRANCH  42  43
HETATM   43  O6  UNL     1       7.179  30.936   1.696  1.00  0.00    -0.398 OA
ATOM     44  H6  UNL     1       6.587  31.370   2.298  1.00  0.00     0.209 HD
ENDBRANCH  42  43
ENDBRANCH  37  42
BRANCH  38  45
HETATM   45  O7  UNL     1       7.489  30.155   4.556  1.00  0.00    -0.390 OA
ATOM     46  H7  UNL     1       8.322  30.605   4.634  1.00  0.00     0.210 HD
ENDBRANCH  38  45
BRANCH  39  47
HETATM   47  O8  UNL     1       8.675  28.646   6.026  1.00  0.00    -0.388 OA
ATOM     48  H8  UNL     1       8.579  29.568   5.816  1.00  0.00     0.210 HD
ENDBRANCH  39  47
ENDBRANCH  32  34
ENDBRANCH   1  32
TORSDOF 25
ENDMDL