MODEL 3
REMARK VINA RESULT: -8.440553599      2.793      4.854
REMARK  21 active torsions:
REMARK  status: ('A' for Active; 'I' for Inactive)
REMARK    1  A    between atoms: O1_2  and  C2_3
REMARK    2  A    between atoms: C4_5  and  C5_6
REMARK    3  A    between atoms: C5_6  and  N1_7
REMARK    4  A    between atoms: N1_7  and  C6_10
REMARK    5  A    between atoms: C6_10  and  C7_11
REMARK    6  A    between atoms: C7_11  and  C8_12
REMARK    7  A    between atoms: C8_12  and  C9_13
REMARK    8  A    between atoms: C9_13  and  C10_14
REMARK    9  A    between atoms: C10_14  and  C11_15
REMARK   10  A    between atoms: C11_15  and  C12_16
REMARK   11  A    between atoms: C12_16  and  C13_17
REMARK   12  A    between atoms: C13_17  and  N2_18
REMARK   13  A    between atoms: N2_18  and  C14_20
REMARK   14  A    between atoms: C17_25  and  N4_26
REMARK   15  A    between atoms: N4_26  and  C18_28
REMARK   16  A    between atoms: C18_28  and  C19_29
REMARK   17  A    between atoms: C19_29  and  C20_30
REMARK   18  A    between atoms: C20_30  and  N5_31
REMARK   19  A    between atoms: N5_31  and  C21_33
REMARK   20  A    between atoms: C24_40  and  C25_41
REMARK   21  A    between atoms: C28_51  and  O2_52
ROOT
HETATM    1  C14 UNL     1       0.451  23.068   6.491  1.00  0.00     0.679 A
HETATM    2  N3  UNL     1       0.589  22.277   7.598  1.00  0.00    -0.202 N
ATOM      3  H3  UNL     1      -0.215  22.144   8.210  1.00  0.00     0.183 HD
HETATM    4  C15 UNL     1       1.738  21.673   7.906  1.00  0.00     0.110 A
HETATM    5  C16 UNL     1       2.842  21.824   7.109  1.00  0.00     0.066 A
HETATM    6  C17 UNL     1       2.716  22.622   5.985  1.00  0.00     0.118 A
HETATM    7  N10 UNL     1       1.531  23.217   5.711  1.00  0.00    -0.177 N
ATOM      8  H10 UNL     1       1.458  23.803   4.879  1.00  0.00     0.185 HD
ENDROOT
BRANCH   1   9
HETATM    9  N2  UNL     1      -0.671  23.611   6.263  1.00  0.00    -0.226 N
ATOM     10  H2  UNL     1      -0.977  23.666   5.291  1.00  0.00     0.177 HD
BRANCH   9  11
HETATM   11  C13 UNL     1      -1.562  24.164   7.279  1.00  0.00     0.142 C
BRANCH  11  12
HETATM   12  C12 UNL     1      -2.781  23.309   7.319  1.00  0.00     0.047 C
BRANCH  12  13
HETATM   13  C11 UNL     1      -3.947  23.724   8.081  1.00  0.00    -0.025 C
BRANCH  13  14
HETATM   14  C10 UNL     1      -4.876  22.853   8.766  1.00  0.00    -0.008 C
BRANCH  14  15
HETATM   15  C9  UNL     1      -5.355  21.543   8.438  1.00  0.00    -0.027 C
BRANCH  15  16
HETATM   16  C8  UNL     1      -4.543  20.326   8.429  1.00  0.00     0.028 C
BRANCH  16  17
HETATM   17  C7  UNL     1      -4.660  19.376   9.581  1.00  0.00     0.031 C
BRANCH  17  18
HETATM   18  C6  UNL     1      -6.040  18.988   9.975  1.00  0.00     0.233 C
BRANCH  18  19
HETATM   19  N1  UNL     1      -6.218  18.638  11.348  1.00  0.00    -0.071 N
ATOM     20  H12 UNL     1      -5.330  18.652  11.850  1.00  0.00     0.277 HD
ATOM     21  H11 UNL     1      -6.445  17.649  11.450  1.00  0.00     0.277 HD
BRANCH  19  22
HETATM   22  C5  UNL     1      -7.210  19.480  12.005  1.00  0.00     0.270 C
BRANCH  22  23
HETATM   23  C4  UNL     1      -6.605  20.652  12.643  1.00  0.00    -0.029 A
HETATM   24  C3  UNL     1      -5.910  20.622  13.837  1.00  0.00     0.048 A
HETATM   25  C2  UNL     1      -5.383  21.786  14.349  1.00  0.00     0.103 A
HETATM   26  C28 UNL     1      -5.520  23.019  13.709  1.00  0.00     0.118 A
HETATM   27  C27 UNL     1      -6.219  23.043  12.511  1.00  0.00     0.047 A
HETATM   28  C26 UNL     1      -6.733  21.879  12.021  1.00  0.00     0.030 A
HETATM   29 BR1  UNL     1      -6.436  24.684  11.592  1.00  0.00    -0.048 Br
BRANCH  25  30
HETATM   30  O1  UNL     1      -4.684  21.775  15.541  1.00  0.00    -0.353 OA
HETATM   31  C1  UNL     1      -5.325  21.706  16.799  1.00  0.00     0.210 C
ENDBRANCH  25  30
BRANCH  26  32
HETATM   32  O2  UNL     1      -4.969  24.158  14.271  1.00  0.00    -0.352 OA
HETATM   33  C29 UNL     1      -5.818  24.940  15.107  1.00  0.00     0.210 C
ENDBRANCH  26  32
ENDBRANCH  22  23
ENDBRANCH  19  22
ENDBRANCH  18  19
ENDBRANCH  17  18
ENDBRANCH  16  17
ENDBRANCH  15  16
ENDBRANCH  14  15
ENDBRANCH  13  14
ENDBRANCH  12  13
ENDBRANCH  11  12
ENDBRANCH   9  11
ENDBRANCH   1   9
BRANCH   6  34
HETATM   34  N4  UNL     1       3.707  22.811   5.206  1.00  0.00    -0.376 N
ATOM     35  H4  UNL     1       3.858  22.096   4.494  1.00  0.00     0.161 HD
BRANCH  34  36
HETATM   36  C18 UNL     1       4.629  23.893   5.205  1.00  0.00     0.126 C
BRANCH  36  37
HETATM   37  C19 UNL     1       6.001  23.410   5.673  1.00  0.00     0.064 C
BRANCH  37  38
HETATM   38  C20 UNL     1       6.933  23.533   4.483  1.00  0.00     0.064 C
BRANCH  38  39
HETATM   39  N5  UNL     1       7.018  24.762   3.850  1.00  0.00    -0.355 N
ATOM     40  H5  UNL     1       6.367  24.804   3.065  1.00  0.00     0.166 HD
BRANCH  39  41
HETATM   41  C21 UNL     1       7.646  25.829   3.950  1.00  0.00     0.120 A
HETATM   42  N6  UNL     1       7.678  26.641   5.000  1.00  0.00    -0.338 N
HETATM   43  C22 UNL     1       8.369  27.796   5.058  1.00  0.00     0.181 A
ATOM     44  H6  UNL     1       7.141  26.371   5.824  1.00  0.00     0.168 HD
HETATM   45  N7  UNL     1       9.095  28.187   3.983  1.00  0.00    -0.361 N
HETATM   46  C23 UNL     1       9.115  27.419   2.876  1.00  0.00     0.107 A
ATOM     47  H7  UNL     1       9.623  29.059   4.011  1.00  0.00     0.166 HD
HETATM   48  C24 UNL     1       8.408  26.252   2.838  1.00  0.00     0.064 A
BRANCH  48  49
HETATM   49  C25 UNL     1       8.451  25.413   1.646  1.00  0.00     0.125 C
HETATM   50  N8  UNL     1       9.473  24.648   1.434  1.00  0.00    -0.387 N
ATOM     51  H82 UNL     1      10.257  24.630   2.085  1.00  0.00     0.157 HD
ATOM     52  H81 UNL     1       9.503  24.061   0.599  1.00  0.00     0.157 HD
HETATM   53  N9  UNL     1       7.355  25.438   0.737  1.00  0.00    -0.082 NA
ENDBRANCH  48  49
ENDBRANCH  39  41
ENDBRANCH  38  39
ENDBRANCH  37  38
ENDBRANCH  36  37
ENDBRANCH  34  36
ENDBRANCH   6  34
TORSDOF 21
ENDMDL