MODEL 3
REMARK VINA RESULT: -9.730455827      1.345      1.751
REMARK  19 active torsions:
REMARK  status: ('A' for Active; 'I' for Inactive)
REMARK    1  A    between atoms: C3_5  and  N2_6
REMARK    2  A    between atoms: C4_11  and  N4_12
REMARK    3  A    between atoms: C5_15  and  C6_16
REMARK    4  A    between atoms: C6_16  and  C7_17
REMARK    5  A    between atoms: C7_17  and  C8_18
REMARK    6  A    between atoms: C9_19  and  C10_20
REMARK    7  A    between atoms: C10_20  and  C11_21
REMARK    8  A    between atoms: C11_21  and  C12_22
REMARK    9  A    between atoms: C12_22  and  C13_23
REMARK   10  A    between atoms: C16_26  and  S1_27
REMARK   11  A    between atoms: S1_27  and  N5_30
REMARK   12  A    between atoms: N5_30  and  C17_32
REMARK   13  A    between atoms: C17_32  and  C18_34
REMARK   14  A    between atoms: C18_34  and  C19_35
REMARK   15  A    between atoms: C19_35  and  C20_36
REMARK   16  A    between atoms: C20_36  and  N6_37
REMARK       I    between atoms: C21_39  and  N8_41
REMARK   17  A    between atoms: N11_49  and  C24_50
REMARK   18  A    between atoms: C24_50  and  C25_51
REMARK   19  A    between atoms: C25_51  and  C26_52
ROOT
HETATM    1  C8  UNL     1      -1.144  24.521   7.408  1.00  0.00     0.081 A
HETATM    2  C9  UNL     1       0.001  23.998   6.858  1.00  0.00     0.056 A
HETATM    3  N9  UNL     1       0.566  25.053   6.165  1.00  0.00    -0.288 N
ATOM      4  H9  UNL     1       1.434  25.009   5.632  1.00  0.00     0.188 HD
HETATM    5  N10 UNL     1      -0.171  26.101   6.299  1.00  0.00    -0.236 N
ATOM      6  H10 UNL     1       0.036  27.008   5.882  1.00  0.00     0.209 HD
HETATM    7  N11 UNL     1      -1.242  25.844   7.052  1.00  0.00    -0.255 N
ENDROOT
BRANCH   2   8
HETATM    8  C10 UNL     1       0.683  22.697   6.943  1.00  0.00     0.061 C
BRANCH   8   9
HETATM    9  C11 UNL     1       2.160  22.826   6.874  1.00  0.00     0.013 C
BRANCH   9  10
HETATM   10  C12 UNL     1       2.815  22.805   5.551  1.00  0.00     0.065 C
BRANCH  10  11
HETATM   11  C13 UNL     1       4.283  23.028   5.571  1.00  0.00     0.054 A
HETATM   12  C14 UNL     1       5.279  22.431   6.308  1.00  0.00     0.036 A
HETATM   13  C15 UNL     1       6.465  23.013   5.927  1.00  0.00     0.054 A
HETATM   14  C16 UNL     1       6.146  23.965   4.952  1.00  0.00     0.190 A
HETATM   15  O3  UNL     1       4.858  23.910   4.805  1.00  0.00    -0.302 OA
BRANCH  14  16
HETATM   16  S1  UNL     1       7.335  24.945   4.183  1.00  0.00     0.282 S
HETATM   17  O1  UNL     1       6.918  25.100   2.718  1.00  0.00    -0.198 OA
HETATM   18  O2  UNL     1       8.683  24.272   4.130  1.00  0.00    -0.198 OA
BRANCH  16  19
HETATM   19  N5  UNL     1       7.403  26.506   4.834  1.00  0.00    -0.296 N
ATOM     20  H5  UNL     1       7.019  26.721   5.754  1.00  0.00     0.174 HD
BRANCH  19  21
HETATM   21  C17 UNL     1       8.017  27.493   4.036  1.00  0.00     0.190 C
HETATM   22 CL1  UNL     1       7.520  29.146   4.690  1.00  0.00    -0.102 Cl
BRANCH  21  23
HETATM   23  C18 UNL     1       9.495  27.504   4.111  1.00  0.00     0.043 C
BRANCH  23  24
HETATM   24  C19 UNL     1      10.304  27.056   2.968  1.00  0.00     0.023 C
BRANCH  24  25
HETATM   25  C20 UNL     1       9.683  27.135   1.610  1.00  0.00     0.122 C
BRANCH  25  26
HETATM   26  N6  UNL     1       9.193  25.814   1.198  1.00  0.00    -0.365 N
HETATM   27  C21 UNL     1       9.297  25.335   0.024  1.00  0.00     0.185 C
HETATM   28  N7  UNL     1       8.780  24.045  -0.230  1.00  0.00    -0.064 NA
HETATM   29  N8  UNL     1       9.916  26.076  -1.001  1.00  0.00    -0.364 N
HETATM   30  C22 UNL     1      11.319  25.900  -1.266  1.00  0.00     0.151 C
HETATM   31  C23 UNL     1       9.165  27.016  -1.802  1.00  0.00     0.151 C
ATOM     32  H6  UNL     1       8.735  25.239   1.905  1.00  0.00     0.162 HD
ENDBRANCH  25  26
ENDBRANCH  24  25
ENDBRANCH  23  24
ENDBRANCH  21  23
ENDBRANCH  19  21
ENDBRANCH  16  19
ENDBRANCH  14  16
ENDBRANCH  10  11
ENDBRANCH   9  10
ENDBRANCH   8   9
ENDBRANCH   2   8
BRANCH   1  33
HETATM   33  C7  UNL     1      -2.098  23.841   8.261  1.00  0.00     0.034 C
BRANCH  33  34
HETATM   34  C6  UNL     1      -3.424  23.406   7.817  1.00  0.00     0.020 C
BRANCH  34  35
HETATM   35  C5  UNL     1      -4.013  22.143   8.182  1.00  0.00     0.031 A
HETATM   36  C2  UNL     1      -3.657  20.908   7.725  1.00  0.00     0.036 A
HETATM   37  C1  UNL     1      -2.469  20.706   6.816  1.00  0.00     0.070 C
HETATM   38  N1  UNL     1      -4.333  19.804   8.128  1.00  0.00    -0.195 N
HETATM   39  C3  UNL     1      -5.351  19.878   8.973  1.00  0.00     0.677 A
ATOM     40  H1  UNL     1      -4.050  18.891   7.770  1.00  0.00     0.184 HD
HETATM   41  N3  UNL     1      -5.716  21.080   9.439  1.00  0.00    -0.176 N
HETATM   42  C4  UNL     1      -5.094  22.204   9.081  1.00  0.00     0.127 A
ATOM     43  H3  UNL     1      -6.497  21.138  10.092  1.00  0.00     0.186 HD
BRANCH  39  44
HETATM   44  N2  UNL     1      -6.002  18.812   9.359  1.00  0.00    -0.234 N
ATOM     45  H22 UNL     1      -6.357  18.158   8.662  1.00  0.00     0.174 HD
ATOM     46  H21 UNL     1      -6.166  18.613  10.346  1.00  0.00     0.174 HD
ENDBRANCH  39  44
BRANCH  42  47
HETATM   47  N4  UNL     1      -5.480  23.360   9.561  1.00  0.00    -0.384 N
ATOM     48  H42 UNL     1      -6.166  23.394  10.315  1.00  0.00     0.157 HD
ATOM     49  H41 UNL     1      -5.101  24.229   9.185  1.00  0.00     0.157 HD
ENDBRANCH  42  47
ENDBRANCH  34  35
ENDBRANCH  33  34
ENDBRANCH   1  33
BRANCH   7  50
HETATM   50  C24 UNL     1      -2.230  26.760   7.431  1.00  0.00     0.091 C
BRANCH  50  51
HETATM   51  C25 UNL     1      -1.968  28.157   7.762  1.00  0.00     0.050 C
BRANCH  51  52
HETATM   52  C26 UNL     1      -1.833  29.171   6.684  1.00  0.00    -0.018 C
HETATM   53  C27 UNL     1      -0.632  30.085   7.061  1.00  0.00     0.010 C
HETATM   54  C28 UNL     1      -3.002  30.117   6.625  1.00  0.00     0.010 C
ENDBRANCH  51  52
ENDBRANCH  50  51
ENDBRANCH   7  50
TORSDOF 19
ENDMDL