MODEL 3
REMARK VINA RESULT: -7.624133030      3.431      7.431
REMARK  21 active torsions:
REMARK  status: ('A' for Active; 'I' for Inactive)
REMARK    1  A    between atoms: C2_2  and  C3_3
REMARK    2  A    between atoms: C3_3  and  C4_4
REMARK    3  A    between atoms: C4_4  and  C5_5
REMARK    4  A    between atoms: C5_5  and  C6_6
REMARK    5  A    between atoms: C6_6  and  C7_7
REMARK    6  A    between atoms: C7_7  and  C8_8
REMARK    7  A    between atoms: C8_8  and  C9_9
REMARK       I    between atoms: C9_9  and  N1_11
REMARK    8  A    between atoms: N1_11  and  C10_13
REMARK    9  A    between atoms: C10_13  and  C11_14
REMARK   10  A    between atoms: C10_13  and  C12_17
REMARK   11  A    between atoms: C11_14  and  O2_15
REMARK   12  A    between atoms: C13_18  and  O3_19
REMARK   13  A    between atoms: C14_23  and  C15_24
REMARK   14  A    between atoms: C15_24  and  C16_26
REMARK   15  A    between atoms: C22_36  and  O6_37
REMARK   16  A    between atoms: C23_39  and  O7_40
REMARK   17  A    between atoms: C24_42  and  O8_43
REMARK   18  A    between atoms: O8_43  and  C25_44
REMARK   19  A    between atoms: C25_44  and  C27_46
REMARK   20  A    between atoms: C27_46  and  C28_47
REMARK   21  A    between atoms: C28_47  and  C29_48
ROOT
HETATM    1  C12 UNL     1       8.691  27.197   3.572  1.00  0.00     0.053 C
HETATM    2  C13 UNL     1      10.066  27.533   3.195  1.00  0.00     0.147 C
HETATM    3  N2  UNL     1      10.742  28.673   2.797  1.00  0.00    -0.359 N
ATOM      4  H2  UNL     1      11.350  29.004   3.546  1.00  0.00     0.162 HD
HETATM    5  C14 UNL     1      10.850  29.536   1.650  1.00  0.00     0.155 C
HETATM    6  C17 UNL     1       9.924  29.387   0.526  1.00  0.00     0.042 C
HETATM    7  C18 UNL     1      10.625  28.902  -0.752  1.00  0.00     0.105 C
HETATM    8  C19 UNL     1       9.642  28.611  -1.818  1.00  0.00     0.217 C
HETATM    9  O5  UNL     1       9.208  29.596  -2.488  1.00  0.00    -0.274 OA
HETATM   10  N3  UNL     1       9.144  27.332  -2.158  1.00  0.00    -0.361 N
ATOM     11  H3  UNL     1       8.342  27.299  -2.788  1.00  0.00     0.162 HD
HETATM   12  C20 UNL     1       9.664  26.071  -1.695  1.00  0.00     0.125 C
HETATM   13  C21 UNL     1       8.698  25.347  -0.751  1.00  0.00     0.058 C
HETATM   14  C22 UNL     1       9.126  25.534   0.715  1.00  0.00     0.179 C
HETATM   15  C23 UNL     1       7.921  25.756   1.525  1.00  0.00     0.106 C
HETATM   16  C24 UNL     1       7.927  26.126   2.922  1.00  0.00     0.113 C
ENDROOT
BRANCH   1  17
HETATM   17  C10 UNL     1       7.917  28.317   4.220  1.00  0.00     0.148 C
BRANCH  17  18
HETATM   18  N1  UNL     1       8.486  28.494   5.563  1.00  0.00    -0.350 N
HETATM   19  C9  UNL     1       7.777  29.047   6.658  1.00  0.00     0.218 C
HETATM   20  O1  UNL     1       6.582  29.449   6.578  1.00  0.00    -0.274 OA
ATOM     21  H1  UNL     1       9.451  28.200   5.716  1.00  0.00     0.163 HD
BRANCH  19  22
HETATM   22  C8  UNL     1       8.418  29.186   8.001  1.00  0.00     0.103 C
BRANCH  22  23
HETATM   23  C7  UNL     1       7.531  29.976   8.968  1.00  0.00     0.009 C
BRANCH  23  24
HETATM   24  C6  UNL     1       7.143  29.028  10.049  1.00  0.00     0.000 C
BRANCH  24  25
HETATM   25  C5  UNL     1       8.259  28.042  10.369  1.00  0.00     0.000 C
BRANCH  25  26
HETATM   26  C4  UNL     1       8.464  27.955  11.833  1.00  0.00     0.000 C
BRANCH  26  27
HETATM   27  C3  UNL     1       9.742  28.517  12.314  1.00  0.00    -0.000 C
BRANCH  27  28
HETATM   28  C2  UNL     1      10.608  29.308  11.427  1.00  0.00    -0.005 C
HETATM   29  C1  UNL     1      10.366  30.777  11.361  1.00  0.00     0.005 C
ENDBRANCH  27  28
ENDBRANCH  26  27
ENDBRANCH  25  26
ENDBRANCH  24  25
ENDBRANCH  23  24
ENDBRANCH  22  23
ENDBRANCH  19  22
ENDBRANCH  17  18
BRANCH  17  30
HETATM   30  C11 UNL     1       7.716  29.604   3.581  1.00  0.00     0.194 C
BRANCH  30  31
HETATM   31  O2  UNL     1       7.160  29.614   2.311  1.00  0.00    -0.398 OA
ATOM     32  H2  UNL     1       7.361  28.885   1.734  1.00  0.00     0.209 HD
ENDBRANCH  30  31
ENDBRANCH  17  30
ENDBRANCH   1  17
BRANCH   2  33
HETATM   33  O3  UNL     1      10.875  26.498   3.255  1.00  0.00    -0.346 OA
ATOM     34  H3  UNL     1      11.026  26.200   4.144  1.00  0.00     0.219 HD
ENDBRANCH   2  33
BRANCH  16  35
HETATM   35  O8  UNL     1       7.968  24.901   3.665  1.00  0.00    -0.343 OA
BRANCH  35  36
HETATM   36  C25 UNL     1       7.292  24.977   4.881  1.00  0.00     0.125 C
HETATM   37  C26 UNL     1       7.791  23.902   5.843  1.00  0.00     0.040 C
BRANCH  36  38
HETATM   38  C27 UNL     1       5.863  24.643   4.616  1.00  0.00     0.032 C
BRANCH  38  39
HETATM   39  C28 UNL     1       5.283  23.417   5.161  1.00  0.00     0.007 C
BRANCH  39  40
HETATM   40  C29 UNL     1       4.096  23.413   6.004  1.00  0.00    -0.014 C
HETATM   41  C30 UNL     1       3.963  22.162   6.885  1.00  0.00     0.004 C
HETATM   42  C31 UNL     1       2.570  22.258   7.454  1.00  0.00     0.000 C
HETATM   43  C32 UNL     1       1.876  23.413   6.762  1.00  0.00     0.000 C
HETATM   44  C33 UNL     1       2.748  23.654   5.494  1.00  0.00     0.004 C
ENDBRANCH  39  40
ENDBRANCH  38  39
ENDBRANCH  36  38
ENDBRANCH  35  36
ENDBRANCH  16  35
BRANCH  15  45
HETATM   45  O7  UNL     1       6.999  26.442   0.698  1.00  0.00    -0.359 OA
ATOM     46  H7  UNL     1       6.313  25.822   0.483  1.00  0.00     0.217 HD
ENDBRANCH  15  45
BRANCH   5  47
HETATM   47  C15 UNL     1      10.984  30.979   2.087  1.00  0.00     0.163 C
HETATM   48  O4  UNL     1      11.061  31.174   3.283  1.00  0.00    -0.294 OA
BRANCH  47  49
HETATM   49  C16 UNL     1      11.020  32.055   1.122  1.00  0.00     0.195 C
HETATM   50 CL1  UNL     1      12.611  32.101   0.279  1.00  0.00    -0.122 Cl
ENDBRANCH  47  49
ENDBRANCH   5  47
BRANCH  14  51
HETATM   51  O6  UNL     1       9.790  24.330   1.006  1.00  0.00    -0.389 OA
ATOM     52  H6  UNL     1      10.597  24.623   1.412  1.00  0.00     0.210 HD
ENDBRANCH  14  51
TORSDOF 21
ENDMDL