MODEL 4
REMARK VINA RESULT: -7.916956014      3.240      5.654
REMARK  21 active torsions:
REMARK  status: ('A' for Active; 'I' for Inactive)
REMARK    1  A    between atoms: C4_4  and  N1_5
REMARK       I    between atoms: N1_5  and  C5_7
REMARK    2  A    between atoms: C5_7  and  C6_9
REMARK    3  A    between atoms: C6_9  and  N2_10
REMARK    4  A    between atoms: N2_10  and  C7_13
REMARK    5  A    between atoms: C7_13  and  C8_14
REMARK    6  A    between atoms: C8_14  and  C9_15
REMARK    7  A    between atoms: C9_15  and  N3_16
REMARK    8  A    between atoms: N3_16  and  C10_18
REMARK    9  A    between atoms: C10_18  and  C11_19
REMARK   10  A    between atoms: C11_19  and  C12_20
REMARK   11  A    between atoms: C12_20  and  C13_21
REMARK   12  A    between atoms: C13_21  and  C14_22
REMARK   13  A    between atoms: C14_22  and  C15_23
REMARK   14  A    between atoms: C15_23  and  N4_24
REMARK   15  A    between atoms: N4_24  and  C16_26
REMARK   16  A    between atoms: C16_26  and  C17_27
REMARK   17  A    between atoms: C17_27  and  C18_28
REMARK   18  A    between atoms: C18_28  and  N5_29
REMARK   19  A    between atoms: N5_29  and  C19_31
REMARK   20  A    between atoms: C19_31  and  N6_33
REMARK   21  A    between atoms: N6_33  and  C20_35
ROOT
HETATM    1  C14 UNL     1       7.690  23.894   4.319  1.00  0.00     0.019 C
ENDROOT
BRANCH   1   2
HETATM    2  C13 UNL     1       6.379  23.972   5.060  1.00  0.00     0.002 C
BRANCH   2   3
HETATM    3  C12 UNL     1       6.183  22.788   5.924  1.00  0.00     0.002 C
BRANCH   3   4
HETATM    4  C11 UNL     1       4.737  22.546   6.239  1.00  0.00     0.020 C
BRANCH   4   5
HETATM    5  C10 UNL     1       3.893  23.433   5.290  1.00  0.00     0.118 C
BRANCH   5   6
HETATM    6  N3  UNL     1       2.563  23.152   5.542  1.00  0.00    -0.402 N
ATOM      7  H3  UNL     1       2.198  22.294   5.130  1.00  0.00     0.158 HD
BRANCH   6   8
HETATM    8  C9  UNL     1       1.668  23.902   6.287  1.00  0.00     0.057 C
BRANCH   8   9
HETATM    9  C8  UNL     1       0.244  23.921   5.911  1.00  0.00     0.071 C
BRANCH   9  10
HETATM   10  C7  UNL     1      -0.696  24.273   6.998  1.00  0.00     0.238 C
BRANCH  10  11
HETATM   11  N2  UNL     1      -1.741  23.246   7.153  1.00  0.00    -0.067 N
ATOM     12  H22 UNL     1      -2.558  23.480   6.588  1.00  0.00     0.277 HD
ATOM     13  H21 UNL     1      -2.155  23.295   8.083  1.00  0.00     0.277 HD
BRANCH  11  14
HETATM   14  C6  UNL     1      -1.301  21.925   6.870  1.00  0.00     0.335 C
BRANCH  14  15
HETATM   15  C5  UNL     1      -2.408  20.953   6.949  1.00  0.00     0.248 C
HETATM   16  N1  UNL     1      -3.116  20.747   8.195  1.00  0.00    -0.310 N
ATOM     17  H1  UNL     1      -2.613  20.476   9.040  1.00  0.00     0.170 HD
HETATM   18  O1  UNL     1      -2.829  20.240   6.003  1.00  0.00    -0.271 OA
BRANCH  16  19
HETATM   19  C4  UNL     1      -4.385  20.912   8.214  1.00  0.00     0.130 A
HETATM   20  C3  UNL     1      -5.168  21.781   8.921  1.00  0.00     0.084 A
HETATM   21  C2  UNL     1      -6.491  21.544   8.546  1.00  0.00     0.076 A
HETATM   22  C1  UNL     1      -7.679  22.277   9.078  1.00  0.00     0.079 C
HETATM   23  O2  UNL     1      -6.440  20.585   7.670  1.00  0.00    -0.241 OA
HETATM   24  N9  UNL     1      -5.230  20.188   7.449  1.00  0.00    -0.245 N
ATOM     25  H9  UNL     1      -4.957  19.449   6.801  1.00  0.00     0.196 HD
ENDBRANCH  16  19
ENDBRANCH  14  15
ENDBRANCH  11  14
ENDBRANCH  10  11
ENDBRANCH   9  10
ENDBRANCH   8   9
ENDBRANCH   6   8
ENDBRANCH   5   6
ENDBRANCH   4   5
ENDBRANCH   3   4
ENDBRANCH   2   3
ENDBRANCH   1   2
BRANCH   1  26
HETATM   26  C15 UNL     1       7.736  24.942   3.254  1.00  0.00     0.113 C
BRANCH  26  27
HETATM   27  N4  UNL     1       8.690  24.632   2.261  1.00  0.00    -0.421 N
ATOM     28  H4  UNL     1       9.470  23.997   2.433  1.00  0.00     0.153 HD
BRANCH  27  29
HETATM   29  C16 UNL     1       8.488  25.267   1.000  1.00  0.00     0.115 C
BRANCH  29  30
HETATM   30  C17 UNL     1       9.245  24.541  -0.078  1.00  0.00     0.039 C
BRANCH  30  31
HETATM   31  C18 UNL     1      10.205  25.372  -0.848  1.00  0.00     0.123 C
BRANCH  31  32
HETATM   32  N5  UNL     1      11.424  25.746  -0.233  1.00  0.00    -0.367 N
ATOM     33  H5  UNL     1      11.955  24.999   0.214  1.00  0.00     0.161 HD
BRANCH  32  34
HETATM   34  C19 UNL     1      11.987  27.050  -0.172  1.00  0.00     0.173 C
HETATM   35  S1  UNL     1      13.322  27.337  -1.112  1.00  0.00    -0.041 SA
BRANCH  34  36
HETATM   36  N6  UNL     1      11.538  28.118   0.594  1.00  0.00    -0.318 N
ATOM     37  H6  UNL     1      12.240  28.841   0.749  1.00  0.00     0.170 HD
BRANCH  36  38
HETATM   38  C20 UNL     1      10.421  28.363   1.136  1.00  0.00     0.128 A
HETATM   39  N7  UNL     1      10.309  28.166   2.483  1.00  0.00    -0.337 N
HETATM   40  C21 UNL     1       9.103  28.454   2.993  1.00  0.00     0.182 A
ATOM     41  H7  UNL     1      11.082  27.826   3.056  1.00  0.00     0.168 HD
HETATM   42  N8  UNL     1       8.069  28.895   2.301  1.00  0.00    -0.351 N
HETATM   43  C22 UNL     1       8.139  29.106   0.944  1.00  0.00     0.055 A
ATOM     44  H8  UNL     1       7.192  29.085   2.788  1.00  0.00     0.166 HD
HETATM   45  C23 UNL     1       7.160  29.550   0.136  1.00  0.00     0.057 A
HETATM   46  C25 UNL     1       9.351  28.827   0.372  1.00  0.00     0.077 A
HETATM   47  C24 UNL     1       7.453  29.687  -1.192  1.00  0.00     0.054 A
HETATM   48 BR1  UNL     1       6.276  30.300  -2.595  1.00  0.00    -0.043 Br
HETATM   49  S2  UNL     1       9.080  29.195  -1.278  1.00  0.00    -0.077 SA
ENDBRANCH  36  38
ENDBRANCH  34  36
ENDBRANCH  32  34
ENDBRANCH  31  32
ENDBRANCH  30  31
ENDBRANCH  29  30
ENDBRANCH  27  29
ENDBRANCH  26  27
ENDBRANCH   1  26
TORSDOF 21
ENDMDL