MODEL 2
REMARK VINA RESULT: -8.529213540      4.747     14.906
REMARK  23 active torsions:
REMARK  status: ('A' for Active; 'I' for Inactive)
REMARK    1  A    between atoms: C2_2  and  N1_3
REMARK    2  A    between atoms: C3_4  and  C4_5
REMARK    3  A    between atoms: C4_5  and  N2_6
REMARK    4  A    between atoms: N2_6  and  C5_8
REMARK    5  A    between atoms: C7_12  and  C8_13
REMARK       I    between atoms: N4_15  and  C9_16
REMARK    6  A    between atoms: C9_16  and  C10_18
REMARK    7  A    between atoms: C16_24  and  C17_25
REMARK    8  A    between atoms: C17_25  and  O2_26
REMARK    9  A    between atoms: C17_25  and  C18_28
REMARK   10  A    between atoms: C19_29  and  C20_30
REMARK   11  A    between atoms: C20_30  and  C22_32
REMARK   12  A    between atoms: C22_32  and  O3_33
REMARK   13  A    between atoms: C22_32  and  C23_35
REMARK   14  A    between atoms: C23_35  and  C24_36
REMARK   15  A    between atoms: C26_38  and  N5_39
REMARK   16  A    between atoms: N5_39  and  C27_40
REMARK   17  A    between atoms: N5_39  and  C29_42
REMARK   18  A    between atoms: N5_39  and  C30_45
REMARK   19  A    between atoms: C29_42  and  O4_43
REMARK   20  A    between atoms: C30_45  and  C31_46
REMARK   21  A    between atoms: C31_46  and  C32_47
REMARK   22  A    between atoms: C32_47  and  O5_48
REMARK   23  A    between atoms: C33_50  and  O6_51
ROOT
HETATM    1  C17 UNL     1       8.602  24.688   2.817  1.00  0.00     0.159 C
ENDROOT
BRANCH   1   2
HETATM    2  C16 UNL     1       8.821  26.006   2.171  1.00  0.00     0.095 C
HETATM    3  N1  UNL     1       9.363  25.890   0.826  1.00  0.00    -0.279 NA
HETATM    4  C3  UNL     1       9.417  27.176   0.236  1.00  0.00     0.004 C
HETATM    5  C13 UNL     1      10.479  27.979   0.940  1.00  0.00     0.052 C
HETATM    6  C14 UNL     1      10.924  27.264   2.211  1.00  0.00     0.007 C
HETATM    7  C15 UNL     1       9.702  26.859   3.008  1.00  0.00     0.023 C
BRANCH   3   8
HETATM    8  C2  UNL     1       8.780  24.832   0.081  1.00  0.00     0.091 C
HETATM    9  C1  UNL     1       9.769  23.966  -0.661  1.00  0.00     0.021 C
ENDBRANCH   3   8
BRANCH   4  10
HETATM   10  C4  UNL     1       9.306  27.342  -1.214  1.00  0.00     0.125 C
BRANCH  10  11
HETATM   11  N2  UNL     1      10.418  27.311  -2.068  1.00  0.00    -0.200 N
ATOM     12  H2  UNL     1      11.087  28.065  -1.911  1.00  0.00     0.183 HD
BRANCH  11  13
HETATM   13  C5  UNL     1      10.777  26.425  -3.107  1.00  0.00     0.683 C
HETATM   14  N3  UNL     1       9.920  26.123  -4.032  1.00  0.00    -0.224 N
HETATM   15  C6  UNL     1      10.469  25.208  -4.993  1.00  0.00     0.166 C
ATOM     16  H3  UNL     1       8.971  26.492  -4.073  1.00  0.00     0.177 HD
HETATM   17  C7  UNL     1      11.658  24.604  -4.195  1.00  0.00     0.158 C
HETATM   18  N4  UNL     1      11.992  25.765  -3.394  1.00  0.00    -0.142 N
HETATM   19  C9  UNL     1      13.274  26.168  -2.995  1.00  0.00     0.242 C
HETATM   20  O1  UNL     1      14.261  25.414  -3.353  1.00  0.00    -0.272 OA
BRANCH  17  21
HETATM   21  C8  UNL     1      12.694  24.158  -5.168  1.00  0.00     0.250 C
HETATM   22  F1  UNL     1      12.175  23.338  -6.141  1.00  0.00    -0.253 F
ENDBRANCH  17  21
BRANCH  19  23
HETATM   23  C10 UNL     1      13.661  27.346  -2.210  1.00  0.00     0.071 C
HETATM   24  C11 UNL     1      13.904  27.013  -0.761  1.00  0.00     0.019 C
HETATM   25  C12 UNL     1      14.969  27.958  -2.731  1.00  0.00     0.019 C
ENDBRANCH  19  23
ENDBRANCH  11  13
ENDBRANCH  10  11
ENDBRANCH   4  10
ENDBRANCH   1   2
BRANCH   1  26
HETATM   26  O2  UNL     1       9.643  24.364   3.718  1.00  0.00    -0.390 OA
ATOM     27  H2  UNL     1      10.330  23.859   3.297  1.00  0.00     0.210 HD
ENDBRANCH   1  26
BRANCH   1  28
HETATM   28  C18 UNL     1       7.318  24.684   3.554  1.00  0.00     0.003 C
HETATM   29  C19 UNL     1       7.077  24.014   4.645  1.00  0.00    -0.021 C
BRANCH  29  30
HETATM   30  C20 UNL     1       5.791  24.015   5.382  1.00  0.00     0.033 C
HETATM   31  C21 UNL     1       4.747  24.568   4.449  1.00  0.00     0.017 C
BRANCH  30  32
HETATM   32  C22 UNL     1       5.408  22.737   6.019  1.00  0.00     0.126 C
BRANCH  32  33
HETATM   33  O3  UNL     1       6.237  21.658   5.720  1.00  0.00    -0.395 OA
ATOM     34  H3  UNL     1       5.940  20.818   6.052  1.00  0.00     0.210 HD
ENDBRANCH  32  33
BRANCH  32  35
HETATM   35  C23 UNL     1       4.013  22.299   5.604  1.00  0.00     0.039 C
BRANCH  35  36
HETATM   36  C24 UNL     1       3.162  22.407   6.825  1.00  0.00     0.021 C
HETATM   37  C25 UNL     1       2.005  21.393   6.910  1.00  0.00     0.043 C
HETATM   38  C26 UNL     1       1.275  22.542   7.621  1.00  0.00     0.222 C
HETATM   39  C33 UNL     1       2.036  23.453   6.706  1.00  0.00     0.153 C
BRANCH  38  40
HETATM   40  N5  UNL     1      -0.126  22.520   7.637  1.00  0.00    -0.040 N
BRANCH  40  41
HETATM   41  C27 UNL     1      -0.762  22.002   6.451  1.00  0.00     0.236 C
HETATM   42  C28 UNL     1      -1.867  21.042   6.879  1.00  0.00     0.035 C
ENDBRANCH  40  41
BRANCH  40  43
HETATM   43  C29 UNL     1      -0.533  21.591   8.716  1.00  0.00     0.402 C
BRANCH  43  44
HETATM   44  O4  UNL     1       0.273  21.798   9.834  1.00  0.00    -0.374 OA
ATOM     45  H4  UNL     1      -0.147  21.424  10.599  1.00  0.00     0.211 HD
ENDBRANCH  43  44
ENDBRANCH  40  43
BRANCH  40  46
HETATM   46  C30 UNL     1      -0.624  23.804   8.064  1.00  0.00     0.242 C
BRANCH  46  47
HETATM   47  C31 UNL     1      -1.548  24.438   7.067  1.00  0.00     0.054 C
BRANCH  47  48
HETATM   48  C32 UNL     1      -1.033  25.821   6.649  1.00  0.00     0.165 C
BRANCH  48  49
HETATM   49  O5  UNL     1      -0.147  25.711   5.583  1.00  0.00    -0.401 OA
ATOM     50  H5  UNL     1      -0.443  26.236   4.848  1.00  0.00     0.209 HD
ENDBRANCH  48  49
ENDBRANCH  47  48
ENDBRANCH  46  47
ENDBRANCH  40  46
ENDBRANCH  38  40
BRANCH  39  51
HETATM   51  O6  UNL     1       1.641  23.514   5.396  1.00  0.00    -0.393 OA
ATOM     52  H6  UNL     1       0.696  23.611   5.374  1.00  0.00     0.210 HD
ENDBRANCH  39  51
ENDBRANCH  35  36
ENDBRANCH  32  35
ENDBRANCH  30  32
ENDBRANCH  29  30
ENDBRANCH   1  28
TORSDOF 23
ENDMDL