MODEL 3
REMARK VINA RESULT: -8.014898898      2.613      4.641
REMARK  18 active torsions:
REMARK  status: ('A' for Active; 'I' for Inactive)
REMARK    1  A    between atoms: C2_2  and  C3_3
REMARK    2  A    between atoms: C2_2  and  N2_10
REMARK    3  A    between atoms: C3_3  and  C4_4
REMARK    4  A    between atoms: C4_4  and  C5_5
REMARK    5  A    between atoms: C5_5  and  N1_6
REMARK    6  A    between atoms: N2_10  and  C6_12
REMARK    7  A    between atoms: C6_12  and  C7_13
REMARK    8  A    between atoms: C7_13  and  C8_14
REMARK    9  A    between atoms: C8_14  and  C9_15
REMARK   10  A    between atoms: C9_15  and  C10_16
REMARK   11  A    between atoms: C10_16  and  C11_17
REMARK   12  A    between atoms: C11_17  and  C12_18
REMARK   13  A    between atoms: C12_18  and  N3_19
REMARK   14  A    between atoms: N7_27  and  C16_28
REMARK   15  A    between atoms: N9_38  and  C23_39
REMARK   16  A    between atoms: C23_39  and  C24_40
REMARK   17  A    between atoms: C24_40  and  C25_41
REMARK   18  A    between atoms: C25_41  and  O1_42
ROOT
HETATM    1  C9  UNL     1       8.730  28.557   1.473  1.00  0.00     0.005 C
HETATM    2  N6  UNL     1       9.301  27.452   2.035  1.00  0.00    -0.361 N
HETATM    3  C14 UNL     1       9.722  27.378   3.389  1.00  0.00     0.145 C
HETATM    4  C15 UNL     1       9.665  25.955   3.949  1.00  0.00     0.152 C
HETATM    5  N7  UNL     1       8.589  25.253   3.283  1.00  0.00    -0.314 N
HETATM    6  C26 UNL     1       8.694  25.215   1.846  1.00  0.00     0.258 C
HETATM    7  O2  UNL     1       8.077  24.406   1.153  1.00  0.00    -0.270 OA
HETATM    8  C27 UNL     1       9.624  26.258   1.318  1.00  0.00     0.250 C
HETATM    9 BR1  UNL     1       9.921  26.279  -0.512  1.00  0.00    -0.058 Br
ENDROOT
BRANCH   1  10
HETATM   10  C8  UNL     1       9.548  29.766   1.231  1.00  0.00    -0.000 C
BRANCH  10  11
HETATM   11  C7  UNL     1      10.996  29.717   0.992  1.00  0.00     0.048 C
BRANCH  11  12
HETATM   12  C6  UNL     1      11.438  29.816  -0.450  1.00  0.00     0.118 C
BRANCH  12  13
HETATM   13  N2  UNL     1      12.508  28.887  -0.670  1.00  0.00    -0.417 N
ATOM     14  H2  UNL     1      12.745  28.161   0.005  1.00  0.00     0.153 HD
BRANCH  13  15
HETATM   15  C2  UNL     1      13.215  29.047  -1.891  1.00  0.00     0.072 C
HETATM   16  C1  UNL     1      13.886  30.402  -1.949  1.00  0.00     0.031 C
BRANCH  15  17
HETATM   17  C3  UNL     1      14.215  27.922  -2.049  1.00  0.00     0.026 C
BRANCH  17  18
HETATM   18  C4  UNL     1      14.226  26.963  -0.905  1.00  0.00     0.029 C
BRANCH  18  19
HETATM   19  C5  UNL     1      15.664  26.616  -0.496  1.00  0.00     0.230 C
BRANCH  19  20
HETATM   20  N1  UNL     1      16.524  27.695  -0.914  1.00  0.00    -0.079 N
ATOM     21  H13 UNL     1      16.024  28.419  -1.430  1.00  0.00     0.274 HD
ATOM     22  H12 UNL     1      16.838  28.272  -0.134  1.00  0.00     0.274 HD
ATOM     23  H11 UNL     1      17.299  27.297  -1.445  1.00  0.00     0.274 HD
ENDBRANCH  19  20
ENDBRANCH  18  19
ENDBRANCH  17  18
ENDBRANCH  15  17
ENDBRANCH  13  15
ENDBRANCH  12  13
ENDBRANCH  11  12
ENDBRANCH  10  11
ENDBRANCH   1  10
BRANCH   1  24
HETATM   24  C10 UNL     1       7.810  28.268   0.280  1.00  0.00     0.058 C
BRANCH  24  25
HETATM   25  C11 UNL     1       7.001  29.527  -0.100  1.00  0.00     0.026 C
BRANCH  25  26
HETATM   26  C12 UNL     1       7.127  29.708  -1.614  1.00  0.00     0.122 C
BRANCH  26  27
HETATM   27  N3  UNL     1       8.365  29.163  -2.104  1.00  0.00    -0.367 N
HETATM   28  C13 UNL     1       8.487  28.899  -3.353  1.00  0.00     0.196 C
HETATM   29  N4  UNL     1       9.677  28.358  -3.917  1.00  0.00    -0.067 NA
HETATM   30  N5  UNL     1       7.388  29.152  -4.232  1.00  0.00    -0.067 NA
ATOM     31  H3  UNL     1       9.140  28.989  -1.463  1.00  0.00     0.161 HD
ENDBRANCH  26  27
ENDBRANCH  25  26
ENDBRANCH  24  25
ENDBRANCH   1  24
BRANCH   5  32
HETATM   32  C16 UNL     1       7.505  24.631   3.952  1.00  0.00     0.039 A
HETATM   33  C17 UNL     1       7.667  23.562   4.805  1.00  0.00     0.032 A
HETATM   34  C18 UNL     1       6.578  22.980   5.441  1.00  0.00     0.034 A
HETATM   35  C19 UNL     1       5.303  23.462   5.232  1.00  0.00     0.063 A
HETATM   36  C20 UNL     1       5.131  24.532   4.381  1.00  0.00     0.063 A
HETATM   37  N9  UNL     1       4.093  23.089   5.715  1.00  0.00    -0.322 N
HETATM   38  C21 UNL     1       6.230  25.107   3.749  1.00  0.00     0.061 A
HETATM   39  N8  UNL     1       3.810  24.769   4.378  1.00  0.00    -0.331 N
HETATM   40  C22 UNL     1       3.169  23.901   5.185  1.00  0.00     0.179 A
ATOM     41  H8  UNL     1       3.355  25.506   3.840  1.00  0.00     0.168 HD
HETATM   42  S1  UNL     1       1.555  23.936   5.407  1.00  0.00    -0.040 SA
BRANCH  37  43
HETATM   43  C23 UNL     1       3.858  22.029   6.636  1.00  0.00     0.134 C
BRANCH  43  44
HETATM   44  C24 UNL     1       2.845  22.296   7.699  1.00  0.00     0.046 C
BRANCH  44  45
HETATM   45  C25 UNL     1       1.707  21.335   7.766  1.00  0.00     0.165 C
BRANCH  45  46
HETATM   46  O1  UNL     1       0.704  21.939   8.561  1.00  0.00    -0.401 OA
ATOM     47  H1  UNL     1       0.124  22.404   7.969  1.00  0.00     0.209 HD
ENDBRANCH  45  46
ENDBRANCH  44  45
ENDBRANCH  43  44
ENDBRANCH  37  43
ENDBRANCH   5  32
TORSDOF 18
ENDMDL