MODEL 5
REMARK VINA RESULT: -7.775459795      4.313      7.369
REMARK  6 active torsions:
REMARK  status: ('A' for Active; 'I' for Inactive)
REMARK       I    between atoms: C1_2  and  N1_3
REMARK    1  A    between atoms: C1_2  and  C17_21
REMARK    2  A    between atoms: N1_3  and  C2_5
REMARK    3  A    between atoms: C2_5  and  C3_6
REMARK    4  A    between atoms: N2_9  and  C6_10
REMARK    5  A    between atoms: C6_10  and  C7_11
REMARK    6  A    between atoms: C7_11  and  C8_12
ROOT
HETATM    1  C3  UNL     1      -5.728  23.650  -1.821  1.00  0.00     0.027 C
HETATM    2  C4  UNL     1      -6.386  22.889  -2.903  1.00  0.00     0.029 C
HETATM    3  C5  UNL     1      -5.991  21.391  -2.769  1.00  0.00     0.117 C
HETATM    4  N2  UNL     1      -6.669  20.893  -1.621  1.00  0.00    -0.412 N
HETATM    5  C15 UNL     1      -6.730  21.760  -0.495  1.00  0.00     0.117 C
HETATM    6  C16 UNL     1      -5.605  22.757  -0.571  1.00  0.00     0.029 C
ENDROOT
BRANCH   1   7
HETATM    7  C2  UNL     1      -6.260  24.969  -1.418  1.00  0.00     0.068 C
BRANCH   7   8
HETATM    8  N1  UNL     1      -5.728  25.651  -0.307  1.00  0.00    -0.338 N
HETATM    9  C1  UNL     1      -4.469  26.205  -0.102  1.00  0.00     0.250 C
HETATM   10  O1  UNL     1      -3.552  26.199  -0.939  1.00  0.00    -0.270 OA
ATOM     11  H1  UNL     1      -6.372  25.757   0.476  1.00  0.00     0.167 HD
BRANCH   9  12
HETATM   12  C17 UNL     1      -4.119  26.873   1.205  1.00  0.00     0.213 C
HETATM   13  C18 UNL     1      -3.075  26.125   1.970  1.00  0.00     0.044 C
HETATM   14  C19 UNL     1      -3.210  26.782   3.349  1.00  0.00     0.029 C
HETATM   15  C20 UNL     1      -4.588  27.410   3.231  1.00  0.00     0.168 C
HETATM   16  O2  UNL     1      -5.175  26.900   2.086  1.00  0.00    -0.376 OA
ENDBRANCH   9  12
ENDBRANCH   7   8
ENDBRANCH   1   7
BRANCH   4  17
HETATM   17  C6  UNL     1      -6.491  19.504  -1.357  1.00  0.00     0.117 C
BRANCH  17  18
HETATM   18  C7  UNL     1      -7.643  18.745  -1.956  1.00  0.00     0.024 C
BRANCH  18  19
HETATM   19  C8  UNL     1      -8.548  18.106  -0.915  1.00  0.00    -0.013 C
HETATM   20  C9  UNL     1      -7.972  18.315   0.441  1.00  0.00     0.005 C
HETATM   21  C10 UNL     1      -9.094  18.367   1.446  1.00  0.00     0.000 C
HETATM   22  C11 UNL     1     -10.007  17.198   1.194  1.00  0.00     0.000 C
HETATM   23  C12 UNL     1      -9.213  15.930   1.115  1.00  0.00     0.000 C
HETATM   24  C13 UNL     1      -8.618  15.672  -0.236  1.00  0.00     0.000 C
HETATM   25  C14 UNL     1      -8.918  16.707  -1.262  1.00  0.00     0.005 C
ENDBRANCH  18  19
ENDBRANCH  17  18
ENDBRANCH   4  17
TORSDOF 6
ENDMDL