MODEL 1
REMARK VINA RESULT: -7.677863512      0.000      0.000
REMARK  6 active torsions:
REMARK  status: ('A' for Active; 'I' for Inactive)
REMARK    1  A    between atoms: C2_2  and  C3_3
REMARK    2  A    between atoms: C4_4  and  C5_5
REMARK    3  A    between atoms: C5_5  and  N1_6
REMARK    4  A    between atoms: N1_6  and  C6_8
REMARK    5  A    between atoms: C6_8  and  C7_9
REMARK    6  A    between atoms: N2_13  and  C11_14
ROOT
HETATM    1  N1  UNL     1      -6.028  20.000  -3.955  1.00  0.00    -0.382 N
ATOM      2  H1  UNL     1      -7.024  19.792  -4.033  1.00  0.00     0.164 HD
ENDROOT
BRANCH   1   3
HETATM    3  C5  UNL     1      -5.205  19.594  -4.989  1.00  0.00     0.067 C
BRANCH   3   4
HETATM    4  C4  UNL     1      -5.197  18.220  -5.567  1.00  0.00     0.047 C
HETATM    5  C3  UNL     1      -4.045  17.876  -6.416  1.00  0.00     0.092 C
HETATM    6  N3  UNL     1      -3.120  16.981  -5.851  1.00  0.00    -0.383 N
HETATM    7  C18 UNL     1      -3.384  16.154  -4.786  1.00  0.00     0.084 C
HETATM    8  C21 UNL     1      -1.960  16.607  -6.540  1.00  0.00     0.059 C
HETATM    9  C17 UNL     1      -4.815  15.995  -4.391  1.00  0.00     0.026 C
HETATM   10  C19 UNL     1      -2.733  14.841  -5.158  1.00  0.00     0.030 C
HETATM   11  C16 UNL     1      -5.597  17.260  -4.484  1.00  0.00     0.014 C
HETATM   12  C20 UNL     1      -1.641  15.169  -6.152  1.00  0.00     0.046 C
BRANCH   5  13
HETATM   13  C2  UNL     1      -4.460  17.498  -7.834  1.00  0.00     0.021 C
HETATM   14  C1  UNL     1      -5.443  16.407  -7.920  1.00  0.00     0.007 C
ENDBRANCH   5  13
ENDBRANCH   3   4
ENDBRANCH   1   3
BRANCH   1  15
HETATM   15  C6  UNL     1      -5.596  20.671  -2.814  1.00  0.00     0.066 C
BRANCH  15  16
HETATM   16  C7  UNL     1      -6.202  20.267  -1.495  1.00  0.00     0.052 C
HETATM   17  C8  UNL     1      -6.695  21.353  -0.619  1.00  0.00     0.013 C
HETATM   18  C9  UNL     1      -6.698  20.758   0.809  1.00  0.00     0.031 C
HETATM   19  C10 UNL     1      -6.989  19.265   0.685  1.00  0.00     0.273 C
HETATM   20  N2  UNL     1      -7.980  19.144  -0.367  1.00  0.00     0.093 N
HETATM   21  C15 UNL     1      -7.328  19.237  -1.667  1.00  0.00     0.282 C
BRANCH  20  22
HETATM   22  C11 UNL     1      -8.785  17.978  -0.229  1.00  0.00     0.223 C
HETATM   23  C12 UNL     1      -8.299  16.863   0.643  1.00  0.00     0.036 C
HETATM   24  C13 UNL     1      -8.589  15.918  -0.534  1.00  0.00     0.004 C
HETATM   25  C14 UNL     1      -8.848  17.109  -1.443  1.00  0.00     0.036 C
ENDBRANCH  20  22
ENDBRANCH  15  16
ENDBRANCH   1  15
TORSDOF 6
ENDMDL