MODEL 3
REMARK VINA RESULT: -7.714585659      2.712      6.753
REMARK  6 active torsions:
REMARK  status: ('A' for Active; 'I' for Inactive)
REMARK    1  A    between atoms: C1_2  and  C2_3
REMARK       I    between atoms: C1_2  and  N1_11
REMARK    2  A    between atoms: C2_3  and  C3_4
REMARK    3  A    between atoms: C3_4  and  C4_5
REMARK    4  A    between atoms: N1_11  and  C10_12
REMARK    5  A    between atoms: N1_11  and  C16_20
REMARK    6  A    between atoms: C10_12  and  C11_13
ROOT
HETATM    1  O1  UNL     1      -7.176  21.987   0.007  1.00  0.00    -0.273 OA
HETATM    2  C1  UNL     1      -6.401  21.681  -0.935  1.00  0.00     0.220 C
HETATM    3  N1  UNL     1      -5.797  22.734  -1.672  1.00  0.00    -0.342 N
ENDROOT
BRANCH   3   4
HETATM    4  C10 UNL     1      -4.895  22.401  -2.736  1.00  0.00     0.183 C
BRANCH   4   5
HETATM    5  C11 UNL     1      -5.516  21.922  -3.978  1.00  0.00     0.027 A
HETATM    6  C12 UNL     1      -5.302  20.668  -4.489  1.00  0.00     0.027 A
HETATM    7  C13 UNL     1      -5.887  20.239  -5.656  1.00  0.00     0.003 A
HETATM    8  C14 UNL     1      -6.716  21.095  -6.336  1.00  0.00     0.017 A
HETATM    9  C15 UNL     1      -6.930  22.364  -5.813  1.00  0.00     0.088 A
HETATM   10  N2  UNL     1      -6.332  22.735  -4.665  1.00  0.00    -0.368 N
ATOM     11  H2  UNL     1      -6.506  23.672  -4.303  1.00  0.00     0.165 HD
ENDBRANCH   4   5
ENDBRANCH   3   4
BRANCH   3  12
HETATM   12  C16 UNL     1      -6.140  24.090  -1.323  1.00  0.00     0.090 C
HETATM   13  C17 UNL     1      -6.533  24.895  -2.569  1.00  0.00     0.053 C
HETATM   14  C18 UNL     1      -7.283  26.107  -2.057  1.00  0.00     0.234 C
HETATM   15  N3  UNL     1      -6.965  26.354  -0.660  1.00  0.00    -0.075 N
HETATM   16  C19 UNL     1      -5.517  26.332  -0.544  1.00  0.00     0.234 C
ATOM     17  H32 UNL     1      -7.384  27.212  -0.299  1.00  0.00     0.277 HD
ATOM     18  H31 UNL     1      -7.428  25.707  -0.023  1.00  0.00     0.277 HD
HETATM   19  C20 UNL     1      -5.056  24.870  -0.655  1.00  0.00     0.053 C
ENDBRANCH   3  12
BRANCH   2  20
HETATM   20  C2  UNL     1      -6.203  20.241  -1.176  1.00  0.00     0.103 C
BRANCH  20  21
HETATM   21  C3  UNL     1      -7.452  19.549  -1.607  1.00  0.00     0.014 C
BRANCH  21  22
HETATM   22  C4  UNL     1      -7.785  18.372  -0.757  1.00  0.00    -0.014 C
HETATM   23  C5  UNL     1      -8.613  17.363  -1.477  1.00  0.00     0.004 C
HETATM   24  C6  UNL     1      -8.885  16.146  -0.614  1.00  0.00     0.000 C
HETATM   25  C7  UNL     1      -8.834  16.468   0.861  1.00  0.00     0.000 C
HETATM   26  C8  UNL     1      -9.432  17.841   1.076  1.00  0.00     0.000 C
HETATM   27  C9  UNL     1      -8.606  18.899   0.427  1.00  0.00     0.004 C
ENDBRANCH  21  22
ENDBRANCH  20  21
ENDBRANCH   2  20
TORSDOF 6
ENDMDL