MODEL 1
REMARK VINA RESULT: -6.773668674      0.000      0.000
REMARK  6 active torsions:
REMARK  status: ('A' for Active; 'I' for Inactive)
REMARK    1  A    between atoms: C2_2  and  N1_3
REMARK    2  A    between atoms: N2_12  and  C11_13
REMARK    3  A    between atoms: C11_13  and  C12_14
REMARK    4  A    between atoms: C15_17  and  N3_18
REMARK    5  A    between atoms: N3_18  and  C16_21
REMARK    6  A    between atoms: C16_21  and  C17_22
ROOT
HETATM    1  C12 UNL     1      -6.513  19.391  -0.932  1.00  0.00     0.014 C
HETATM    2  C13 UNL     1      -7.521  18.390  -1.443  1.00  0.00     0.008 C
HETATM    3  C14 UNL     1      -8.929  18.651  -1.052  1.00  0.00     0.033 C
HETATM    4  C15 UNL     1      -9.198  18.948   0.370  1.00  0.00     0.186 C
HETATM    5  C20 UNL     1      -8.133  19.880   0.917  1.00  0.00     0.033 C
HETATM    6  C21 UNL     1      -6.729  19.483   0.570  1.00  0.00     0.008 C
ENDROOT
BRANCH   1   7
HETATM    7  C11 UNL     1      -6.751  20.704  -1.607  1.00  0.00     0.277 C
BRANCH   7   8
HETATM    8  N2  UNL     1      -5.795  21.002  -2.641  1.00  0.00     0.097 N
HETATM    9  C4  UNL     1      -6.373  21.550  -3.816  1.00  0.00     0.255 C
HETATM   10  C3  UNL     1      -6.724  23.023  -3.664  1.00  0.00     0.309 C
HETATM   11  C5  UNL     1      -5.449  21.376  -4.993  1.00  0.00     0.016 C
HETATM   12  N1  UNL     1      -6.034  23.635  -2.554  1.00  0.00     0.096 N
HETATM   13  C9  UNL     1      -4.655  23.172  -2.621  1.00  0.00     0.251 C
HETATM   14  C8  UNL     1      -4.117  23.251  -3.999  1.00  0.00     0.038 C
HETATM   15  C10 UNL     1      -4.694  21.743  -2.093  1.00  0.00     0.308 C
HETATM   16  C7  UNL     1      -4.085  21.941  -4.755  1.00  0.00     0.008 C
HETATM   17  C6  UNL     1      -5.312  19.896  -5.267  1.00  0.00     0.012 C
BRANCH  12  18
HETATM   18  C2  UNL     1      -6.105  25.066  -2.723  1.00  0.00     0.268 C
HETATM   19  C1  UNL     1      -7.164  25.493  -3.730  1.00  0.00     0.037 C
ENDBRANCH  12  18
ENDBRANCH   7   8
ENDBRANCH   1   7
BRANCH   4  20
HETATM   20  N3  UNL     1      -9.419  17.843   1.247  1.00  0.00    -0.071 N
ATOM     21  H32 UNL     1      -8.533  17.406   1.499  1.00  0.00     0.277 HD
ATOM     22  H31 UNL     1      -9.719  18.172   2.164  1.00  0.00     0.277 HD
BRANCH  20  23
HETATM   23  C16 UNL     1     -10.343  16.854   0.741  1.00  0.00     0.236 C
BRANCH  23  24
HETATM   24  C17 UNL     1      -9.730  15.462   0.748  1.00  0.00     0.003 C
HETATM   25  C18 UNL     1      -8.284  15.596   1.147  1.00  0.00     0.011 C
HETATM   26  C19 UNL     1      -9.687  15.014  -0.738  1.00  0.00     0.011 C
ENDBRANCH  23  24
ENDBRANCH  20  23
ENDBRANCH   4  20
TORSDOF 6
ENDMDL