MODEL 1
REMARK VINA RESULT: -6.941191162      0.000      0.000
REMARK  7 active torsions:
REMARK  status: ('A' for Active; 'I' for Inactive)
REMARK    1  A    between atoms: O1_2  and  C2_3
REMARK    2  A    between atoms: C2_3  and  C3_4
REMARK    3  A    between atoms: C3_4  and  N1_5
REMARK    4  A    between atoms: N1_5  and  C5_7
REMARK    5  A    between atoms: C8_10  and  N2_11
REMARK       I    between atoms: N2_11  and  C9_13
REMARK    6  A    between atoms: C9_13  and  C10_15
REMARK    7  A    between atoms: C10_15  and  C11_16
ROOT
HETATM    1  N2  UNL     1      -6.784  20.807  -1.716  1.00  0.00    -0.356 N
ATOM      2  H2  UNL     1      -7.568  21.459  -1.733  1.00  0.00     0.162 HD
HETATM    3  C9  UNL     1      -5.564  21.168  -2.346  1.00  0.00     0.227 C
HETATM    4  O2  UNL     1      -4.629  20.329  -2.292  1.00  0.00    -0.273 OA
ENDROOT
BRANCH   1   5
HETATM    5  C8  UNL     1      -6.936  19.531  -1.049  1.00  0.00     0.084 C
HETATM    6  C7  UNL     1      -7.803  19.599   0.175  1.00  0.00     0.027 C
HETATM    7  C6  UNL     1      -8.002  18.173   0.680  1.00  0.00     0.027 C
HETATM    8  C5  UNL     1      -8.541  17.253  -0.363  1.00  0.00     0.079 C
HETATM    9  C20 UNL     1      -8.837  18.066  -1.606  1.00  0.00     0.027 C
HETATM   10  C19 UNL     1      -7.500  18.582  -2.095  1.00  0.00     0.027 C
BRANCH   8  11
HETATM   11  N1  UNL     1      -9.645  16.454  -0.007  1.00  0.00    -0.410 N
HETATM   12  C4  UNL     1     -10.458  16.852   1.074  1.00  0.00     0.143 C
BRANCH  11  13
HETATM   13  C3  UNL     1      -9.569  15.081  -0.335  1.00  0.00     0.143 C
BRANCH  13  14
HETATM   14  C2  UNL     1      -8.148  14.678  -0.653  1.00  0.00     0.186 C
BRANCH  14  15
HETATM   15  O1  UNL     1      -7.616  13.744   0.213  1.00  0.00    -0.394 OA
HETATM   16  C1  UNL     1      -7.620  14.124   1.545  1.00  0.00     0.201 C
ENDBRANCH  14  15
ENDBRANCH  13  14
ENDBRANCH  11  13
ENDBRANCH   8  11
ENDBRANCH   1   5
BRANCH   3  17
HETATM   17  C10 UNL     1      -5.446  22.489  -3.027  1.00  0.00     0.047 C
HETATM   18  C15 UNL     1      -6.246  23.524  -2.293  1.00  0.00     0.020 C
HETATM   19  C16 UNL     1      -5.399  24.733  -2.081  1.00  0.00     0.001 C
HETATM   20  C17 UNL     1      -4.055  24.443  -2.696  1.00  0.00     0.001 C
HETATM   21  C18 UNL     1      -4.030  22.962  -2.828  1.00  0.00     0.020 C
BRANCH  17  22
HETATM   22  C11 UNL     1      -5.811  22.371  -4.480  1.00  0.00    -0.035 C
HETATM   23  C12 UNL     1      -6.926  23.345  -4.783  1.00  0.00     0.015 C
HETATM   24  C13 UNL     1      -4.628  22.697  -5.381  1.00  0.00     0.015 C
HETATM   25  C14 UNL     1      -6.290  21.009  -4.873  1.00  0.00     0.015 C
ENDBRANCH  17  22
ENDBRANCH   3  17
TORSDOF 7
ENDMDL