MODEL 2
REMARK VINA RESULT: -6.504192183      2.507      5.208
REMARK  6 active torsions:
REMARK  status: ('A' for Active; 'I' for Inactive)
REMARK    1  A    between atoms: C2_2  and  N1_3
REMARK    2  A    between atoms: N1_3  and  C3_4
REMARK    3  A    between atoms: N1_3  and  C9_10
REMARK    4  A    between atoms: C3_4  and  C4_5
REMARK    5  A    between atoms: N3_22  and  C17_23
REMARK    6  A    between atoms: C17_23  and  C18_24
ROOT
HETATM    1  C9  UNL     1      -5.735  20.071  -5.926  1.00  0.00     0.528 C
HETATM    2  N2  UNL     1      -6.798  20.903  -5.441  1.00  0.00    -0.008 N
ATOM      3  H21 UNL     1      -6.944  20.813  -4.435  1.00  0.00     0.283 HD
ATOM      4  H22 UNL     1      -7.719  20.582  -5.741  1.00  0.00     0.283 HD
HETATM    5  C10 UNL     1      -6.523  22.242  -5.841  1.00  0.00     0.210 C
HETATM    6  C11 UNL     1      -6.955  23.280  -4.845  1.00  0.00     0.049 C
HETATM    7  C12 UNL     1      -7.529  24.476  -5.567  1.00  0.00     0.003 C
HETATM    8  C13 UNL     1      -8.745  24.133  -6.374  1.00  0.00     0.000 C
HETATM    9  C14 UNL     1      -8.578  22.794  -7.055  1.00  0.00     0.003 C
HETATM   10  C15 UNL     1      -7.118  22.539  -7.227  1.00  0.00     0.049 C
HETATM   11  C16 UNL     1      -5.051  22.231  -6.044  1.00  0.00     0.259 C
HETATM   12  O1  UNL     1      -4.327  23.240  -5.907  1.00  0.00    -0.270 OA
HETATM   13  N3  UNL     1      -4.665  20.893  -6.410  1.00  0.00    -0.297 N
ENDROOT
BRANCH   1  14
HETATM   14  N1  UNL     1      -5.400  19.164  -4.832  1.00  0.00     0.139 N
BRANCH  14  15
HETATM   15  C2  UNL     1      -5.480  17.855  -5.412  1.00  0.00     0.273 C
HETATM   16  C1  UNL     1      -4.972  16.779  -4.446  1.00  0.00     0.037 C
ENDBRANCH  14  15
BRANCH  14  17
HETATM   17  C3  UNL     1      -6.224  19.461  -3.750  1.00  0.00     0.282 C
BRANCH  17  18
HETATM   18  C4  UNL     1      -5.779  19.888  -2.430  1.00  0.00     0.014 C
HETATM   19  C5  UNL     1      -5.088  21.195  -2.377  1.00  0.00     0.006 C
HETATM   20  C6  UNL     1      -5.838  22.109  -1.431  1.00  0.00     0.000 C
HETATM   21  C7  UNL     1      -6.564  21.150  -0.504  1.00  0.00     0.000 C
HETATM   22  C8  UNL     1      -6.897  19.944  -1.395  1.00  0.00     0.006 C
ENDBRANCH  17  18
ENDBRANCH  14  17
ENDBRANCH   1  14
BRANCH  13  23
HETATM   23  C17 UNL     1      -3.509  20.501  -7.137  1.00  0.00     0.133 C
BRANCH  23  24
HETATM   24  C18 UNL     1      -3.641  19.397  -8.117  1.00  0.00    -0.005 C
HETATM   25  C19 UNL     1      -3.158  19.957  -9.469  1.00  0.00     0.011 C
HETATM   26  C20 UNL     1      -2.712  18.227  -7.843  1.00  0.00     0.011 C
ENDBRANCH  23  24
ENDBRANCH  13  23
TORSDOF 6
ENDMDL