MODEL 1
REMARK VINA RESULT: -6.874835395      0.000      0.000
REMARK  6 active torsions:
REMARK  status: ('A' for Active; 'I' for Inactive)
REMARK    1  A    between atoms: C2_2  and  C3_3
REMARK    2  A    between atoms: C3_3  and  C4_4
REMARK    3  A    between atoms: C5_5  and  C6_6
REMARK    4  A    between atoms: C7_7  and  C8_8
REMARK    5  A    between atoms: C12_14  and  C13_15
REMARK    6  A    between atoms: C13_15  and  N1_16
ROOT
HETATM    1  C6  UNL     1      -6.317  21.500  -2.393  1.00  0.00     0.036 C
HETATM    2  C7  UNL     1      -5.288  22.484  -1.905  1.00  0.00     0.100 C
HETATM    3  C9  UNL     1      -5.132  23.507  -3.045  1.00  0.00     0.004 C
HETATM    4  C10 UNL     1      -6.437  23.585  -3.828  1.00  0.00     0.007 C
HETATM    5  C11 UNL     1      -6.576  22.294  -4.655  1.00  0.00     0.016 C
HETATM    6  C12 UNL     1      -5.928  21.206  -3.846  1.00  0.00    -0.000 C
HETATM    7  C18 UNL     1      -4.416  21.415  -4.034  1.00  0.00     0.020 C
HETATM    8  C19 UNL     1      -4.107  22.903  -3.983  1.00  0.00    -0.013 C
HETATM    9  C20 UNL     1      -2.728  23.169  -3.422  1.00  0.00     0.010 C
ENDROOT
BRANCH   6  10
HETATM   10  C13 UNL     1      -6.225  19.810  -4.230  1.00  0.00     0.068 C
BRANCH  10  11
HETATM   11  N1  UNL     1      -5.480  19.186  -5.237  1.00  0.00    -0.389 N
HETATM   12  C14 UNL     1      -5.637  19.492  -6.592  1.00  0.00     0.148 C
HETATM   13  C15 UNL     1      -4.349  19.003  -7.301  1.00  0.00     0.187 C
HETATM   14  O3  UNL     1      -4.395  17.630  -7.275  1.00  0.00    -0.388 OA
HETATM   15  C16 UNL     1      -4.247  17.207  -5.960  1.00  0.00     0.187 C
HETATM   16  C17 UNL     1      -5.318  17.760  -5.048  1.00  0.00     0.148 C
ENDBRANCH  10  11
ENDBRANCH   6  10
BRANCH   1  17
HETATM   17  C5  UNL     1      -6.387  20.279  -1.581  1.00  0.00    -0.024 C
HETATM   18  C4  UNL     1      -7.376  19.949  -0.755  1.00  0.00    -0.030 C
BRANCH  18  19
HETATM   19  C3  UNL     1      -7.377  18.692   0.035  1.00  0.00     0.026 C
BRANCH  19  20
HETATM   20  C2  UNL     1      -8.634  17.873  -0.149  1.00  0.00    -0.001 C
HETATM   21  C1  UNL     1      -8.837  17.707  -1.641  1.00  0.00     0.005 C
ENDBRANCH  19  20
ENDBRANCH  18  19
ENDBRANCH   1  17
BRANCH   2  22
HETATM   22  C8  UNL     1      -5.682  23.246  -0.731  1.00  0.00     0.178 C
HETATM   23  O1  UNL     1      -5.698  22.745   0.408  1.00  0.00    -0.648 OA
HETATM   24  O2  UNL     1      -6.055  24.566  -0.863  1.00  0.00    -0.648 OA
ENDBRANCH   2  22
TORSDOF 6
ENDMDL