MODEL 1
REMARK VINA RESULT: -7.194202671      0.000      0.000
REMARK  6 active torsions:
REMARK  status: ('A' for Active; 'I' for Inactive)
REMARK    1  A    between atoms: C2_2  and  C4_4
REMARK    2  A    between atoms: C4_4  and  C5_5
REMARK    3  A    between atoms: C5_5  and  C6_6
REMARK    4  A    between atoms: C6_6  and  N1_7
REMARK       I    between atoms: N1_7  and  C7_9
REMARK    5  A    between atoms: C7_9  and  C8_11
REMARK    6  A    between atoms: C8_11  and  C9_12
ROOT
HETATM    1  C9  UNL     1      -6.430  21.977  -1.951  1.00  0.00     0.136 C
HETATM    2  O2  UNL     1      -6.113  23.191  -2.524  1.00  0.00    -0.380 OA
HETATM    3  C10 UNL     1      -6.560  23.435  -3.764  1.00  0.00     0.122 C
HETATM    4  C11 UNL     1      -5.814  24.627  -4.329  1.00  0.00     0.034 C
HETATM    5  C12 UNL     1      -4.403  24.427  -4.641  1.00  0.00     0.034 C
HETATM    6  C13 UNL     1      -3.832  23.055  -4.292  1.00  0.00     0.121 C
HETATM    7  C14 UNL     1      -4.300  22.106  -5.309  1.00  0.00     0.036 C
HETATM    8  C15 UNL     1      -5.648  21.505  -5.188  1.00  0.00    -0.010 C
HETATM    9  C16 UNL     1      -5.595  20.102  -4.602  1.00  0.00     0.005 C
HETATM   10  C17 UNL     1      -5.949  19.957  -3.185  1.00  0.00     0.010 C
HETATM   11  C18 UNL     1      -5.360  20.938  -2.216  1.00  0.00     0.039 C
HETATM   12  C19 UNL     1      -4.027  21.456  -2.617  1.00  0.00     0.175 C
HETATM   13  O3  UNL     1      -3.915  22.742  -2.994  1.00  0.00    -0.385 OA
HETATM   14  C20 UNL     1      -6.758  22.341  -4.733  1.00  0.00     0.036 C
ENDROOT
BRANCH   1  15
HETATM   15  C8  UNL     1      -6.587  22.286  -0.483  1.00  0.00     0.135 C
BRANCH  15  16
HETATM   16  C7  UNL     1      -7.060  21.159   0.348  1.00  0.00     0.220 C
HETATM   17  N1  UNL     1      -8.072  20.305  -0.092  1.00  0.00    -0.361 N
ATOM     18  H1  UNL     1      -8.485  20.487  -1.007  1.00  0.00     0.162 HD
HETATM   19  O1  UNL     1      -6.530  20.975   1.473  1.00  0.00    -0.274 OA
BRANCH  17  20
HETATM   20  C6  UNL     1      -8.580  19.168   0.674  1.00  0.00     0.122 C
BRANCH  20  21
HETATM   21  C5  UNL     1      -7.955  17.909   0.209  1.00  0.00     0.020 C
BRANCH  21  22
HETATM   22  C4  UNL     1      -8.474  17.263  -1.007  1.00  0.00     0.005 C
BRANCH  22  23
HETATM   23  C2  UNL     1      -9.149  15.958  -0.955  1.00  0.00    -0.023 C
HETATM   24  C1  UNL     1      -8.234  14.783  -0.970  1.00  0.00     0.009 C
HETATM   25  C3  UNL     1      -9.971  15.881   0.349  1.00  0.00     0.009 C
ENDBRANCH  22  23
ENDBRANCH  21  22
ENDBRANCH  20  21
ENDBRANCH  17  20
ENDBRANCH  15  16
ENDBRANCH   1  15
TORSDOF 6
ENDMDL