MODEL 1
REMARK VINA RESULT: -7.184998780      0.000      0.000
REMARK  7 active torsions:
REMARK  status: ('A' for Active; 'I' for Inactive)
REMARK    1  A    between atoms: C7_7  and  O1_8
REMARK    2  A    between atoms: O1_8  and  C8_9
REMARK    3  A    between atoms: C8_9  and  C9_11
REMARK    4  A    between atoms: C9_11  and  N1_12
REMARK    5  A    between atoms: N1_12  and  C10_15
REMARK    6  A    between atoms: C10_15  and  C11_16
REMARK    7  A    between atoms: C11_16  and  N2_17
ROOT
HETATM    1  O1  UNL     1      -5.491  20.721  -1.125  1.00  0.00    -0.309 OA
ENDROOT
BRANCH   1   2
HETATM    2  C7  UNL     1      -5.553  21.345  -2.397  1.00  0.00     0.072 C
HETATM    3  C6  UNL     1      -6.108  20.327  -3.362  1.00  0.00     0.039 C
HETATM    4  C5  UNL     1      -5.570  20.426  -4.741  1.00  0.00     0.007 C
HETATM    5  C4  UNL     1      -5.459  21.812  -5.290  1.00  0.00    -0.013 C
HETATM    6  C3  UNL     1      -4.054  22.337  -5.045  1.00  0.00     0.014 C
HETATM    7  C18 UNL     1      -6.528  22.743  -4.829  1.00  0.00     0.009 C
HETATM    8  C2  UNL     1      -3.928  22.854  -3.633  1.00  0.00    -0.041 C
HETATM    9  C1  UNL     1      -2.514  23.397  -3.452  1.00  0.00     0.015 C
HETATM   10  C19 UNL     1      -4.864  24.028  -3.467  1.00  0.00     0.014 C
HETATM   11  C20 UNL     1      -4.137  21.745  -2.687  1.00  0.00     0.048 C
HETATM   12  C17 UNL     1      -6.261  23.455  -3.542  1.00  0.00    -0.011 C
HETATM   13  C16 UNL     1      -6.513  22.513  -2.402  1.00  0.00     0.043 C
ENDBRANCH   1   2
BRANCH   1  14
HETATM   14  C8  UNL     1      -6.523  20.568  -0.254  1.00  0.00     0.285 C
HETATM   15  O2  UNL     1      -6.634  21.399   0.669  1.00  0.00    -0.263 OA
BRANCH  14  16
HETATM   16  C9  UNL     1      -7.535  19.482  -0.316  1.00  0.00     0.343 C
BRANCH  16  17
HETATM   17  N1  UNL     1      -8.707  19.777   0.452  1.00  0.00    -0.065 N
ATOM     18  H12 UNL     1      -8.586  20.580   1.068  1.00  0.00     0.277 HD
ATOM     19  H11 UNL     1      -9.468  20.155  -0.113  1.00  0.00     0.277 HD
BRANCH  17  20
HETATM   20  C10 UNL     1      -9.081  18.560   1.169  1.00  0.00     0.263 C
BRANCH  20  21
HETATM   21  C11 UNL     1      -8.387  17.348   0.591  1.00  0.00     0.299 C
BRANCH  21  22
HETATM   22  N2  UNL     1      -8.943  16.176   1.226  1.00  0.00     0.090 N
HETATM   23  C12 UNL     1     -10.188  15.755   0.565  1.00  0.00     0.272 C
HETATM   24  C13 UNL     1      -9.678  15.229  -0.758  1.00  0.00     0.032 C
HETATM   25  C14 UNL     1      -8.250  14.785  -0.486  1.00  0.00     0.032 C
HETATM   26  C15 UNL     1      -8.133  14.990   1.010  1.00  0.00     0.272 C
ENDBRANCH  21  22
ENDBRANCH  20  21
ENDBRANCH  17  20
ENDBRANCH  16  17
ENDBRANCH  14  16
ENDBRANCH   1  14
TORSDOF 7
ENDMDL