MODEL 2
REMARK VINA RESULT: -7.874752709      3.091      5.056
REMARK  7 active torsions:
REMARK  status: ('A' for Active; 'I' for Inactive)
REMARK       I    between atoms: C2_2  and  N1_4
REMARK    1  A    between atoms: C4_6  and  O2_7
REMARK    2  A    between atoms: O2_7  and  C5_8
REMARK    3  A    between atoms: C5_8  and  C6_9
REMARK    4  A    between atoms: C6_9  and  C7_10
REMARK    5  A    between atoms: C7_10  and  C8_11
REMARK    6  A    between atoms: C19_22  and  C20_23
REMARK    7  A    between atoms: C20_23  and  O3_24
ROOT
HETATM    1  O2  UNL     1      -6.361  20.209  -4.638  1.00  0.00    -0.354 OA
ENDROOT
BRANCH   1   2
HETATM    2  C4  UNL     1      -6.447  21.608  -4.480  1.00  0.00     0.062 C
HETATM    3  C3  UNL     1      -6.183  22.177  -3.334  1.00  0.00     0.126 C
HETATM    4  N1  UNL     1      -6.251  23.595  -3.105  1.00  0.00    -0.319 N
HETATM    5  C2  UNL     1      -6.129  24.031  -1.767  1.00  0.00     0.220 C
HETATM    6  C19 UNL     1      -6.432  24.431  -4.248  1.00  0.00     0.116 C
HETATM    7  C1  UNL     1      -5.950  23.056  -0.675  1.00  0.00     0.117 C
HETATM    8  O1  UNL     1      -6.170  25.237  -1.483  1.00  0.00    -0.273 OA
HETATM    9  C18 UNL     1      -7.338  23.776  -5.282  1.00  0.00     0.034 C
HETATM   10  C17 UNL     1      -6.847  22.417  -5.654  1.00  0.00     0.068 C
BRANCH   6  11
HETATM   11  C20 UNL     1      -6.956  25.802  -4.004  1.00  0.00     0.189 C
BRANCH  11  12
HETATM   12  O3  UNL     1      -8.325  25.851  -3.791  1.00  0.00    -0.399 OA
ATOM     13  H3  UNL     1      -8.647  26.713  -3.557  1.00  0.00     0.209 HD
ENDBRANCH  11  12
ENDBRANCH   6  11
ENDBRANCH   1   2
BRANCH   1  14
HETATM   14  C5  UNL     1      -5.832  19.400  -3.582  1.00  0.00     0.175 C
BRANCH  14  15
HETATM   15  C6  UNL     1      -7.042  18.674  -2.983  1.00  0.00     0.027 C
BRANCH  15  16
HETATM   16  C7  UNL     1      -7.223  19.171  -1.605  1.00  0.00     0.007 C
BRANCH  16  17
HETATM   17  C8  UNL     1      -7.994  18.219  -0.710  1.00  0.00    -0.014 C
HETATM   18  C9  UNL     1      -9.090  18.924   0.072  1.00  0.00     0.005 C
HETATM   19  C10 UNL     1      -9.183  18.282   1.408  1.00  0.00     0.000 C
HETATM   20  C11 UNL     1      -9.845  16.913   1.383  1.00  0.00     0.000 C
HETATM   21  C12 UNL     1      -8.788  15.886   1.351  1.00  0.00     0.005 C
HETATM   22  C13 UNL     1      -8.501  15.155   0.114  1.00  0.00    -0.010 A
HETATM   23  C14 UNL     1      -9.532  14.823  -0.908  1.00  0.00     0.010 A
HETATM   24  C15 UNL     1      -8.295  15.754  -1.149  1.00  0.00    -0.010 A
HETATM   25  C16 UNL     1      -8.669  17.120  -1.495  1.00  0.00     0.009 C
ENDBRANCH  16  17
ENDBRANCH  15  16
ENDBRANCH  14  15
ENDBRANCH   1  14
TORSDOF 7
ENDMDL