MODEL 1
REMARK VINA RESULT: -6.556060998      0.000      0.000
REMARK  5 active torsions:
REMARK  status: ('A' for Active; 'I' for Inactive)
REMARK    1  A    between atoms: C2_2  and  S1_3
REMARK    2  A    between atoms: S1_3  and  C3_4
REMARK    3  A    between atoms: C5_12  and  C7_14
REMARK       I    between atoms: C7_14  and  N3_16
REMARK    4  A    between atoms: N3_16  and  C8_18
REMARK    5  A    between atoms: C8_18  and  C9_19
ROOT
HETATM    1  C7  UNL     1       1.241   9.884   2.187  1.00  0.00     0.246 C
HETATM    2  O3  UNL     1       0.403  10.562   2.836  1.00  0.00    -0.271 OA
HETATM    3  N3  UNL     1       2.134   9.047   2.893  1.00  0.00    -0.358 N
ATOM      4  H3  UNL     1       2.813   8.498   2.364  1.00  0.00     0.162 HD
ENDROOT
BRANCH   1   5
HETATM    5  C5  UNL     1       1.235  10.011   0.711  1.00  0.00     0.126 C
HETATM    6  N2  UNL     1      -0.038   9.761   0.126  1.00  0.00    -0.279 N
HETATM    7  S2  UNL     1      -0.008   8.762  -1.258  1.00  0.00     0.322 S
HETATM    8  C4  UNL     1      -0.878  10.900   0.046  1.00  0.00     0.166 C
HETATM    9  N1  UNL     1       1.489   9.056  -2.035  1.00  0.00    -0.265 N
HETATM   10  O1  UNL     1      -1.099   9.204  -2.217  1.00  0.00    -0.182 OA
HETATM   11  O2  UNL     1      -0.155   7.306  -0.925  1.00  0.00    -0.182 OA
HETATM   12  C3  UNL     1       2.502   9.196  -1.268  1.00  0.00     0.061 C
ATOM     13  H1  UNL     1       1.568   9.117  -3.050  1.00  0.00     0.180 HD
HETATM   14  C19 UNL     1       2.317   9.099   0.183  1.00  0.00     0.106 C
HETATM   15  C6  UNL     1       1.647  11.432   0.390  1.00  0.00     0.050 C
BRANCH  12  16
HETATM   16  S1  UNL     1       4.112   9.507  -1.987  1.00  0.00    -0.116 SA
BRANCH  16  17
HETATM   17  C2  UNL     1       5.315   8.390  -1.218  1.00  0.00     0.076 C
HETATM   18  C1  UNL     1       6.013   9.058  -0.069  1.00  0.00     0.016 C
ENDBRANCH  16  17
ENDBRANCH  12  16
ENDBRANCH   1   5
BRANCH   3  19
HETATM   19  C8  UNL     1       2.124   8.938   4.324  1.00  0.00     0.132 C
BRANCH  19  20
HETATM   20  C9  UNL     1       3.402   8.341   4.828  1.00  0.00    -0.023 C
HETATM   21  C10 UNL     1       4.510   8.555   3.811  1.00  0.00     0.015 C
HETATM   22  C11 UNL     1       5.809   7.997   4.323  1.00  0.00    -0.013 C
HETATM   23  C12 UNL     1       5.698   6.520   4.608  1.00  0.00     0.009 C
HETATM   24  C16 UNL     1       6.239   8.679   5.609  1.00  0.00     0.009 C
HETATM   25  C13 UNL     1       4.581   6.328   5.609  1.00  0.00    -0.013 C
HETATM   26  C14 UNL     1       4.935   7.005   6.905  1.00  0.00     0.009 C
HETATM   27  C18 UNL     1       3.280   6.869   5.089  1.00  0.00     0.015 C
HETATM   28  C15 UNL     1       5.126   8.474   6.623  1.00  0.00    -0.013 C
HETATM   29  C17 UNL     1       3.843   9.045   6.100  1.00  0.00     0.015 C
ENDBRANCH  19  20
ENDBRANCH   3  19
TORSDOF 5
ENDMDL