MODEL 1
REMARK VINA RESULT: -7.970006697      0.000      0.000
REMARK  5 active torsions:
REMARK  status: ('A' for Active; 'I' for Inactive)
REMARK       I    between atoms: N2_8  and  C7_9
REMARK    1  A    between atoms: C7_9  and  C8_11
REMARK    2  A    between atoms: C8_11  and  N3_12
REMARK       I    between atoms: N3_12  and  C9_14
REMARK    3  A    between atoms: C9_14  and  C10_16
REMARK       I    between atoms: N4_19  and  C13_20
REMARK    4  A    between atoms: C13_20  and  C14_22
REMARK    5  A    between atoms: C15_23  and  C16_24
ROOT
HETATM    1  N1  UNL     1       3.062   6.834  -1.877  1.00  0.00    -0.195 NA
HETATM    2  C1  UNL     1       3.318   7.593  -2.727  1.00  0.00     0.084 C
HETATM    3  C2  UNL     1       3.618   8.554  -3.779  1.00  0.00     0.194 C
HETATM    4  C3  UNL     1       3.709   7.843  -5.113  1.00  0.00     0.040 C
HETATM    5  C4  UNL     1       4.948   7.000  -5.239  1.00  0.00     0.004 C
HETATM    6  C5  UNL     1       6.047   7.430  -4.318  1.00  0.00     0.020 C
HETATM    7  C6  UNL     1       6.049   8.937  -4.122  1.00  0.00     0.127 C
HETATM    8  N2  UNL     1       4.788   9.335  -3.520  1.00  0.00    -0.334 N
HETATM    9  C7  UNL     1       4.763  10.501  -2.685  1.00  0.00     0.238 C
HETATM   10  O1  UNL     1       5.832  11.144  -2.500  1.00  0.00    -0.272 OA
ENDROOT
BRANCH   9  11
HETATM   11  C8  UNL     1       3.453  10.866  -2.093  1.00  0.00     0.225 C
BRANCH  11  12
HETATM   12  N3  UNL     1       3.420  10.495  -0.700  1.00  0.00    -0.352 N
HETATM   13  C9  UNL     1       2.307   9.878  -0.088  1.00  0.00     0.222 C
HETATM   14  O2  UNL     1       1.270   9.620  -0.733  1.00  0.00    -0.273 OA
ATOM     15  H3  UNL     1       4.241  10.687  -0.127  1.00  0.00     0.162 HD
BRANCH  13  16
HETATM   16  C10 UNL     1       2.362   9.528   1.347  1.00  0.00     0.081 C
HETATM   17  C11 UNL     1       1.992  10.746   2.168  1.00  0.00     0.034 C
HETATM   18  C12 UNL     1       1.851  10.331   3.631  1.00  0.00     0.127 C
HETATM   19  N4  UNL     1       2.958   9.421   3.917  1.00  0.00    -0.349 N
HETATM   20  C13 UNL     1       2.854   8.500   4.971  1.00  0.00     0.243 C
HETATM   21  C22 UNL     1       4.114   9.530   3.082  1.00  0.00     0.127 C
HETATM   22  O3  UNL     1       1.803   8.447   5.694  1.00  0.00    -0.268 OA
HETATM   23  C23 UNL     1       3.796   9.107   1.655  1.00  0.00     0.034 C
BRANCH  20  24
HETATM   24  C14 UNL     1       3.892   7.555   5.328  1.00  0.00     0.070 C
HETATM   25  C15 UNL     1       3.704   6.582   6.197  1.00  0.00    -0.017 C
BRANCH  25  26
HETATM   26  C16 UNL     1       4.789   5.657   6.517  1.00  0.00     0.008 C
HETATM   27  C17 UNL     1       6.130   6.107   5.993  1.00  0.00     0.008 C
HETATM   28  C18 UNL     1       7.153   6.265   7.081  1.00  0.00     0.001 C
HETATM   29  C19 UNL     1       7.247   5.092   7.997  1.00  0.00     0.000 C
HETATM   30  C20 UNL     1       5.974   4.337   8.184  1.00  0.00     0.001 C
HETATM   31  C21 UNL     1       4.818   5.323   7.981  1.00  0.00     0.008 C
ENDBRANCH  25  26
ENDBRANCH  20  24
ENDBRANCH  13  16
ENDBRANCH  11  12
ENDBRANCH   9  11
TORSDOF 5
ENDMDL