MODEL 2
REMARK VINA RESULT: -7.727004323      1.344      1.466
REMARK  5 active torsions:
REMARK  status: ('A' for Active; 'I' for Inactive)
REMARK    1  A    between atoms: C1_2  and  C2_3
REMARK       I    between atoms: C1_2  and  N3_23
REMARK    2  A    between atoms: C2_3  and  C3_4
REMARK    3  A    between atoms: C3_4  and  C4_5
REMARK       I    between atoms: C4_5  and  N1_7
REMARK       I    between atoms: N2_10  and  C7_11
REMARK    4  A    between atoms: C7_11  and  C8_13
REMARK    5  A    between atoms: N3_23  and  C17_25
ROOT
HETATM    1  C4  UNL     1       3.973   9.319   5.181  1.00  0.00     0.220 C
HETATM    2  O2  UNL     1       5.141   9.453   5.626  1.00  0.00    -0.273 OA
HETATM    3  N1  UNL     1       3.663   9.156   3.806  1.00  0.00    -0.343 N
HETATM    4  C5  UNL     1       2.277   9.006   3.409  1.00  0.00     0.146 C
HETATM    5  C6  UNL     1       1.940  10.055   2.367  1.00  0.00     0.146 C
HETATM    6  N2  UNL     1       2.795   9.757   1.228  1.00  0.00    -0.344 N
HETATM    7  C7  UNL     1       2.201   9.461  -0.023  1.00  0.00     0.224 C
HETATM    8  O3  UNL     1       0.964   9.453  -0.182  1.00  0.00    -0.273 OA
HETATM    9  C12 UNL     1       4.213   9.789   1.476  1.00  0.00     0.111 C
HETATM   10  C13 UNL     1       4.698  11.241   1.384  1.00  0.00     0.037 C
HETATM   11  C14 UNL     1       6.058  11.191   0.716  1.00  0.00     0.076 C
HETATM   12  S1  UNL     1       6.990   9.895   1.627  1.00  0.00    -0.167 SA
HETATM   13  C15 UNL     1       6.003   9.627   3.158  1.00  0.00     0.101 C
HETATM   14  C16 UNL     1       4.641   9.121   2.740  1.00  0.00     0.119 C
ENDROOT
BRANCH   1  15
HETATM   15  C3  UNL     1       2.881   9.337   6.185  1.00  0.00     0.112 C
BRANCH  15  16
HETATM   16  C2  UNL     1       2.357   7.973   6.482  1.00  0.00     0.112 C
BRANCH  16  17
HETATM   17  C1  UNL     1       3.398   6.941   6.449  1.00  0.00     0.218 C
HETATM   18  O1  UNL     1       3.365   6.111   5.491  1.00  0.00    -0.274 OA
HETATM   19  N3  UNL     1       4.427   6.804   7.392  1.00  0.00    -0.356 N
ATOM     20  H3  UNL     1       4.468   7.465   8.168  1.00  0.00     0.162 HD
BRANCH  19  21
HETATM   21  C17 UNL     1       5.437   5.762   7.314  1.00  0.00     0.084 C
HETATM   22  C18 UNL     1       6.697   6.313   6.760  1.00  0.00     0.025 C
HETATM   23  C19 UNL     1       7.846   6.277   7.757  1.00  0.00     0.002 C
HETATM   24  C20 UNL     1       8.036   4.793   8.076  1.00  0.00     0.000 C
HETATM   25  C21 UNL     1       6.858   4.353   8.864  1.00  0.00     0.002 C
HETATM   26  C22 UNL     1       5.579   5.052   8.625  1.00  0.00     0.025 C
ENDBRANCH  19  21
ENDBRANCH  16  17
ENDBRANCH  15  16
ENDBRANCH   1  15
BRANCH   7  27
HETATM   27  C8  UNL     1       3.073   9.152  -1.181  1.00  0.00     0.078 C
HETATM   28  C9  UNL     1       2.345   9.294  -2.519  1.00  0.00     0.014 C
HETATM   29  C10 UNL     1       2.985   7.990  -2.944  1.00  0.00     0.002 C
HETATM   30  C11 UNL     1       3.147   7.652  -1.491  1.00  0.00     0.014 C
ENDBRANCH   7  27
TORSDOF 5
ENDMDL