MODEL 2
REMARK VINA RESULT: -7.933843053      1.234      1.453
REMARK  5 active torsions:
REMARK  status: ('A' for Active; 'I' for Inactive)
REMARK       I    between atoms: N1_7  and  C7_8
REMARK    1  A    between atoms: C7_8  and  C8_10
REMARK    2  A    between atoms: C14_17  and  C15_18
REMARK       I    between atoms: C15_18  and  N2_20
REMARK    3  A    between atoms: N2_20  and  C16_22
REMARK    4  A    between atoms: C16_22  and  C17_23
REMARK    5  A    between atoms: C17_23  and  N3_24
ROOT
HETATM    1  C8  UNL     1       2.933  10.537   2.282  1.00  0.00     0.122 C
HETATM    2  C9  UNL     1       3.621  11.710   1.622  1.00  0.00     0.136 C
HETATM    3  C10 UNL     1       4.451  11.252   0.421  1.00  0.00     0.039 C
HETATM    4  C11 UNL     1       5.740  10.827   1.097  1.00  0.00     0.014 C
HETATM    5  C12 UNL     1       6.347   9.599   0.555  1.00  0.00     0.012 C
HETATM    6  C13 UNL     1       5.271  10.727   2.532  1.00  0.00     0.139 C
HETATM    7  O2  UNL     1       4.601  11.964   2.619  1.00  0.00    -0.378 OA
HETATM    8  C14 UNL     1       4.142   9.708   2.675  1.00  0.00     0.122 C
ENDROOT
BRANCH   8   9
HETATM    9  C15 UNL     1       4.119   9.294   4.083  1.00  0.00     0.225 C
HETATM   10  O3  UNL     1       4.961   9.778   4.868  1.00  0.00    -0.273 OA
HETATM   11  N2  UNL     1       3.176   8.361   4.586  1.00  0.00    -0.359 N
ATOM     12  H2  UNL     1       2.487   7.962   3.949  1.00  0.00     0.162 HD
BRANCH  11  13
HETATM   13  C16 UNL     1       3.162   7.962   5.961  1.00  0.00     0.142 C
BRANCH  13  14
HETATM   14  C17 UNL     1       3.518   6.555   6.253  1.00  0.00     0.145 C
BRANCH  14  15
HETATM   15  N3  UNL     1       4.805   6.420   6.885  1.00  0.00    -0.351 N
HETATM   16  C18 UNL     1       6.053   6.926   6.356  1.00  0.00     0.126 C
HETATM   17  C19 UNL     1       7.050   5.770   6.410  1.00  0.00     0.020 C
HETATM   18  C20 UNL     1       7.377   5.431   7.840  1.00  0.00     0.011 C
HETATM   19  C21 UNL     1       6.277   5.707   8.811  1.00  0.00     0.103 C
HETATM   20  C22 UNL     1       4.936   5.760   8.169  1.00  0.00     0.219 C
HETATM   21  O4  UNL     1       3.933   5.252   8.704  1.00  0.00    -0.273 OA
ENDBRANCH  14  15
ENDBRANCH  13  14
ENDBRANCH  11  13
ENDBRANCH   8   9
BRANCH   1  22
HETATM   22  C7  UNL     1       1.983   9.822   1.446  1.00  0.00     0.227 C
HETATM   23  N1  UNL     1       0.650  10.177   1.246  1.00  0.00    -0.351 N
HETATM   24  C6  UNL     1       0.076  11.314   1.919  1.00  0.00     0.130 C
HETATM   25  C23 UNL     1      -0.196   9.436   0.359  1.00  0.00     0.130 C
HETATM   26  C4  UNL     1      -0.352  12.316   0.865  1.00  0.00    -0.000 C
HETATM   27  C3  UNL     1      -1.074  11.672  -0.272  1.00  0.00     0.011 C
HETATM   28  C5  UNL     1      -1.245  13.365   1.482  1.00  0.00     0.011 C
HETATM   29  C2  UNL     1      -1.402  10.228  -0.094  1.00  0.00    -0.000 C
HETATM   30  C1  UNL     1      -2.600   9.982   0.801  1.00  0.00     0.011 C
HETATM   31  O1  UNL     1       2.410   8.792   0.850  1.00  0.00    -0.273 OA
ENDBRANCH   1  22
TORSDOF 5
ENDMDL