MODEL 3
REMARK VINA RESULT: -6.606984123      1.930      2.882
REMARK  7 active torsions:
REMARK  status: ('A' for Active; 'I' for Inactive)
REMARK    1  A    between atoms: C2_2  and  C3_3
REMARK    2  A    between atoms: C3_3  and  N1_4
REMARK       I    between atoms: N1_4  and  C4_6
REMARK    3  A    between atoms: C4_6  and  O2_8
REMARK    4  A    between atoms: O2_8  and  C5_9
REMARK    5  A    between atoms: C16_22  and  C17_23
REMARK    6  A    between atoms: C17_23  and  O3_24
REMARK    7  A    between atoms: C17_23  and  C19_27
ROOT
HETATM    1  O3  UNL     1       1.964   9.092   1.946  1.00  0.00    -0.271 OA
HETATM    2  C18 UNL     1       1.961   9.251   3.302  1.00  0.00     0.229 C
HETATM    3  N3  UNL     1       1.937   9.387   4.459  1.00  0.00    -0.164 NA
ENDROOT
BRANCH   1   4
HETATM    4  C17 UNL     1       1.516  10.070   1.048  1.00  0.00     0.197 C
BRANCH   4   5
HETATM    5  C16 UNL     1       2.557  10.882   0.320  1.00  0.00     0.044 C
HETATM    6  C9  UNL     1       2.331  12.297   0.631  1.00  0.00    -0.013 A
HETATM    7  C7  UNL     1       3.437  13.068   1.214  1.00  0.00    -0.001 A
HETATM    8  C8  UNL     1       2.098  13.091   1.775  1.00  0.00     0.017 A
HETATM    9  C10 UNL     1       2.008  13.122  -0.811  1.00  0.00     0.129 C
HETATM   10  C6  UNL     1       4.541  12.356   1.853  1.00  0.00     0.039 C
HETATM   11  C5  UNL     1       4.647  10.919   1.528  1.00  0.00     0.143 C
HETATM   12  C14 UNL     1       3.957  10.359   0.375  1.00  0.00    -0.002 C
HETATM   13  C12 UNL     1       4.625  10.773  -1.053  1.00  0.00     0.031 C
HETATM   14  C15 UNL     1       4.225   8.919   0.334  1.00  0.00     0.019 C
HETATM   15  C11 UNL     1       3.793  11.832  -1.392  1.00  0.00     0.060 C
HETATM   16  C13 UNL     1       6.020  11.079  -0.956  1.00  0.00     0.016 C
HETATM   17  N2  UNL     1       3.079  12.462  -1.329  1.00  0.00    -0.401 N
ATOM     18  H2  UNL     1       3.191  12.956  -2.214  1.00  0.00     0.158 HD
BRANCH  11  19
HETATM   19  O2  UNL     1       5.995  10.500   1.707  1.00  0.00    -0.298 OA
BRANCH  19  20
HETATM   20  C4  UNL     1       6.479   9.848   2.819  1.00  0.00     0.361 C
HETATM   21  N1  UNL     1       5.638   9.219   3.790  1.00  0.00    -0.333 N
ATOM     22  H1  UNL     1       4.621   9.224   3.701  1.00  0.00     0.165 HD
HETATM   23  O1  UNL     1       7.737   9.830   2.947  1.00  0.00    -0.238 OA
BRANCH  21  24
HETATM   24  C3  UNL     1       6.300   8.576   4.906  1.00  0.00     0.151 C
BRANCH  24  25
HETATM   25  C2  UNL     1       5.610   7.400   5.433  1.00  0.00    -0.018 C
HETATM   26  C1  UNL     1       5.945   6.199   4.995  1.00  0.00     0.008 C
ENDBRANCH  24  25
ENDBRANCH  21  24
ENDBRANCH  19  20
ENDBRANCH  11  19
ENDBRANCH   4   5
BRANCH   4  27
HETATM   27  C19 UNL     1       0.450   9.478   0.208  1.00  0.00     0.042 A
HETATM   28  C20 UNL     1       0.759   8.682  -0.912  1.00  0.00     0.028 A
HETATM   29  C21 UNL     1      -0.178   8.119  -1.720  1.00  0.00     0.003 A
HETATM   30  C22 UNL     1      -1.510   8.321  -1.456  1.00  0.00     0.017 A
HETATM   31  C23 UNL     1      -1.815   9.096  -0.368  1.00  0.00     0.090 A
HETATM   32  N4  UNL     1      -0.842   9.649   0.429  1.00  0.00    -0.362 N
HETATM   33  C24 UNL     1      -1.337  10.419   1.516  1.00  0.00     0.155 C
ENDBRANCH   4  27
ENDBRANCH   1   4
TORSDOF 7
ENDMDL