MODEL 3
REMARK VINA RESULT: -6.440094650      2.837      6.688
REMARK  6 active torsions:
REMARK  status: ('A' for Active; 'I' for Inactive)
REMARK    1  A    between atoms: C3_3  and  O1_4
REMARK    2  A    between atoms: O1_4  and  C4_5
REMARK    3  A    between atoms: C4_5  and  C5_6
REMARK    4  A    between atoms: N2_16  and  C13_17
REMARK    5  A    between atoms: C18_22  and  C20_24
REMARK    6  A    between atoms: C22_26  and  O3_27
ROOT
HETATM    1  C1  UNL     1      -4.100   8.967  -2.530  1.00  0.00     0.014 C
HETATM    2  C2  UNL     1      -2.998   8.496  -2.607  1.00  0.00    -0.091 C
HETATM    3  C3  UNL     1      -1.663   7.944  -2.719  1.00  0.00     0.260 C
ENDROOT
BRANCH   3   4
HETATM    4  O1  UNL     1      -1.057   7.709  -1.489  1.00  0.00    -0.377 OA
BRANCH   4   5
HETATM    5  C4  UNL     1      -0.036   8.679  -1.357  1.00  0.00     0.200 C
BRANCH   5   6
HETATM    6  C5  UNL     1       0.036   9.331  -0.078  1.00  0.00     0.061 C
HETATM    7  C6  UNL     1      -1.057   8.644   0.796  1.00  0.00     0.042 C
HETATM    8  C7  UNL     1      -1.605   9.819   1.519  1.00  0.00     0.040 C
HETATM    9  C8  UNL     1      -2.028  10.521   0.191  1.00  0.00     0.133 C
HETATM   10  C15 UNL     1      -0.553  10.756   2.098  1.00  0.00     0.233 C
HETATM   11  N1  UNL     1      -0.610  10.660  -0.192  1.00  0.00    -0.339 N
HETATM   12  C9  UNL     1       0.132  11.785  -0.559  1.00  0.00     0.226 C
HETATM   13  O2  UNL     1       0.875  11.503  -1.495  1.00  0.00    -0.273 OA
HETATM   14  C10 UNL     1       0.136  13.169   0.003  1.00  0.00     0.102 C
HETATM   15  C11 UNL     1       1.419  13.901  -0.269  1.00  0.00     0.022 C
HETATM   16  C12 UNL     1      -0.171  13.141   1.518  1.00  0.00     0.286 C
HETATM   17  N2  UNL     1      -1.007  12.087   1.911  1.00  0.00     0.094 N
HETATM   18  C16 UNL     1       0.842  10.405   1.899  1.00  0.00     0.027 C
HETATM   19  C17 UNL     1       1.575   9.932   3.174  1.00  0.00     0.023 C
HETATM   20  C25 UNL     1       1.174   9.337   0.836  1.00  0.00     0.028 C
HETATM   21  C18 UNL     1       3.064   9.949   2.932  1.00  0.00    -0.000 C
HETATM   22  C19 UNL     1       3.688  11.297   2.946  1.00  0.00     0.022 C
HETATM   23  C22 UNL     1       3.409   9.157   1.728  1.00  0.00     0.134 C
HETATM   24  C23 UNL     1       2.572   9.541   0.476  1.00  0.00     0.018 C
HETATM   25  C24 UNL     1       3.195   8.694  -0.573  1.00  0.00     0.013 C
BRANCH  17  26
HETATM   26  C13 UNL     1      -1.830  12.552   3.028  1.00  0.00     0.268 C
HETATM   27  C14 UNL     1      -2.758  13.659   2.707  1.00  0.00     0.037 C
ENDBRANCH  17  26
BRANCH  21  28
HETATM   28  C20 UNL     1       3.672   9.203   4.102  1.00  0.00    -0.025 C
HETATM   29  C21 UNL     1       2.947   8.319   4.776  1.00  0.00     0.008 C
ENDBRANCH  21  28
BRANCH  23  30
HETATM   30  O3  UNL     1       4.730   9.489   1.364  1.00  0.00    -0.394 OA
ATOM     31  H3  UNL     1       5.114   8.726   0.950  1.00  0.00     0.210 HD
ENDBRANCH  23  30
ENDBRANCH   5   6
ENDBRANCH   4   5
ENDBRANCH   3   4
TORSDOF 6
ENDMDL