MODEL 3
REMARK VINA RESULT: -7.601922362      1.431      2.522
REMARK  6 active torsions:
REMARK  status: ('A' for Active; 'I' for Inactive)
REMARK    1  A    between atoms: C2_2  and  C3_4
REMARK    2  A    between atoms: C10_11  and  C11_12
REMARK       I    between atoms: C11_12  and  N1_14
REMARK    3  A    between atoms: C13_16  and  C14_17
REMARK       I    between atoms: C14_17  and  N2_19
REMARK    4  A    between atoms: N2_19  and  C15_21
REMARK    5  A    between atoms: C15_21  and  C16_22
REMARK    6  A    between atoms: C16_22  and  N3_23
ROOT
HETATM    1  C11 UNL     1       4.757   9.116  -0.379  1.00  0.00     0.229 C
HETATM    2  O2  UNL     1       5.429   8.118  -0.753  1.00  0.00    -0.272 OA
HETATM    3  N1  UNL     1       5.412  10.091   0.424  1.00  0.00    -0.334 N
HETATM    4  C12 UNL     1       5.285  11.373   1.150  1.00  0.00     0.161 A
HETATM    5  C13 UNL     1       6.568  10.610   1.119  1.00  0.00     0.197 A
ENDROOT
BRANCH   1   6
HETATM    6  C10 UNL     1       3.354   9.240  -0.774  1.00  0.00     0.043 C
HETATM    7  C9  UNL     1       2.874   8.021  -1.570  1.00  0.00     0.024 C
HETATM    8  C7  UNL     1       1.449   8.243  -1.982  1.00  0.00    -0.012 C
HETATM    9  C6  UNL     1       1.271   9.501  -2.801  1.00  0.00     0.009 C
HETATM   10  C8  UNL     1       0.582   8.297  -0.760  1.00  0.00     0.022 C
HETATM   11  C5  UNL     1       1.708  10.690  -1.964  1.00  0.00    -0.012 C
HETATM   12  C4  UNL     1       0.884  10.780  -0.694  1.00  0.00     0.022 C
HETATM   13  C23 UNL     1       3.153  10.485  -1.594  1.00  0.00     0.024 C
HETATM   14  C3  UNL     1       1.029   9.488   0.067  1.00  0.00     0.022 C
HETATM   15  C24 UNL     1       2.471   9.323   0.456  1.00  0.00     0.036 C
BRANCH  14  16
HETATM   16  C2  UNL     1       0.208   9.565   1.292  1.00  0.00     0.131 C
HETATM   17  C1  UNL     1       0.692  10.234   2.542  1.00  0.00     0.091 C
HETATM   18  O1  UNL     1      -0.914   9.084   1.335  1.00  0.00    -0.298 OA
ENDBRANCH  14  16
ENDBRANCH   1   6
BRANCH   5  19
HETATM   19  C14 UNL     1       6.975  10.007   2.411  1.00  0.00     0.242 C
HETATM   20  O3  UNL     1       8.147  10.161   2.809  1.00  0.00    -0.271 OA
HETATM   21  N2  UNL     1       6.051   9.277   3.165  1.00  0.00    -0.358 N
ATOM     22  H2  UNL     1       5.101   9.176   2.807  1.00  0.00     0.162 HD
BRANCH  21  23
HETATM   23  C15 UNL     1       6.380   8.663   4.419  1.00  0.00     0.152 C
BRANCH  23  24
HETATM   24  C16 UNL     1       5.317   7.726   4.911  1.00  0.00     0.292 C
BRANCH  24  25
HETATM   25  N3  UNL     1       5.642   7.203   6.210  1.00  0.00     0.090 N
HETATM   26  C17 UNL     1       4.566   7.187   7.151  1.00  0.00     0.272 C
HETATM   27  C18 UNL     1       4.062   5.795   7.453  1.00  0.00     0.030 C
HETATM   28  C19 UNL     1       4.966   4.956   8.270  1.00  0.00     0.002 C
HETATM   29  C20 UNL     1       6.258   5.624   8.676  1.00  0.00     0.002 C
HETATM   30  C21 UNL     1       7.153   5.907   7.510  1.00  0.00     0.030 C
HETATM   31  C22 UNL     1       6.397   5.989   6.203  1.00  0.00     0.272 C
ENDBRANCH  24  25
ENDBRANCH  23  24
ENDBRANCH  21  23
ENDBRANCH   5  19
TORSDOF 6
ENDMDL