MODEL 4
REMARK VINA RESULT: -6.850550842      0.260      1.364
REMARK  5 active torsions:
REMARK  status: ('A' for Active; 'I' for Inactive)
REMARK       I    between atoms: C2_4  and  N2_5
REMARK       I    between atoms: C2_4  and  N3_17
REMARK    1  A    between atoms: N2_5  and  C3_7
REMARK    2  A    between atoms: C15_20  and  N4_21
REMARK    3  A    between atoms: N5_24  and  C18_25
REMARK    4  A    between atoms: C18_25  and  C19_26
REMARK    5  A    between atoms: C19_26  and  O1_27
ROOT
HETATM    1  C1  UNL     1       3.317   8.964  -0.191  1.00  0.00     0.165 C
HETATM    2  N1  UNL     1       2.295   9.912   0.047  1.00  0.00    -0.231 N
ATOM      3  H1  UNL     1       1.796  10.199  -0.795  1.00  0.00     0.177 HD
HETATM    4  C2  UNL     1       1.884  10.468   1.092  1.00  0.00     0.672 C
HETATM    5  N2  UNL     1       0.813  11.402   1.030  1.00  0.00    -0.217 N
ATOM      6  H2  UNL     1      -0.095  11.084   1.369  1.00  0.00     0.178 HD
HETATM    7  N3  UNL     1       2.439  10.210   2.369  1.00  0.00    -0.218 N
HETATM    8  C13 UNL     1       3.832  10.390   2.621  1.00  0.00     0.143 C
HETATM    9  C14 UNL     1       4.377   9.136   3.260  1.00  0.00     0.056 C
HETATM   10  C15 UNL     1       3.742   8.963   4.614  1.00  0.00     0.226 C
HETATM   11  C23 UNL     1       2.253   8.886   4.466  1.00  0.00     0.056 C
HETATM   12  C24 UNL     1       1.620   9.779   3.483  1.00  0.00     0.143 C
ENDROOT
BRANCH   5  13
HETATM   13  C3  UNL     1       0.889  12.738   0.541  1.00  0.00     0.048 C
HETATM   14  C4  UNL     1      -0.167  13.652   1.107  1.00  0.00     0.036 C
HETATM   15  C5  UNL     1      -0.038  15.009   0.455  1.00  0.00    -0.012 C
HETATM   16  C6  UNL     1       1.297  15.586   0.827  1.00  0.00     0.009 C
HETATM   17  C10 UNL     1      -0.113  14.955  -1.042  1.00  0.00     0.009 C
HETATM   18  C7  UNL     1       2.395  14.707   0.288  1.00  0.00    -0.012 C
HETATM   19  C8  UNL     1       2.312  14.549  -1.217  1.00  0.00     0.009 C
HETATM   20  C12 UNL     1       2.232  13.325   0.879  1.00  0.00     0.036 C
HETATM   21  C9  UNL     1       0.962  14.011  -1.561  1.00  0.00    -0.012 C
HETATM   22  C11 UNL     1       0.682  12.652  -0.973  1.00  0.00     0.036 C
ENDBRANCH   5  13
BRANCH  10  23
HETATM   23  N4  UNL     1       4.179   7.737   5.226  1.00  0.00     0.096 N
HETATM   24  C16 UNL     1       3.498   7.424   6.464  1.00  0.00     0.303 C
HETATM   25  C17 UNL     1       4.338   6.575   7.377  1.00  0.00     0.302 C
HETATM   26  N5  UNL     1       5.106   5.578   6.676  1.00  0.00     0.093 N
HETATM   27  C21 UNL     1       5.850   6.087   5.576  1.00  0.00     0.302 C
HETATM   28  C22 UNL     1       5.573   7.590   5.437  1.00  0.00     0.303 C
BRANCH  26  29
HETATM   29  C18 UNL     1       6.062   4.995   7.628  1.00  0.00     0.298 C
BRANCH  29  30
HETATM   30  C19 UNL     1       6.344   5.884   8.794  1.00  0.00     0.197 C
BRANCH  30  31
HETATM   31  O1  UNL     1       7.654   6.333   8.801  1.00  0.00    -0.394 OA
HETATM   32  C20 UNL     1       8.549   5.585   8.090  1.00  0.00     0.201 C
ENDBRANCH  30  31
ENDBRANCH  29  30
ENDBRANCH  26  29
ENDBRANCH  10  23
TORSDOF 5
ENDMDL