MODEL 2
REMARK VINA RESULT: -7.539197073      3.888      8.131
REMARK  5 active torsions:
REMARK  status: ('A' for Active; 'I' for Inactive)
REMARK    1  A    between atoms: C2_2  and  N1_4
REMARK       I    between atoms: N3_19  and  C17_20
REMARK    2  A    between atoms: C17_20  and  C18_22
REMARK    3  A    between atoms: C18_22  and  C19_23
REMARK    4  A    between atoms: C19_23  and  C20_24
REMARK    5  A    between atoms: C20_24  and  C21_25
ROOT
HETATM    1  N1  UNL     1       4.441   9.088  -2.404  1.00  0.00     0.097 N
HETATM    2  C4  UNL     1       5.191   8.123  -1.680  1.00  0.00     0.274 C
HETATM    3  C5  UNL     1       5.908   8.825  -0.547  1.00  0.00     0.041 C
HETATM    4  C6  UNL     1       4.795   9.095   0.501  1.00  0.00     0.036 C
HETATM    5  C7  UNL     1       5.505   9.588   1.692  1.00  0.00     0.016 C
HETATM    6  C8  UNL     1       4.773   9.690   2.982  1.00  0.00     0.001 C
HETATM    7  C9  UNL     1       4.808   8.508   3.912  1.00  0.00     0.052 A
HETATM    8  C10 UNL     1       5.399   8.856   5.278  1.00  0.00     0.279 A
HETATM    9  N2  UNL     1       4.119   8.488   5.866  1.00  0.00     0.089 N
HETATM   10  C11 UNL     1       4.187   7.376   6.792  1.00  0.00     0.310 C
HETATM   11  C12 UNL     1       3.570   8.120   4.565  1.00  0.00     0.229 A
HETATM   12  C13 UNL     1       2.267   8.815   4.332  1.00  0.00     0.043 C
HETATM   13  C14 UNL     1       2.532  10.166   3.767  1.00  0.00     0.019 A
HETATM   14  C15 UNL     1       3.371   9.684   2.601  1.00  0.00     0.022 A
HETATM   15  C16 UNL     1       2.569  10.910   2.614  1.00  0.00     0.120 A
HETATM   16  N3  UNL     1       2.092  10.891   1.252  1.00  0.00    -0.256 N
HETATM   17  C17 UNL     1       0.710  11.066   1.143  1.00  0.00     0.238 C
HETATM   18  O1  UNL     1       0.043  11.217   2.196  1.00  0.00    -0.272 OA
HETATM   19  N4  UNL     1       2.789  10.729   0.038  1.00  0.00    -0.302 N
ATOM     20  H4  UNL     1       2.411  11.246  -0.756  1.00  0.00     0.186 HD
HETATM   21  C22 UNL     1       3.867   9.999  -0.217  1.00  0.00     0.036 C
HETATM   22  C23 UNL     1       4.083  10.271  -1.680  1.00  0.00     0.327 C
ENDROOT
BRANCH  17  23
HETATM   23  C18 UNL     1       0.128  11.062  -0.209  1.00  0.00     0.105 C
BRANCH  23  24
HETATM   24  C19 UNL     1      -1.106  10.269  -0.394  1.00  0.00     0.020 C
BRANCH  24  25
HETATM   25  C20 UNL     1      -1.079   8.851   0.038  1.00  0.00     0.113 C
BRANCH  25  26
HETATM   26  C21 UNL     1      -0.574   8.006  -1.074  1.00  0.00     0.172 C
HETATM   27  O2  UNL     1       0.626   7.622  -1.134  1.00  0.00    -0.648 OA
HETATM   28  O3  UNL     1      -1.450   7.632  -2.072  1.00  0.00    -0.648 OA
ENDBRANCH  25  26
ENDBRANCH  24  25
ENDBRANCH  23  24
ENDBRANCH  17  23
BRANCH   1  29
HETATM   29  C2  UNL     1       5.026   9.324  -3.673  1.00  0.00     0.215 C
HETATM   30  C1  UNL     1       5.928  10.534  -3.723  1.00  0.00     0.042 C
HETATM   31  C3  UNL     1       5.790   8.165  -4.245  1.00  0.00     0.042 C
ENDBRANCH   1  29
TORSDOF 5
ENDMDL