MODEL 2
REMARK VINA RESULT: -8.696938352      4.618      6.730
REMARK  3 active torsions:
REMARK  status: ('A' for Active; 'I' for Inactive)
REMARK    1  A    between atoms: C6_9  and  N2_10
REMARK    2  A    between atoms: C13_18  and  O1_19
REMARK    3  A    between atoms: O1_19  and  C14_20
ROOT
HETATM    1  C1  UNL     1      16.736  23.179   2.289  1.00  0.00     0.032 C
HETATM    2  C2  UNL     1      16.967  24.377   1.398  1.00  0.00     0.080 C
HETATM    3  C3  UNL     1      18.028  25.226   2.049  1.00  0.00     0.066 C
HETATM    4  C4  UNL     1      18.812  25.999   0.988  1.00  0.00     0.181 C
HETATM    5 CL1  UNL     1      20.409  26.341   1.658  1.00  0.00    -0.102 Cl
HETATM    6  N1  UNL     1      18.088  27.204   0.653  1.00  0.00    -0.369 N
ATOM      7  H1  UNL     1      18.645  28.055   0.586  1.00  0.00     0.161 HD
HETATM    8  C5  UNL     1      16.701  27.350   0.408  1.00  0.00     0.083 A
HETATM    9  C6  UNL     1      16.448  28.596  -0.112  1.00  0.00     0.064 A
HETATM   10  C12 UNL     1      15.152  28.933  -0.419  1.00  0.00     0.069 A
HETATM   11  C13 UNL     1      14.099  28.044  -0.214  1.00  0.00     0.082 A
HETATM   12  C15 UNL     1      14.371  26.797   0.309  1.00  0.00     0.068 A
HETATM   13  C16 UNL     1      15.674  26.427   0.629  1.00  0.00     0.060 A
HETATM   14  N3  UNL     1      15.738  25.107   1.152  1.00  0.00    -0.384 N
ATOM     15  H3  UNL     1      14.858  24.639   1.370  1.00  0.00     0.160 HD
ENDROOT
BRANCH   9  16
HETATM   16  N2  UNL     1      17.490  29.489  -0.319  1.00  0.00    -0.361 N
HETATM   17  C7  UNL     1      18.131  29.704  -1.395  1.00  0.00    -0.013 C
HETATM   18  C8  UNL     1      17.987  29.098  -2.738  1.00  0.00     0.052 C
HETATM   19  C11 UNL     1      19.246  30.716  -1.458  1.00  0.00     0.052 C
HETATM   20  C9  UNL     1      19.201  29.573  -3.506  1.00  0.00     0.006 C
HETATM   21  C10 UNL     1      19.543  30.923  -2.907  1.00  0.00     0.006 C
ATOM     22  H2  UNL     1      17.776  30.040   0.491  1.00  0.00     0.165 HD
ENDBRANCH   9  16
BRANCH  11  23
HETATM   23  O1  UNL     1      12.798  28.400  -0.530  1.00  0.00    -0.255 OA
BRANCH  23  24
HETATM   24  C14 UNL     1      11.864  28.831   0.442  1.00  0.00     0.530 C
HETATM   25  F1  UNL     1      12.377  28.812   1.711  1.00  0.00    -0.144 F
HETATM   26  F2  UNL     1      11.430  30.086   0.060  1.00  0.00    -0.144 F
HETATM   27  F3  UNL     1      10.791  27.958   0.394  1.00  0.00    -0.144 F
ENDBRANCH  23  24
ENDBRANCH  11  23
TORSDOF 3
ENDMDL