MODEL 1
REMARK VINA RESULT: -8.476591337      0.000      0.000
REMARK  4 active torsions:
REMARK  status: ('A' for Active; 'I' for Inactive)
REMARK    1  A    between atoms: C3_4  and  C4_5
REMARK    2  A    between atoms: C12_13  and  O1_14
REMARK    3  A    between atoms: O1_14  and  C13_15
REMARK    4  A    between atoms: C16_21  and  O2_22
ROOT
HETATM    1  C4  UNL     1      16.224  27.110   0.145  1.00  0.00    -0.058 C
HETATM    2  C5  UNL     1      15.922  25.665   0.262  1.00  0.00     0.048 C
HETATM    3  C6  UNL     1      15.218  27.931  -0.074  1.00  0.00    -0.063 C
HETATM    4  C7  UNL     1      13.797  27.541  -0.202  1.00  0.00     0.060 C
HETATM    5  C8  UNL     1      12.997  28.810   0.040  1.00  0.00     0.086 C
HETATM    6  C9  UNL     1      13.999  29.803   0.558  1.00  0.00     0.039 C
HETATM    7  C10 UNL     1      15.237  29.403  -0.255  1.00  0.00     0.055 C
HETATM    8  C11 UNL     1      14.928  29.823  -1.646  1.00  0.00     0.013 A
HETATM    9  C12 UNL     1      15.912  30.281  -2.487  1.00  0.00     0.087 A
HETATM   10  C14 UNL     1      15.630  30.677  -3.795  1.00  0.00     0.040 A
HETATM   11  C15 UNL     1      14.336  30.609  -4.261  1.00  0.00     0.041 A
HETATM   12  C16 UNL     1      13.327  30.142  -3.406  1.00  0.00     0.092 A
HETATM   13  C17 UNL     1      13.622  29.755  -2.117  1.00  0.00     0.071 A
HETATM   14  N1  UNL     1      12.564  29.292  -1.281  1.00  0.00    -0.382 N
ATOM     15  H1  UNL     1      11.588  29.295  -1.574  1.00  0.00     0.160 HD
ENDROOT
BRANCH   1  16
HETATM   16  C3  UNL     1      17.584  27.555   0.262  1.00  0.00     0.026 C
HETATM   17  C2  UNL     1      18.546  27.122   1.021  1.00  0.00     0.008 C
HETATM   18  C1  UNL     1      19.891  27.799   0.921  1.00  0.00     0.062 C
HETATM   19 CL1  UNL     1      18.449  25.819   2.168  1.00  0.00    -0.089 Cl
ENDBRANCH   1  16
BRANCH   9  20
HETATM   20  O1  UNL     1      17.227  30.372  -2.074  1.00  0.00    -0.255 OA
BRANCH  20  21
HETATM   21  C13 UNL     1      18.318  29.715  -2.627  1.00  0.00     0.530 C
HETATM   22  F1  UNL     1      18.104  28.401  -2.971  1.00  0.00    -0.144 F
HETATM   23  F2  UNL     1      18.872  30.427  -3.697  1.00  0.00    -0.144 F
HETATM   24  F3  UNL     1      19.327  29.697  -1.657  1.00  0.00    -0.144 F
ENDBRANCH  20  21
ENDBRANCH   9  20
BRANCH  12  25
HETATM   25  O2  UNL     1      12.037  30.086  -3.906  1.00  0.00    -0.358 OA
ATOM     26  H2  UNL     1      11.524  30.885  -3.888  1.00  0.00     0.217 HD
ENDBRANCH  12  25
TORSDOF 4
ENDMDL