MODEL 1
REMARK VINA RESULT: -7.426997773      0.000      0.000
REMARK  5 active torsions:
REMARK  status: ('A' for Active; 'I' for Inactive)
REMARK    1  A    between atoms: C4_6  and  N1_7
REMARK    2  A    between atoms: N1_7  and  C5_9
REMARK    3  A    between atoms: C5_9  and  C7_11
REMARK    4  A    between atoms: C5_9  and  C13_17
REMARK    5  A    between atoms: C14_21  and  O1_22
ROOT
HETATM    1  C5  UNL     1      15.771  29.369  -0.577  1.00  0.00     0.129 C
HETATM    2  C6  UNL     1      16.462  30.216   0.444  1.00  0.00     0.048 C
ENDROOT
BRANCH   1   3
HETATM    3  N1  UNL     1      16.460  28.115  -0.828  1.00  0.00    -0.365 N
ATOM      4  H1  UNL     1      16.255  27.590  -1.679  1.00  0.00     0.161 HD
BRANCH   3   5
HETATM    5  C4  UNL     1      17.431  27.599   0.108  1.00  0.00     0.106 A
HETATM    6  S1  UNL     1      18.929  28.267   0.575  1.00  0.00    -0.057 SA
HETATM    7  C3  UNL     1      19.432  27.073   1.680  1.00  0.00     0.085 A
HETATM    8  C2  UNL     1      18.403  26.177   1.653  1.00  0.00     0.003 A
HETATM    9 CL1  UNL     1      20.923  26.995   2.641  1.00  0.00    -0.076 Cl
HETATM   10  C1  UNL     1      18.471  24.936   2.525  1.00  0.00     0.054 C
HETATM   11  C14 UNL     1      17.369  26.444   0.844  1.00  0.00     0.107 A
BRANCH  11  12
HETATM   12  O1  UNL     1      16.234  25.594   0.720  1.00  0.00    -0.357 OA
ATOM     13  H1  UNL     1      15.480  25.806   0.181  1.00  0.00     0.217 HD
ENDBRANCH  11  12
ENDBRANCH   3   5
ENDBRANCH   1   3
BRANCH   1  14
HETATM   14  C7  UNL     1      14.296  29.248  -0.472  1.00  0.00     0.022 C
HETATM   15  C8  UNL     1      13.779  27.858  -0.164  1.00  0.00     0.007 C
HETATM   16  C9  UNL     1      12.267  27.891  -0.455  1.00  0.00     0.000 C
HETATM   17  C10 UNL     1      11.554  28.929   0.349  1.00  0.00     0.000 C
HETATM   18  C11 UNL     1      12.538  29.510   1.326  1.00  0.00     0.000 C
HETATM   19  C12 UNL     1      13.717  30.150   0.611  1.00  0.00     0.007 C
ENDBRANCH   1  14
BRANCH   1  20
HETATM   20  C13 UNL     1      16.019  30.154  -1.915  1.00  0.00     0.412 C
HETATM   21  F1  UNL     1      14.920  29.931  -2.745  1.00  0.00    -0.168 F
HETATM   22  F2  UNL     1      16.288  31.455  -1.679  1.00  0.00    -0.168 F
HETATM   23  F3  UNL     1      17.073  29.544  -2.540  1.00  0.00    -0.168 F
ENDBRANCH   1  20
TORSDOF 5
ENDMDL