MODEL 1
REMARK VINA RESULT: -9.392739618      0.000      0.000
REMARK  4 active torsions:
REMARK  status: ('A' for Active; 'I' for Inactive)
REMARK    1  A    between atoms: O1_1  and  C1_3
REMARK    2  A    between atoms: C4_6  and  N1_7
REMARK    3  A    between atoms: N1_7  and  C5_9
REMARK    4  A    between atoms: C15_20  and  C16_21
ROOT
HETATM    1  N1  UNL     1      18.122  28.478   0.468  1.00  0.00    -0.385 N
ATOM      2  H1  UNL     1      18.665  28.823   1.260  1.00  0.00     0.160 HD
ENDROOT
BRANCH   1   3
HETATM    3  C4  UNL     1      17.688  27.130   0.532  1.00  0.00     0.043 A
HETATM    4  C3  UNL     1      16.487  26.759  -0.021  1.00  0.00     0.033 A
HETATM    5  C2  UNL     1      16.042  25.462   0.018  1.00  0.00     0.039 A
HETATM    6  C1  UNL     1      16.813  24.496   0.626  1.00  0.00     0.066 A
HETATM    7  C17 UNL     1      18.009  24.887   1.172  1.00  0.00     0.055 A
HETATM    8  C15 UNL     1      18.481  26.193   1.145  1.00  0.00     0.076 A
BRANCH   6   9
HETATM    9  O1  UNL     1      16.373  23.168   0.674  1.00  0.00    -0.361 OA
ATOM     10  H1  UNL     1      16.761  22.512   0.106  1.00  0.00     0.217 HD
ENDBRANCH   6   9
BRANCH   8  11
HETATM   11  C16 UNL     1      19.795  26.504   1.767  1.00  0.00     0.419 C
HETATM   12  F1  UNL     1      20.060  25.489   2.700  1.00  0.00    -0.166 F
HETATM   13  F2  UNL     1      20.852  26.456   0.896  1.00  0.00    -0.166 F
HETATM   14  F3  UNL     1      19.836  27.662   2.471  1.00  0.00    -0.166 F
ENDBRANCH   8  11
ENDBRANCH   1   3
BRANCH   1  15
HETATM   15  C5  UNL     1      17.872  29.408  -0.599  1.00  0.00     0.084 C
HETATM   16  C6  UNL     1      17.920  30.851  -0.233  1.00  0.00     0.035 C
HETATM   17  C7  UNL     1      16.973  31.607  -1.147  1.00  0.00     0.076 C
HETATM   18  S1  UNL     1      17.468  31.298  -2.840  1.00  0.00    -0.159 SA
HETATM   19  C8  UNL     1      18.649  29.965  -2.941  1.00  0.00     0.010 C
HETATM   20  C9  UNL     1      20.032  30.569  -3.216  1.00  0.00     0.020 C
HETATM   21  C13 UNL     1      18.317  29.157  -4.204  1.00  0.00     0.020 C
HETATM   22  C14 UNL     1      18.714  29.070  -1.775  1.00  0.00     0.045 C
HETATM   23  C10 UNL     1      19.820  31.710  -4.167  1.00  0.00     0.002 C
HETATM   24  C11 UNL     1      19.203  31.167  -5.424  1.00  0.00     0.000 C
HETATM   25  C12 UNL     1      19.033  29.677  -5.405  1.00  0.00     0.002 C
ENDBRANCH   1  15
TORSDOF 4
ENDMDL