MODEL 1
REMARK VINA RESULT: -7.889014981      0.000      0.000
REMARK  5 active torsions:
REMARK  status: ('A' for Active; 'I' for Inactive)
REMARK    1  A    between atoms: C1_2  and  C2_5
REMARK    2  A    between atoms: C4_7  and  N1_8
REMARK    3  A    between atoms: N1_8  and  C5_10
REMARK    4  A    between atoms: C5_10  and  N2_12
REMARK    5  A    between atoms: N2_12  and  C6_14
ROOT
HETATM    1  N1  UNL     1      17.515  29.986  -0.646  1.00  0.00    -0.328 N
ATOM      2  H1  UNL     1      17.367  30.744   0.020  1.00  0.00     0.169 HD
ENDROOT
BRANCH   1   3
HETATM    3  C4  UNL     1      18.333  30.294  -1.769  1.00  0.00     0.078 A
HETATM    4  C3  UNL     1      18.390  29.608  -2.973  1.00  0.00     0.055 A
HETATM    5  C2  UNL     1      19.231  30.070  -3.897  1.00  0.00     0.079 A
HETATM    6  C12 UNL     1      19.972  31.175  -3.606  1.00  0.00     0.091 A
HETATM    7  S2  UNL     1      19.461  31.536  -2.027  1.00  0.00    -0.059 SA
HETATM    8 CL1  UNL     1      21.156  32.035  -4.578  1.00  0.00    -0.075 Cl
BRANCH   5   9
HETATM    9  C1  UNL     1      19.397  29.415  -5.257  1.00  0.00     0.419 C
HETATM   10  F1  UNL     1      18.600  28.289  -5.230  1.00  0.00    -0.166 F
HETATM   11  F2  UNL     1      20.691  29.048  -5.497  1.00  0.00    -0.166 F
HETATM   12  F3  UNL     1      18.967  30.309  -6.228  1.00  0.00    -0.166 F
ENDBRANCH   5   9
ENDBRANCH   1   3
BRANCH   1  13
HETATM   13  C5  UNL     1      16.894  28.782  -0.341  1.00  0.00     0.172 C
HETATM   14  S1  UNL     1      15.237  28.834  -0.211  1.00  0.00    -0.041 SA
BRANCH  13  15
HETATM   15  N2  UNL     1      17.484  27.540  -0.132  1.00  0.00    -0.362 N
ATOM     16  H2  UNL     1      17.302  26.823  -0.833  1.00  0.00     0.162 HD
BRANCH  15  17
HETATM   17  C6  UNL     1      18.329  27.161   0.978  1.00  0.00     0.083 C
HETATM   18  C7  UNL     1      18.518  25.689   1.159  1.00  0.00     0.025 C
HETATM   19  C8  UNL     1      18.878  25.500   2.644  1.00  0.00     0.002 C
HETATM   20  C9  UNL     1      20.246  26.161   2.806  1.00  0.00     0.000 C
HETATM   21  C10 UNL     1      20.272  27.589   2.373  1.00  0.00     0.002 C
HETATM   22  C11 UNL     1      19.696  27.797   0.969  1.00  0.00     0.025 C
ENDBRANCH  15  17
ENDBRANCH  13  15
ENDBRANCH   1  13
TORSDOF 5
ENDMDL