MODEL 2
REMARK VINA RESULT: -8.768390620      4.092      5.525
REMARK  4 active torsions:
REMARK  status: ('A' for Active; 'I' for Inactive)
REMARK    1  A    between atoms: C6_6  and  N1_7
REMARK    2  A    between atoms: N1_7  and  C7_9
REMARK    3  A    between atoms: C13_16  and  C14_17
REMARK    4  A    between atoms: C16_22  and  O1_23
ROOT
HETATM    1  C1  UNL     1      14.010  28.148   0.166  1.00  0.00     0.015 C
HETATM    2  C2  UNL     1      14.399  29.584  -0.217  1.00  0.00    -0.041 C
HETATM    3  C3  UNL     1      13.526  30.478   0.674  1.00  0.00     0.015 C
HETATM    4  C4  UNL     1      15.823  29.883   0.098  1.00  0.00     0.050 C
HETATM    5  C5  UNL     1      16.730  29.779  -1.129  1.00  0.00    -0.013 A
HETATM    6  C6  UNL     1      18.012  29.264  -1.130  1.00  0.00     0.082 A
HETATM    7  S1  UNL     1      18.499  29.418  -2.757  1.00  0.00    -0.067 SA
HETATM    8  C13 UNL     1      17.095  30.119  -3.395  1.00  0.00     0.100 A
HETATM    9  C15 UNL     1      16.275  30.217  -2.314  1.00  0.00     0.002 A
HETATM   10  C16 UNL     1      14.867  30.787  -2.338  1.00  0.00     0.154 C
HETATM   11  C17 UNL     1      14.007  29.761  -1.639  1.00  0.00     0.045 C
ENDROOT
BRANCH   6  12
HETATM   12  N1  UNL     1      18.728  28.754   0.013  1.00  0.00    -0.350 N
ATOM     13  H1  UNL     1      19.483  29.326   0.392  1.00  0.00     0.166 HD
BRANCH  12  14
HETATM   14  C7  UNL     1      18.464  27.531   0.640  1.00  0.00     0.032 A
HETATM   15  C8  UNL     1      17.418  26.679   0.413  1.00  0.00     0.029 A
HETATM   16  C9  UNL     1      17.256  25.467   1.069  1.00  0.00     0.002 A
HETATM   17  C10 UNL     1      18.180  25.066   2.006  1.00  0.00     0.000 A
HETATM   18  C11 UNL     1      19.232  25.895   2.251  1.00  0.00     0.002 A
HETATM   19  C12 UNL     1      19.387  27.095   1.599  1.00  0.00     0.029 A
ENDBRANCH  12  14
ENDBRANCH   6  12
BRANCH   8  20
HETATM   20  C14 UNL     1      16.846  30.526  -4.821  1.00  0.00     0.424 C
HETATM   21  F1  UNL     1      17.153  31.871  -4.900  1.00  0.00    -0.166 F
HETATM   22  F2  UNL     1      17.685  29.764  -5.627  1.00  0.00    -0.166 F
HETATM   23  F3  UNL     1      15.560  30.287  -5.206  1.00  0.00    -0.166 F
ENDBRANCH   8  20
BRANCH  10  24
HETATM   24  O1  UNL     1      14.907  32.004  -1.712  1.00  0.00    -0.391 OA
ATOM     25  H1  UNL     1      14.147  32.058  -1.145  1.00  0.00     0.210 HD
ENDBRANCH  10  24
TORSDOF 4
ENDMDL