MODEL 1
REMARK VINA RESULT: -10.049311079      0.000      0.000
REMARK  3 active torsions:
REMARK  status: ('A' for Active; 'I' for Inactive)
REMARK    1  A    between atoms: C2_3  and  N2_4
REMARK       I    between atoms: N3_6  and  C3_8
REMARK    2  A    between atoms: C8_17  and  C9_18
REMARK    3  A    between atoms: C12_21  and  C13_22
ROOT
HETATM    1  N1  UNL     1      16.280  26.237  -0.082  1.00  0.00    -0.099 NA
HETATM    2  C1  UNL     1      17.373  25.966   0.767  1.00  0.00     0.087 A
HETATM    3  C2  UNL     1      17.394  24.725   1.389  1.00  0.00     0.073 A
HETATM    4  C4  UNL     1      18.419  24.464   2.312  1.00  0.00     0.035 A
HETATM    5  C5  UNL     1      19.386  25.403   2.601  1.00  0.00     0.033 A
HETATM    6  C6  UNL     1      19.351  26.620   1.972  1.00  0.00     0.045 A
HETATM    7  N4  UNL     1      20.154  27.712   2.066  1.00  0.00    -0.364 N
ATOM      8  H4  UNL     1      20.975  27.786   2.667  1.00  0.00     0.165 HD
HETATM    9  C7  UNL     1      19.719  28.652   1.273  1.00  0.00     0.101 A
HETATM   10  C8  UNL     1      18.583  28.163   0.614  1.00  0.00     0.004 A
HETATM   11  C16 UNL     1      18.334  26.900   1.044  1.00  0.00     0.029 A
ENDROOT
BRANCH  10  12
HETATM   12  C9  UNL     1      17.911  28.874  -0.475  1.00  0.00    -0.024 A
HETATM   13  C10 UNL     1      16.721  29.522  -0.197  1.00  0.00     0.013 A
HETATM   14  C11 UNL     1      16.027  30.122  -1.231  1.00  0.00     0.017 A
HETATM   15  C12 UNL     1      16.506  30.077  -2.522  1.00  0.00     0.048 A
HETATM   16  C14 UNL     1      17.687  29.443  -2.804  1.00  0.00     0.017 A
HETATM   17  C15 UNL     1      18.370  28.844  -1.739  1.00  0.00     0.013 A
BRANCH  15  18
HETATM   18  C13 UNL     1      15.676  30.670  -3.597  1.00  0.00     0.417 C
HETATM   19  F2  UNL     1      16.298  30.450  -4.818  1.00  0.00    -0.166 F
HETATM   20  F3  UNL     1      14.425  30.027  -3.656  1.00  0.00    -0.166 F
HETATM   21  F4  UNL     1      15.439  32.003  -3.435  1.00  0.00    -0.166 F
ENDBRANCH  15  18
ENDBRANCH  10  12
BRANCH   3  22
HETATM   22  N2  UNL     1      16.423  23.756   1.082  1.00  0.00    -0.294 N
HETATM   23  N3  UNL     1      15.528  23.424   1.874  1.00  0.00    -0.241 N
HETATM   24  C3  UNL     1      15.311  23.922   3.161  1.00  0.00     0.417 C
ATOM     25  H3  UNL     1      14.879  22.706   1.549  1.00  0.00     0.192 HD
HETATM   26  O1  UNL     1      15.036  25.113   3.431  1.00  0.00    -0.232 OA
HETATM   27  F1  UNL     1      15.381  23.100   4.271  1.00  0.00    -0.141 F
ATOM     28  H2  UNL     1      16.455  23.306   0.167  1.00  0.00     0.187 HD
ENDBRANCH   3  22
TORSDOF 3
ENDMDL