MODEL 4
REMARK VINA RESULT: -8.417743871      5.240      7.547
REMARK  5 active torsions:
REMARK  status: ('A' for Active; 'I' for Inactive)
REMARK    1  A    between atoms: C2_2  and  N1_5
REMARK    2  A    between atoms: N1_5  and  C4_7
REMARK    3  A    between atoms: C4_7  and  C5_11
REMARK    4  A    between atoms: C9_15  and  C10_16
REMARK    5  A    between atoms: C12_19  and  C13_20
ROOT
HETATM    1  C5  UNL     1      17.342  26.586   0.474  1.00  0.00     0.008 A
HETATM    2  C6  UNL     1      18.414  26.753   1.347  1.00  0.00     0.015 A
HETATM    3  C7  UNL     1      19.296  27.797   1.257  1.00  0.00     0.002 A
HETATM    4  C8  UNL     1      19.083  28.706   0.243  1.00  0.00     0.014 A
HETATM    5  C9  UNL     1      18.051  28.601  -0.647  1.00  0.00    -0.008 A
HETATM    6  C14 UNL     1      17.180  27.544  -0.530  1.00  0.00     0.029 A
ENDROOT
BRANCH   1   7
HETATM    7  C4  UNL     1      16.468  25.454   0.636  1.00  0.00     0.106 C
HETATM    8  N2  UNL     1      16.330  24.590  -0.267  1.00  0.00    -0.385 N
ATOM      9  H22 UNL     1      15.710  23.787  -0.152  1.00  0.00     0.157 HD
ATOM     10  H21 UNL     1      16.930  24.688  -1.086  1.00  0.00     0.157 HD
BRANCH   7  11
HETATM   11  N1  UNL     1      15.623  25.316   1.788  1.00  0.00    -0.354 N
ATOM     12  H1  UNL     1      14.765  25.865   1.844  1.00  0.00     0.163 HD
BRANCH  11  13
HETATM   13  C2  UNL     1      15.957  24.416   2.871  1.00  0.00     0.101 C
HETATM   14  C1  UNL     1      15.376  23.025   2.662  1.00  0.00     0.056 C
HETATM   15  C3  UNL     1      15.474  24.903   4.224  1.00  0.00     0.056 C
HETATM   16 CL1  UNL     1      17.719  24.252   2.949  1.00  0.00    -0.096 Cl
ENDBRANCH  11  13
ENDBRANCH   7  11
ENDBRANCH   1   7
BRANCH   5  17
HETATM   17  C10 UNL     1      17.916  29.599  -1.753  1.00  0.00     0.050 A
HETATM   18  C11 UNL     1      17.533  30.905  -1.482  1.00  0.00     0.082 A
HETATM   19  S1  UNL     1      17.606  31.610  -3.028  1.00  0.00    -0.077 SA
HETATM   20  C12 UNL     1      18.117  30.214  -3.928  1.00  0.00     0.159 A
HETATM   21  N3  UNL     1      18.194  29.308  -2.972  1.00  0.00    -0.346 N
ATOM     22  H3  UNL     1      18.480  28.358  -3.206  1.00  0.00     0.166 HD
BRANCH  20  23
HETATM   23  C13 UNL     1      18.373  30.133  -5.413  1.00  0.00     0.439 C
HETATM   24  F1  UNL     1      19.228  29.056  -5.587  1.00  0.00    -0.164 F
HETATM   25  F2  UNL     1      17.156  29.833  -6.013  1.00  0.00    -0.164 F
HETATM   26  F3  UNL     1      18.907  31.311  -5.849  1.00  0.00    -0.164 F
ENDBRANCH  20  23
ENDBRANCH   5  17
TORSDOF 5
ENDMDL