MODEL 4
REMARK VINA RESULT: -9.741499119      1.381      1.817
REMARK  4 active torsions:
REMARK  status: ('A' for Active; 'I' for Inactive)
REMARK       I    between atoms: C1_4  and  N2_5
REMARK       I    between atoms: C1_4  and  N5_18
REMARK    1  A    between atoms: N3_7  and  C2_9
REMARK    2  A    between atoms: C6_13  and  N4_14
REMARK    3  A    between atoms: N5_18  and  C8_20
REMARK    4  A    between atoms: C12_25  and  C13_26
ROOT
HETATM    1  N1  UNL     1      15.826  30.186   0.325  1.00  0.00    -0.233 N
ATOM      2  H11 UNL     1      16.759  30.356   0.702  1.00  0.00     0.174 HD
ATOM      3  H12 UNL     1      15.055  30.794   0.600  1.00  0.00     0.174 HD
HETATM    4  C1  UNL     1      15.625  29.224  -0.484  1.00  0.00     0.691 C
HETATM    5  N2  UNL     1      14.338  28.989  -1.005  1.00  0.00    -0.132 N
ATOM      6  H2  UNL     1      13.746  28.256  -0.615  1.00  0.00     0.205 HD
HETATM    7  N3  UNL     1      13.932  29.698  -1.955  1.00  0.00    -0.287 N
ATOM      8  H3  UNL     1      14.571  30.415  -2.300  1.00  0.00     0.187 HD
HETATM    9  N5  UNL     1      16.693  28.382  -0.866  1.00  0.00    -0.191 N
ATOM     10  H5  UNL     1      17.043  28.432  -1.822  1.00  0.00     0.184 HD
ENDROOT
BRANCH   9  11
HETATM   11  C8  UNL     1      17.301  27.458   0.050  1.00  0.00     0.050 A
HETATM   12  C9  UNL     1      16.667  26.270   0.327  1.00  0.00     0.033 A
HETATM   13  C10 UNL     1      17.210  25.329   1.210  1.00  0.00     0.045 A
HETATM   14  C11 UNL     1      18.417  25.611   1.815  1.00  0.00     0.131 A
HETATM   15  F1  UNL     1      19.017  24.762   2.682  1.00  0.00    -0.205 F
HETATM   16  C12 UNL     1      19.040  26.806   1.526  1.00  0.00     0.088 A
HETATM   17  C14 UNL     1      18.506  27.734   0.656  1.00  0.00     0.049 A
BRANCH  16  18
HETATM   18  C13 UNL     1      20.341  27.107   2.178  1.00  0.00     0.420 C
HETATM   19  F2  UNL     1      20.699  28.388   1.735  1.00  0.00    -0.166 F
HETATM   20  F3  UNL     1      21.338  26.267   1.739  1.00  0.00    -0.166 F
HETATM   21  F4  UNL     1      20.244  27.161   3.541  1.00  0.00    -0.166 F
ENDBRANCH  16  18
ENDBRANCH   9  11
BRANCH   7  22
HETATM   22  C2  UNL     1      12.683  29.602  -2.591  1.00  0.00     0.051 A
HETATM   23  C3  UNL     1      11.678  28.878  -1.966  1.00  0.00     0.031 A
HETATM   24  C4  UNL     1      10.421  28.724  -2.510  1.00  0.00     0.005 A
HETATM   25  C5  UNL     1      10.175  29.331  -3.738  1.00  0.00     0.036 A
HETATM   26  C6  UNL     1      11.146  30.056  -4.387  1.00  0.00     0.105 A
HETATM   27  C7  UNL     1      12.392  30.190  -3.818  1.00  0.00     0.067 A
BRANCH  26  28
HETATM   28  N4  UNL     1      10.901  30.673  -5.636  1.00  0.00    -0.116 N
HETATM   29  O1  UNL     1       9.748  30.982  -5.984  1.00  0.00    -0.532 OA
HETATM   30  O2  UNL     1      11.947  30.932  -6.470  1.00  0.00    -0.532 OA
ENDBRANCH  26  28
ENDBRANCH   7  22
TORSDOF 4
ENDMDL