MODEL 1
REMARK VINA RESULT: -7.411729837      0.000      0.000
REMARK  4 active torsions:
REMARK  status: ('A' for Active; 'I' for Inactive)
REMARK    1  A    between atoms: C2_2  and  C3_3
REMARK    2  A    between atoms: C3_3  and  N1_5
REMARK    3  A    between atoms: C9_10  and  C10_11
REMARK    4  A    between atoms: C11_15  and  O1_16
ROOT
HETATM    1  N1  UNL     1      14.686  30.000  -0.259  1.00  0.00    -0.313 N
HETATM    2  C5  UNL     1      15.825  29.176  -0.083  1.00  0.00     0.088 A
HETATM    3  C6  UNL     1      17.117  29.701  -0.097  1.00  0.00     0.031 A
HETATM    4  C7  UNL     1      18.239  28.911   0.054  1.00  0.00     0.022 A
HETATM    5  C8  UNL     1      18.039  27.557   0.221  1.00  0.00     0.020 A
HETATM    6  C9  UNL     1      16.758  26.994   0.240  1.00  0.00     0.083 A
HETATM    7  C11 UNL     1      15.666  27.820   0.087  1.00  0.00     0.109 A
HETATM    8  S1  UNL     1      17.365  31.450  -0.289  1.00  0.00    -0.113 SA
HETATM    9  C12 UNL     1      15.738  32.223  -0.227  1.00  0.00     0.061 C
HETATM   10  C13 UNL     1      15.874  33.444   0.668  1.00  0.00     0.032 C
HETATM   11  C14 UNL     1      15.377  32.623  -1.643  1.00  0.00     0.032 C
HETATM   12  C15 UNL     1      14.758  31.319   0.421  1.00  0.00     0.195 C
HETATM   13  C16 UNL     1      13.415  32.019   0.414  1.00  0.00     0.079 C
HETATM   14  F4  UNL     1      15.097  31.162   1.740  1.00  0.00    -0.217 F
ENDROOT
BRANCH   1  15
HETATM   15  C3  UNL     1      13.584  29.554  -1.055  1.00  0.00    -0.011 C
HETATM   16  C4  UNL     1      13.609  29.732  -2.531  1.00  0.00     0.063 C
BRANCH  15  17
HETATM   17  C2  UNL     1      12.262  29.305  -0.432  1.00  0.00     0.048 C
HETATM   18  C1  UNL     1      11.305  28.570  -1.407  1.00  0.00     0.011 C
ENDBRANCH  15  17
ENDBRANCH   1  15
BRANCH   7  19
HETATM   19  O1  UNL     1      14.387  27.314   0.105  1.00  0.00    -0.358 OA
ATOM     20  H1  UNL     1      13.991  27.127   0.948  1.00  0.00     0.217 HD
ENDBRANCH   7  19
BRANCH   6  21
HETATM   21  C10 UNL     1      16.544  25.553   0.427  1.00  0.00     0.420 C
HETATM   22  F1  UNL     1      15.707  25.223   1.456  1.00  0.00    -0.166 F
HETATM   23  F2  UNL     1      17.799  24.975   0.663  1.00  0.00    -0.166 F
HETATM   24  F3  UNL     1      16.121  24.969  -0.777  1.00  0.00    -0.166 F
ENDBRANCH   6  21
TORSDOF 4
ENDMDL