MODEL 3
REMARK VINA RESULT: -6.818456099      1.813      2.386
REMARK  11 active torsions:
REMARK  status: ('A' for Active; 'I' for Inactive)
REMARK    1  A    between atoms: C2_2  and  C3_3
REMARK    2  A    between atoms: C3_3  and  C4_4
REMARK    3  A    between atoms: C4_4  and  N1_5
REMARK    4  A    between atoms: N2_7  and  C5_9
REMARK    5  A    between atoms: C5_9  and  C7_11
REMARK    6  A    between atoms: C7_11  and  C8_12
REMARK    7  A    between atoms: C9_13  and  C10_14
REMARK    8  A    between atoms: C10_14  and  C11_15
REMARK    9  A    between atoms: C11_15  and  C12_16
REMARK   10  A    between atoms: C12_16  and  C13_17
REMARK   11  A    between atoms: C14_18  and  O1_19
ROOT
HETATM    1  C5  UNL     1     -18.520  -7.012 159.404  1.00  0.00     0.098 C
HETATM    2  C6  UNL     1     -19.729  -6.740 158.536  1.00  0.00     0.034 C
ENDROOT
BRANCH   1   3
HETATM    3  N2  UNL     1     -18.483  -5.956 160.395  1.00  0.00    -0.336 N
HETATM    4  N1  UNL     1     -17.410  -5.444 160.762  1.00  0.00    -0.340 N
ATOM      5  H1  UNL     1     -16.516  -5.749 160.379  1.00  0.00     0.179 HD
ATOM      6  H2  UNL     1     -19.358  -5.624 160.802  1.00  0.00     0.180 HD
BRANCH   4   7
HETATM    7  C4  UNL     1     -17.486  -4.404 161.751  1.00  0.00     0.142 C
BRANCH   7   8
HETATM    8  C3  UNL     1     -17.810  -4.995 163.108  1.00  0.00     0.047 C
BRANCH   8   9
HETATM    9  C2  UNL     1     -18.325  -3.958 164.022  1.00  0.00    -0.035 C
HETATM   10  C1  UNL     1     -17.473  -3.255 164.746  1.00  0.00     0.007 C
ENDBRANCH   8   9
ENDBRANCH   7   8
ENDBRANCH   4   7
ENDBRANCH   1   3
BRANCH   1  11
HETATM   11  C7  UNL     1     -17.228  -6.885 158.625  1.00  0.00     0.053 C
BRANCH  11  12
HETATM   12  C8  UNL     1     -17.385  -7.139 157.194  1.00  0.00    -0.029 C
HETATM   13  C9  UNL     1     -16.932  -8.226 156.630  1.00  0.00    -0.031 C
BRANCH  13  14
HETATM   14  C10 UNL     1     -16.220  -9.331 157.305  1.00  0.00     0.027 C
BRANCH  14  15
HETATM   15  C11 UNL     1     -15.533 -10.152 156.250  1.00  0.00     0.007 C
BRANCH  15  16
HETATM   16  C12 UNL     1     -16.147 -10.124 154.902  1.00  0.00     0.029 C
BRANCH  16  17
HETATM   17  C13 UNL     1     -16.253 -11.321 154.110  1.00  0.00    -0.003 C
HETATM   18  C14 UNL     1     -17.259 -12.116 153.936  1.00  0.00     0.130 C
BRANCH  18  19
HETATM   19  O1  UNL     1     -18.478 -11.965 154.491  1.00  0.00    -0.368 OA
HETATM   20  C15 UNL     1     -19.650 -12.671 154.141  1.00  0.00     0.208 C
ENDBRANCH  18  19
ENDBRANCH  16  17
ENDBRANCH  15  16
ENDBRANCH  14  15
ENDBRANCH  13  14
ENDBRANCH  11  12
ENDBRANCH   1  11
TORSDOF 11
ENDMDL