MODEL 4
REMARK VINA RESULT: -7.424889692      1.796      2.655
REMARK  11 active torsions:
REMARK  status: ('A' for Active; 'I' for Inactive)
REMARK    1  A    between atoms: C2_2  and  C3_3
REMARK    2  A    between atoms: C3_3  and  C4_4
REMARK    3  A    between atoms: C4_4  and  C5_5
REMARK    4  A    between atoms: C5_5  and  C6_6
REMARK    5  A    between atoms: C7_7  and  C8_8
REMARK    6  A    between atoms: C8_8  and  C9_9
REMARK    7  A    between atoms: C9_9  and  C10_10
REMARK    8  A    between atoms: C10_10  and  C11_11
REMARK    9  A    between atoms: C11_11  and  C12_12
REMARK   10  A    between atoms: C12_12  and  C13_13
REMARK   11  A    between atoms: C13_13  and  C14_14
ROOT
HETATM    1  C10 UNL     1     -16.623  -9.299 159.396  1.00  0.00     0.000 C
ENDROOT
BRANCH   1   2
HETATM    2  C9  UNL     1     -16.267  -9.327 157.939  1.00  0.00     0.004 C
BRANCH   2   3
HETATM    3  C8  UNL     1     -15.237 -10.384 157.682  1.00  0.00     0.027 C
BRANCH   3   4
HETATM    4  C7  UNL     1     -15.284 -10.862 156.262  1.00  0.00    -0.031 C
HETATM    5  C6  UNL     1     -16.115 -10.269 155.417  1.00  0.00    -0.031 C
BRANCH   5   6
HETATM    6  C5  UNL     1     -16.179 -10.727 154.002  1.00  0.00     0.027 C
BRANCH   6   7
HETATM    7  C4  UNL     1     -16.888 -12.041 153.928  1.00  0.00     0.007 C
BRANCH   7   8
HETATM    8  C3  UNL     1     -18.329 -11.885 154.352  1.00  0.00     0.026 C
BRANCH   8   9
HETATM    9  C2  UNL     1     -19.023 -13.176 154.376  1.00  0.00    -0.037 C
HETATM   10  C1  UNL     1     -18.340 -14.300 154.259  1.00  0.00     0.007 C
ENDBRANCH   8   9
ENDBRANCH   7   8
ENDBRANCH   6   7
ENDBRANCH   5   6
ENDBRANCH   3   4
ENDBRANCH   2   3
ENDBRANCH   1   2
BRANCH   1  11
HETATM   11  C11 UNL     1     -18.012  -8.833 159.669  1.00  0.00     0.000 C
BRANCH  11  12
HETATM   12  C12 UNL     1     -18.321  -7.568 158.909  1.00  0.00     0.008 C
BRANCH  12  13
HETATM   13  C13 UNL     1     -19.072  -6.556 159.707  1.00  0.00     0.084 C
BRANCH  13  14
HETATM   14  C14 UNL     1     -18.249  -6.098 160.892  1.00  0.00     0.113 C
HETATM   15  N1  UNL     1     -17.211  -5.362 160.868  1.00  0.00    -0.372 N
HETATM   16  C15 UNL     1     -16.674  -5.120 162.198  1.00  0.00     0.148 C
ATOM     17  H1  UNL     1     -16.802  -4.985 160.013  1.00  0.00     0.161 HD
HETATM   18  C16 UNL     1     -17.870  -5.496 163.061  1.00  0.00     0.196 C
HETATM   19  O1  UNL     1     -18.515  -6.420 162.210  1.00  0.00    -0.338 OA
ENDBRANCH  13  14
ENDBRANCH  12  13
ENDBRANCH  11  12
ENDBRANCH   1  11
TORSDOF 11
ENDMDL