MODEL 5
REMARK VINA RESULT: -7.449357406      1.989      3.348
REMARK  11 active torsions:
REMARK  status: ('A' for Active; 'I' for Inactive)
REMARK    1  A    between atoms: C2_2  and  C3_3
REMARK    2  A    between atoms: C3_3  and  C4_4
REMARK    3  A    between atoms: C4_4  and  C5_5
REMARK    4  A    between atoms: C5_5  and  C6_6
REMARK    5  A    between atoms: C6_6  and  C7_7
REMARK    6  A    between atoms: C8_8  and  C9_9
REMARK    7  A    between atoms: C9_9  and  C10_10
REMARK    8  A    between atoms: C10_10  and  C11_11
REMARK    9  A    between atoms: C11_11  and  C12_12
REMARK   10  A    between atoms: C12_12  and  C13_13
REMARK   11  A    between atoms: C13_13  and  N1_15
ROOT
HETATM    1  C10 UNL     1     -18.373  -8.293 159.699  1.00  0.00     0.004 C
ENDROOT
BRANCH   1   2
HETATM    2  C9  UNL     1     -16.936  -8.703 159.506  1.00  0.00     0.027 C
BRANCH   2   3
HETATM    3  C8  UNL     1     -16.740  -8.836 158.012  1.00  0.00    -0.031 C
HETATM    4  C7  UNL     1     -15.939  -9.751 157.526  1.00  0.00    -0.031 C
BRANCH   4   5
HETATM    5  C6  UNL     1     -15.645  -9.998 156.122  1.00  0.00     0.027 C
BRANCH   5   6
HETATM    6  C5  UNL     1     -16.704  -9.750 155.107  1.00  0.00     0.004 C
BRANCH   6   7
HETATM    7  C4  UNL     1     -16.481 -10.462 153.805  1.00  0.00     0.004 C
BRANCH   7   8
HETATM    8  C3  UNL     1     -16.548 -11.971 154.019  1.00  0.00     0.026 C
BRANCH   8   9
HETATM    9  C2  UNL     1     -17.947 -12.380 154.167  1.00  0.00    -0.037 C
HETATM   10  C1  UNL     1     -18.260 -13.623 154.512  1.00  0.00     0.007 C
ENDBRANCH   8   9
ENDBRANCH   7   8
ENDBRANCH   6   7
ENDBRANCH   5   6
ENDBRANCH   4   5
ENDBRANCH   2   3
ENDBRANCH   1   2
BRANCH   1  11
HETATM   11  C11 UNL     1     -18.593  -6.811 159.579  1.00  0.00     0.006 C
BRANCH  11  12
HETATM   12  C12 UNL     1     -18.833  -6.119 160.870  1.00  0.00     0.058 C
BRANCH  12  13
HETATM   13  C13 UNL     1     -19.803  -5.018 160.663  1.00  0.00     0.024 C
HETATM   14  C14 UNL     1     -20.858  -5.266 159.879  1.00  0.00     0.040 C
BRANCH  13  15
HETATM   15  N1  UNL     1     -19.669  -3.732 161.257  1.00  0.00    -0.273 N
HETATM   16  C15 UNL     1     -19.145  -3.447 162.450  1.00  0.00     0.117 A
HETATM   17  C16 UNL     1     -19.210  -2.072 162.616  1.00  0.00     0.038 A
HETATM   18  C17 UNL     1     -19.790  -1.562 161.477  1.00  0.00     0.109 A
HETATM   19  N2  UNL     1     -20.052  -2.608 160.682  1.00  0.00    -0.306 N
ATOM     20  H2  UNL     1     -20.485  -2.544 159.761  1.00  0.00     0.186 HD
ENDBRANCH  13  15
ENDBRANCH  12  13
ENDBRANCH  11  12
ENDBRANCH   1  11
TORSDOF 11
ENDMDL