MODEL 1
REMARK VINA RESULT: -7.592400452      0.000      0.000
REMARK  11 active torsions:
REMARK  status: ('A' for Active; 'I' for Inactive)
REMARK    1  A    between atoms: C1_2  and  C2_3
REMARK    2  A    between atoms: C2_3  and  C3_4
REMARK    3  A    between atoms: C3_4  and  C4_5
REMARK    4  A    between atoms: C4_5  and  C5_6
REMARK    5  A    between atoms: C5_6  and  C6_7
REMARK    6  A    between atoms: C7_8  and  C8_9
REMARK    7  A    between atoms: C8_9  and  C9_10
REMARK    8  A    between atoms: C9_10  and  C10_11
REMARK    9  A    between atoms: C10_11  and  C11_12
REMARK   10  A    between atoms: C11_12  and  C12_13
REMARK   11  A    between atoms: C12_13  and  C13_14
ROOT
HETATM    1  C9  UNL     1     -15.776 -10.008 157.922  1.00  0.00     0.004 C
ENDROOT
BRANCH   1   2
HETATM    2  C8  UNL     1     -15.297 -10.201 156.494  1.00  0.00     0.027 C
BRANCH   2   3
HETATM    3  C7  UNL     1     -16.117  -9.399 155.565  1.00  0.00    -0.031 C
HETATM    4  C6  UNL     1     -16.508  -9.781 154.384  1.00  0.00    -0.031 C
BRANCH   4   5
HETATM    5  C5  UNL     1     -16.220 -11.060 153.743  1.00  0.00     0.027 C
BRANCH   5   6
HETATM    6  C4  UNL     1     -17.006 -12.161 154.408  1.00  0.00     0.004 C
BRANCH   6   7
HETATM    7  C3  UNL     1     -18.461 -11.920 154.306  1.00  0.00     0.007 C
BRANCH   7   8
HETATM    8  C2  UNL     1     -19.209 -13.177 154.025  1.00  0.00     0.069 C
BRANCH   8   9
HETATM    9  C1  UNL     1     -18.213 -14.292 153.944  1.00  0.00     0.231 C
HETATM   10  O1  UNL     1     -18.550 -15.448 154.038  1.00  0.00    -0.307 OA
ENDBRANCH   8   9
ENDBRANCH   7   8
ENDBRANCH   6   7
ENDBRANCH   5   6
ENDBRANCH   4   5
ENDBRANCH   2   3
ENDBRANCH   1   2
BRANCH   1  11
HETATM   11  C10 UNL     1     -16.567  -8.756 158.144  1.00  0.00     0.001 C
BRANCH  11  12
HETATM   12  C11 UNL     1     -17.322  -8.822 159.419  1.00  0.00     0.006 C
BRANCH  12  13
HETATM   13  C12 UNL     1     -17.503  -7.537 160.148  1.00  0.00     0.052 C
BRANCH  13  14
HETATM   14  C13 UNL     1     -18.702  -6.753 159.798  1.00  0.00    -0.018 C
HETATM   15  N1  UNL     1     -19.454  -6.015 160.487  1.00  0.00    -0.396 N
HETATM   16  C14 UNL     1     -20.525  -5.439 159.722  1.00  0.00     0.119 C
ATOM     17  H1  UNL     1     -19.318  -5.844 161.483  1.00  0.00     0.159 HD
HETATM   18  C15 UNL     1     -20.669  -6.476 158.597  1.00  0.00     0.025 C
HETATM   19  C16 UNL     1     -19.201  -6.763 158.367  1.00  0.00     0.053 C
ENDBRANCH  13  14
ENDBRANCH  12  13
ENDBRANCH  11  12
ENDBRANCH   1  11
TORSDOF 11
ENDMDL