MODEL 3
REMARK VINA RESULT: -6.581044907      1.607      2.051
REMARK  11 active torsions:
REMARK  status: ('A' for Active; 'I' for Inactive)
REMARK    1  A    between atoms: C2_2  and  C3_3
REMARK    2  A    between atoms: C3_3  and  C4_4
REMARK    3  A    between atoms: C4_4  and  N1_5
REMARK    4  A    between atoms: C5_7  and  C6_8
REMARK    5  A    between atoms: C6_8  and  C7_9
REMARK    6  A    between atoms: C7_9  and  S1_10
REMARK    7  A    between atoms: S1_10  and  C8_11
REMARK    8  A    between atoms: C8_11  and  C9_12
REMARK    9  A    between atoms: C9_12  and  C10_13
REMARK   10  A    between atoms: C10_13  and  C11_14
REMARK   11  A    between atoms: C11_14  and  C12_15
ROOT
HETATM    1  C7  UNL     1     -16.601  -9.345 158.801  1.00  0.00     0.079 C
ENDROOT
BRANCH   1   2
HETATM    2  C6  UNL     1     -17.096  -8.342 159.793  1.00  0.00     0.054 C
BRANCH   2   3
HETATM    3  C5  UNL     1     -17.015  -6.987 159.182  1.00  0.00     0.056 C
HETATM    4  N1  UNL     1     -17.309  -5.970 159.896  1.00  0.00    -0.402 N
ATOM      5  H1  UNL     1     -17.259  -5.033 159.495  1.00  0.00     0.158 HD
BRANCH   4   6
HETATM    6  C4  UNL     1     -17.703  -6.144 161.245  1.00  0.00     0.118 C
BRANCH   6   7
HETATM    7  C3  UNL     1     -17.556  -4.843 162.021  1.00  0.00     0.019 C
BRANCH   7   8
HETATM    8  C2  UNL     1     -17.854  -5.163 163.481  1.00  0.00    -0.003 C
HETATM    9  C1  UNL     1     -18.284  -3.904 164.169  1.00  0.00     0.005 C
ENDBRANCH   7   8
ENDBRANCH   6   7
ENDBRANCH   4   6
ENDBRANCH   2   3
ENDBRANCH   1   2
BRANCH   1  10
HETATM   10  S1  UNL     1     -16.590  -8.689 157.127  1.00  0.00    -0.169 SA
BRANCH  10  11
HETATM   11  C8  UNL     1     -15.885  -9.859 155.938  1.00  0.00     0.074 C
BRANCH  11  12
HETATM   12  C9  UNL     1     -16.532  -9.479 154.568  1.00  0.00     0.010 C
BRANCH  12  13
HETATM   13  C10 UNL     1     -16.396 -10.717 153.746  1.00  0.00     0.001 C
BRANCH  13  14
HETATM   14  C11 UNL     1     -16.810 -12.008 154.291  1.00  0.00     0.005 C
BRANCH  14  15
HETATM   15  C12 UNL     1     -17.932 -12.780 153.762  1.00  0.00    -0.014 A
HETATM   16  C13 UNL     1     -18.422 -14.029 154.496  1.00  0.00     0.005 A
HETATM   17  C14 UNL     1     -19.280 -12.791 154.389  1.00  0.00     0.005 A
ENDBRANCH  14  15
ENDBRANCH  13  14
ENDBRANCH  12  13
ENDBRANCH  11  12
ENDBRANCH  10  11
ENDBRANCH   1  10
TORSDOF 11
ENDMDL