MODEL 2
REMARK VINA RESULT: -7.558040160      1.242      1.926
REMARK  11 active torsions:
REMARK  status: ('A' for Active; 'I' for Inactive)
REMARK    1  A    between atoms: C2_2  and  C3_3
REMARK    2  A    between atoms: C3_3  and  C4_4
REMARK    3  A    between atoms: C4_4  and  C5_5
REMARK    4  A    between atoms: C5_5  and  C6_6
REMARK    5  A    between atoms: C7_7  and  C8_8
REMARK    6  A    between atoms: C8_8  and  C9_9
REMARK    7  A    between atoms: C9_9  and  C10_10
REMARK    8  A    between atoms: C10_10  and  C11_11
REMARK    9  A    between atoms: C11_11  and  C12_12
REMARK   10  A    between atoms: C12_12  and  C13_13
REMARK   11  A    between atoms: C13_13  and  N1_14
ROOT
HETATM    1  C10 UNL     1     -16.674  -8.895 158.602  1.00  0.00     0.000 C
ENDROOT
BRANCH   1   2
HETATM    2  C9  UNL     1     -17.006  -8.054 157.400  1.00  0.00     0.004 C
BRANCH   2   3
HETATM    3  C8  UNL     1     -16.479  -8.671 156.117  1.00  0.00     0.027 C
BRANCH   3   4
HETATM    4  C7  UNL     1     -15.764  -9.914 156.377  1.00  0.00    -0.031 C
HETATM    5  C6  UNL     1     -15.545 -10.929 155.581  1.00  0.00    -0.031 C
BRANCH   5   6
HETATM    6  C5  UNL     1     -16.032 -10.964 154.188  1.00  0.00     0.027 C
BRANCH   6   7
HETATM    7  C4  UNL     1     -16.867 -12.198 153.937  1.00  0.00     0.007 C
BRANCH   7   8
HETATM    8  C3  UNL     1     -18.307 -11.969 154.292  1.00  0.00     0.026 C
BRANCH   8   9
HETATM    9  C2  UNL     1     -19.018 -13.264 154.418  1.00  0.00    -0.037 C
HETATM   10  C1  UNL     1     -18.384 -14.376 154.109  1.00  0.00     0.007 C
ENDBRANCH   8   9
ENDBRANCH   7   8
ENDBRANCH   6   7
ENDBRANCH   5   6
ENDBRANCH   3   4
ENDBRANCH   2   3
ENDBRANCH   1   2
BRANCH   1  11
HETATM   11  C11 UNL     1     -17.738  -8.849 159.669  1.00  0.00     0.002 C
BRANCH  11  12
HETATM   12  C12 UNL     1     -18.489  -7.566 159.536  1.00  0.00     0.020 C
BRANCH  12  13
HETATM   13  C13 UNL     1     -18.358  -6.682 160.759  1.00  0.00     0.129 C
BRANCH  13  14
HETATM   14  N1  UNL     1     -19.286  -5.589 160.606  1.00  0.00    -0.352 N
HETATM   15  C14 UNL     1     -20.358  -5.533 159.767  1.00  0.00     0.108 A
HETATM   16  C15 UNL     1     -20.983  -4.319 159.926  1.00  0.00     0.106 A
HETATM   17  N2  UNL     1     -20.287  -3.659 160.853  1.00  0.00    -0.361 N
HETATM   18  C16 UNL     1     -19.248  -4.429 161.274  1.00  0.00     0.182 A
ATOM     19  H2  UNL     1     -20.502  -2.722 161.195  1.00  0.00     0.166 HD
ENDBRANCH  13  14
ENDBRANCH  12  13
ENDBRANCH  11  12
ENDBRANCH   1  11
TORSDOF 11
ENDMDL