MODEL 1
REMARK VINA RESULT: -7.873321660      0.000      0.000
REMARK  11 active torsions:
REMARK  status: ('A' for Active; 'I' for Inactive)
REMARK    1  A    between atoms: C2_2  and  C3_3
REMARK    2  A    between atoms: C3_3  and  C4_4
REMARK    3  A    between atoms: C4_4  and  C5_5
REMARK    4  A    between atoms: C5_5  and  C6_6
REMARK    5  A    between atoms: C6_6  and  C7_7
REMARK    6  A    between atoms: C7_7  and  C8_8
REMARK    7  A    between atoms: C8_8  and  C9_9
REMARK    8  A    between atoms: C10_10  and  C11_11
REMARK    9  A    between atoms: C11_11  and  C12_12
REMARK   10  A    between atoms: C12_12  and  C13_13
REMARK   11  A    between atoms: C13_13  and  C14_14
ROOT
HETATM    1  C9  UNL     1     -15.671 -10.223 157.786  1.00  0.00    -0.031 C
HETATM    2  C10 UNL     1     -16.408  -9.201 158.156  1.00  0.00    -0.031 C
ENDROOT
BRANCH   2   3
HETATM    3  C11 UNL     1     -16.741  -9.027 159.592  1.00  0.00     0.027 C
BRANCH   3   4
HETATM    4  C12 UNL     1     -18.197  -8.672 159.662  1.00  0.00     0.011 C
BRANCH   4   5
HETATM    5  C13 UNL     1     -18.541  -7.492 158.807  1.00  0.00     0.076 C
BRANCH   5   6
HETATM    6  C14 UNL     1     -19.361  -6.452 159.495  1.00  0.00     0.072 C
HETATM    7  N1  UNL     1     -18.959  -5.645 160.390  1.00  0.00    -0.378 N
HETATM    8  C15 UNL     1     -19.982  -4.748 160.874  1.00  0.00     0.140 C
ATOM      9  H1  UNL     1     -18.000  -5.633 160.737  1.00  0.00     0.160 HD
HETATM   10  C16 UNL     1     -21.058  -4.893 159.813  1.00  0.00     0.140 C
HETATM   11  N2  UNL     1     -20.754  -6.205 159.285  1.00  0.00    -0.378 N
ATOM     12  H2  UNL     1     -21.417  -6.842 158.841  1.00  0.00     0.160 HD
ENDBRANCH   5   6
ENDBRANCH   4   5
ENDBRANCH   3   4
ENDBRANCH   2   3
BRANCH   1  13
HETATM   13  C8  UNL     1     -15.326 -10.412 156.345  1.00  0.00     0.027 C
BRANCH  13  14
HETATM   14  C7  UNL     1     -16.371  -9.699 155.531  1.00  0.00     0.004 C
BRANCH  14  15
HETATM   15  C6  UNL     1     -16.391 -10.176 154.111  1.00  0.00     0.000 C
BRANCH  15  16
HETATM   16  C5  UNL     1     -16.603 -11.642 154.047  1.00  0.00     0.000 C
BRANCH  16  17
HETATM   17  C4  UNL     1     -18.021 -12.058 154.374  1.00  0.00     0.004 C
BRANCH  17  18
HETATM   18  C3  UNL     1     -18.206 -13.550 154.319  1.00  0.00     0.026 C
BRANCH  18  19
HETATM   19  C2  UNL     1     -18.932 -13.971 153.088  1.00  0.00    -0.037 C
HETATM   20  C1  UNL     1     -19.846 -13.188 152.533  1.00  0.00     0.007 C
ENDBRANCH  18  19
ENDBRANCH  17  18
ENDBRANCH  16  17
ENDBRANCH  15  16
ENDBRANCH  14  15
ENDBRANCH  13  14
ENDBRANCH   1  13
TORSDOF 11
ENDMDL