MODEL 2
REMARK VINA RESULT: -7.477586546      0.982      1.282
REMARK  11 active torsions:
REMARK  status: ('A' for Active; 'I' for Inactive)
REMARK    1  A    between atoms: C2_2  and  C3_3
REMARK    2  A    between atoms: C3_3  and  C4_4
REMARK    3  A    between atoms: C4_4  and  C5_5
REMARK    4  A    between atoms: C5_5  and  C6_6
REMARK    5  A    between atoms: C6_6  and  C7_7
REMARK    6  A    between atoms: C7_7  and  C8_8
REMARK    7  A    between atoms: C9_9  and  C10_10
REMARK    8  A    between atoms: C10_10  and  C11_11
REMARK    9  A    between atoms: C11_11  and  C12_12
REMARK   10  A    between atoms: C12_12  and  C13_13
REMARK   11  A    between atoms: C13_13  and  N1_14
ROOT
HETATM    1  C10 UNL     1     -16.493  -9.081 157.839  1.00  0.00     0.027 C
ENDROOT
BRANCH   1   2
HETATM    2  C9  UNL     1     -15.593 -10.107 157.307  1.00  0.00    -0.031 C
HETATM    3  C8  UNL     1     -15.537 -10.365 156.016  1.00  0.00    -0.031 C
BRANCH   3   4
HETATM    4  C7  UNL     1     -16.306  -9.727 154.946  1.00  0.00     0.027 C
BRANCH   4   5
HETATM    5  C6  UNL     1     -16.332 -10.649 153.741  1.00  0.00     0.004 C
BRANCH   5   6
HETATM    6  C5  UNL     1     -16.936 -11.983 154.032  1.00  0.00     0.001 C
BRANCH   6   7
HETATM    7  C4  UNL     1     -18.378 -11.787 154.441  1.00  0.00     0.004 C
BRANCH   7   8
HETATM    8  C3  UNL     1     -19.215 -13.016 154.218  1.00  0.00     0.026 C
BRANCH   8   9
HETATM    9  C2  UNL     1     -18.352 -14.217 154.320  1.00  0.00    -0.037 C
HETATM   10  C1  UNL     1     -18.590 -15.273 153.561  1.00  0.00     0.007 C
ENDBRANCH   8   9
ENDBRANCH   7   8
ENDBRANCH   6   7
ENDBRANCH   5   6
ENDBRANCH   4   5
ENDBRANCH   3   4
ENDBRANCH   1   2
BRANCH   1  11
HETATM   11  C11 UNL     1     -16.721  -9.314 159.317  1.00  0.00     0.005 C
BRANCH  11  12
HETATM   12  C12 UNL     1     -17.846  -8.456 159.775  1.00  0.00     0.021 C
BRANCH  12  13
HETATM   13  C13 UNL     1     -17.771  -7.045 159.227  1.00  0.00     0.129 C
BRANCH  13  14
HETATM   14  N1  UNL     1     -19.061  -6.436 159.441  1.00  0.00    -0.352 N
HETATM   15  C14 UNL     1     -19.426  -5.583 160.424  1.00  0.00     0.108 A
HETATM   16  C15 UNL     1     -20.744  -5.234 160.273  1.00  0.00     0.106 A
HETATM   17  N2  UNL     1     -21.173  -5.885 159.188  1.00  0.00    -0.361 N
HETATM   18  C16 UNL     1     -20.144  -6.625 158.672  1.00  0.00     0.182 A
ATOM     19  H2  UNL     1     -22.117  -5.838 158.804  1.00  0.00     0.166 HD
ENDBRANCH  13  14
ENDBRANCH  12  13
ENDBRANCH  11  12
ENDBRANCH   1  11
TORSDOF 11
ENDMDL