MODEL 5
REMARK VINA RESULT: -7.347152093      1.687      2.148
REMARK  11 active torsions:
REMARK  status: ('A' for Active; 'I' for Inactive)
REMARK    1  A    between atoms: C2_2  and  C3_3
REMARK    2  A    between atoms: C3_3  and  C4_4
REMARK    3  A    between atoms: C4_4  and  C5_5
REMARK    4  A    between atoms: C5_5  and  C6_6
REMARK    5  A    between atoms: C7_7  and  C8_8
REMARK    6  A    between atoms: C8_8  and  C9_9
REMARK    7  A    between atoms: C9_9  and  C10_10
REMARK    8  A    between atoms: C10_10  and  C11_11
REMARK    9  A    between atoms: C11_11  and  C12_12
REMARK   10  A    between atoms: C13_14  and  C14_15
REMARK   11  A    between atoms: C14_15  and  C15_16
ROOT
HETATM    1  C9  UNL     1     -15.317 -10.608 157.626  1.00  0.00     0.004 C
ENDROOT
BRANCH   1   2
HETATM    2  C8  UNL     1     -15.012 -10.919 156.174  1.00  0.00     0.027 C
BRANCH   2   3
HETATM    3  C7  UNL     1     -15.930 -10.167 155.298  1.00  0.00    -0.031 C
HETATM    4  C6  UNL     1     -16.697 -10.620 154.342  1.00  0.00    -0.031 C
BRANCH   4   5
HETATM    5  C5  UNL     1     -16.776 -12.038 153.959  1.00  0.00     0.027 C
BRANCH   5   6
HETATM    6  C4  UNL     1     -18.095 -12.668 154.387  1.00  0.00     0.007 C
BRANCH   6   7
HETATM    7  C3  UNL     1     -18.230 -14.087 153.915  1.00  0.00     0.026 C
BRANCH   7   8
HETATM    8  C2  UNL     1     -19.191 -14.164 152.807  1.00  0.00    -0.037 C
HETATM    9  C1  UNL     1     -19.938 -13.115 152.489  1.00  0.00     0.007 C
ENDBRANCH   7   8
ENDBRANCH   6   7
ENDBRANCH   5   6
ENDBRANCH   4   5
ENDBRANCH   2   3
ENDBRANCH   1   2
BRANCH   1  10
HETATM   10  C10 UNL     1     -16.250  -9.485 157.819  1.00  0.00     0.003 C
BRANCH  10  11
HETATM   11  C11 UNL     1     -16.656  -9.128 159.191  1.00  0.00     0.034 C
BRANCH  11  12
HETATM   12  C12 UNL     1     -17.172  -7.746 159.415  1.00  0.00     0.151 A
HETATM   13  O1  UNL     1     -17.522  -7.380 160.743  1.00  0.00    -0.375 OA
HETATM   14  C13 UNL     1     -18.527  -7.350 159.747  1.00  0.00     0.158 A
BRANCH  14  15
HETATM   15  C14 UNL     1     -19.030  -6.010 159.260  1.00  0.00     0.112 C
BRANCH  15  16
HETATM   16  C15 UNL     1     -20.489  -5.959 159.201  1.00  0.00     0.125 C
HETATM   17  C16 UNL     1     -21.155  -4.899 160.054  1.00  0.00     0.091 C
HETATM   18  O2  UNL     1     -21.132  -6.708 158.519  1.00  0.00    -0.298 OA
ENDBRANCH  15  16
ENDBRANCH  14  15
ENDBRANCH  11  12
ENDBRANCH  10  11
ENDBRANCH   1  10
TORSDOF 11
ENDMDL