MODEL 3
REMARK VINA RESULT: -5.002646177      1.986      2.997
REMARK  4 active torsions:
REMARK  status: ('A' for Active; 'I' for Inactive)
REMARK    1  A    between atoms: C3_5  and  N2_6
REMARK    2  A    between atoms: C4_11  and  C5_12
REMARK    3  A    between atoms: C5_12  and  S2_13
REMARK    4  A    between atoms: S2_13  and  C6_14
ROOT
HETATM    1  N1  UNL     1       4.460 -15.208 -52.654  1.00  0.00    -0.191 NA
HETATM    2  C1  UNL     1       3.334 -14.963 -52.580  1.00  0.00     0.109 C
HETATM    3  C2  UNL     1       1.912 -14.645 -52.497  1.00  0.00     0.112 A
HETATM    4  S1  UNL     1       0.945 -13.776 -53.605  1.00  0.00    -0.041 SA
HETATM    5  C3  UNL     1      -0.533 -13.866 -52.769  1.00  0.00     0.143 A
HETATM    6  N3  UNL     1      -0.231 -14.555 -51.676  1.00  0.00    -0.338 N
ATOM      7  H3  UNL     1      -0.944 -14.763 -50.977  1.00  0.00     0.168 HD
HETATM    8  C4  UNL     1       1.013 -14.964 -51.517  1.00  0.00     0.049 A
ENDROOT
BRANCH   8   9
HETATM    9  C5  UNL     1       1.520 -15.766 -50.321  1.00  0.00     0.141 C
BRANCH   9  10
HETATM   10  S2  UNL     1       1.050 -17.487 -50.445  1.00  0.00    -0.086 SA
BRANCH  10  11
HETATM   11  C6  UNL     1      -0.223 -17.800 -49.231  1.00  0.00     0.163 A
HETATM   12  N4  UNL     1      -1.501 -17.327 -49.232  1.00  0.00    -0.287 N
HETATM   13  C7  UNL     1      -2.146 -17.788 -48.146  1.00  0.00     0.340 A
ATOM     14  H4  UNL     1      -1.905 -16.719 -49.945  1.00  0.00     0.172 HD
HETATM   15  O1  UNL     1      -3.319 -17.608 -47.753  1.00  0.00    -0.245 OA
HETATM   16  N5  UNL     1      -1.268 -18.557 -47.452  1.00  0.00    -0.249 N
HETATM   17  N6  UNL     1      -0.148 -18.544 -48.115  1.00  0.00    -0.276 N
ATOM     18  H5  UNL     1      -1.452 -19.051 -46.579  1.00  0.00     0.192 HD
ATOM     19  H6  UNL     1       0.693 -19.042 -47.821  1.00  0.00     0.189 HD
ENDBRANCH  10  11
ENDBRANCH   9  10
ENDBRANCH   8   9
BRANCH   5  20
HETATM   20  N2  UNL     1      -1.667 -13.358 -53.156  1.00  0.00    -0.380 N
ATOM     21  H22 UNL     1      -2.525 -13.819 -53.458  1.00  0.00     0.158 HD
ATOM     22  H21 UNL     1      -1.891 -12.365 -53.221  1.00  0.00     0.158 HD
ENDBRANCH   5  20
TORSDOF 4
ENDMDL