MODEL 3
REMARK VINA RESULT: -4.831093116      0.691      1.117
REMARK  5 active torsions:
REMARK  status: ('A' for Active; 'I' for Inactive)
REMARK    1  A    between atoms: C2_2  and  C3_3
REMARK    2  A    between atoms: C3_3  and  N1_4
REMARK    3  A    between atoms: N4_13  and  N5_15
REMARK    4  A    between atoms: C7_20  and  N7_21
REMARK    5  A    between atoms: N7_21  and  N8_23
ROOT
HETATM    1  N1  UNL     1       0.566 -19.895 -50.465  1.00  0.00    -0.289 N
HETATM    2  C4  UNL     1      -0.304 -20.888 -50.719  1.00  0.00     0.329 A
HETATM    3  O1  UNL     1      -0.157 -21.886 -51.471  1.00  0.00    -0.246 OA
HETATM    4  N2  UNL     1      -1.451 -20.669 -50.012  1.00  0.00    -0.292 N
ATOM      5  H2  UNL     1      -2.285 -21.256 -50.007  1.00  0.00     0.172 HD
HETATM    6  C5  UNL     1      -1.266 -19.528 -49.324  1.00  0.00     0.156 A
HETATM    7  N3  UNL     1      -2.089 -18.880 -48.482  1.00  0.00    -0.173 N
ATOM      8  H3  UNL     1      -3.014 -19.266 -48.296  1.00  0.00     0.186 HD
HETATM    9  C6  UNL     1      -1.726 -17.740 -47.882  1.00  0.00     0.699 A
HETATM   10  N4  UNL     1      -2.504 -17.106 -47.073  1.00  0.00    -0.138 N
ATOM     11  H4  UNL     1      -2.208 -16.238 -46.626  1.00  0.00     0.205 HD
HETATM   12  N6  UNL     1      -0.489 -17.234 -48.140  1.00  0.00    -0.171 N
ATOM     13  H6  UNL     1      -0.201 -16.366 -47.688  1.00  0.00     0.186 HD
HETATM   14  C7  UNL     1       0.372 -17.862 -48.985  1.00  0.00     0.166 A
HETATM   15  C10 UNL     1       0.011 -19.034 -49.608  1.00  0.00     0.130 A
ENDROOT
BRANCH  14  16
HETATM   16  N7  UNL     1       1.524 -17.368 -49.212  1.00  0.00    -0.284 N
ATOM     17  H7  UNL     1       2.328 -17.817 -48.775  1.00  0.00     0.188 HD
BRANCH  16  18
HETATM   18  N8  UNL     1       1.758 -16.266 -50.009  1.00  0.00    -0.315 N
HETATM   19  C8  UNL     1       1.071 -15.907 -51.012  1.00  0.00     0.075 C
HETATM   20  C9  UNL     1       1.472 -14.683 -51.760  1.00  0.00     0.056 C
ATOM     21  H8  UNL     1       2.561 -15.685 -49.768  1.00  0.00     0.185 HD
ENDBRANCH  16  18
ENDBRANCH  14  16
BRANCH   1  22
HETATM   22  C3  UNL     1       1.894 -19.777 -51.032  1.00  0.00     0.160 C
BRANCH  22  23
HETATM   23  C2  UNL     1       1.861 -19.218 -52.405  1.00  0.00    -0.017 C
HETATM   24  C1  UNL     1       2.922 -18.575 -52.865  1.00  0.00     0.008 C
ENDBRANCH  22  23
ENDBRANCH   1  22
BRANCH  10  25
HETATM   25  N5  UNL     1      -3.766 -17.652 -46.831  1.00  0.00    -0.331 N
ATOM     26  H52 UNL     1      -4.458 -17.700 -47.580  1.00  0.00     0.177 HD
ATOM     27  H51 UNL     1      -3.959 -17.993 -45.889  1.00  0.00     0.177 HD
ENDBRANCH  10  25
TORSDOF 5
ENDMDL