MODEL 3
REMARK VINA RESULT: -4.413293728      2.005      4.198
REMARK  6 active torsions:
REMARK  status: ('A' for Active; 'I' for Inactive)
REMARK    1  A    between atoms: N1_2  and  C3_4
REMARK    2  A    between atoms: C5_11  and  N4_12
REMARK    3  A    between atoms: C6_15  and  N5_16
REMARK    4  A    between atoms: N5_16  and  O2_17
REMARK    5  A    between atoms: N5_16  and  C7_19
REMARK    6  A    between atoms: C7_19  and  N6_22
ROOT
HETATM    1  C3  UNL     1       1.237 -18.571 -51.827  1.00  0.00     0.140 A
HETATM    2  N2  UNL     1       1.451 -18.365 -53.157  1.00  0.00    -0.292 N
ATOM      3  H2  UNL     1       1.326 -19.129 -53.820  1.00  0.00     0.172 HD
HETATM    4  C4  UNL     1       1.823 -17.163 -53.586  1.00  0.00     0.327 A
HETATM    5  O1  UNL     1       2.032 -16.941 -54.830  1.00  0.00    -0.247 OA
HETATM    6  N3  UNL     1       1.982 -16.174 -52.722  1.00  0.00    -0.293 N
ATOM      7  H3  UNL     1       2.268 -15.258 -53.067  1.00  0.00     0.172 HD
HETATM    8  C5  UNL     1       1.775 -16.343 -51.383  1.00  0.00     0.136 A
HETATM    9  C6  UNL     1       1.388 -17.583 -50.906  1.00  0.00     0.147 A
ENDROOT
BRANCH   9  10
HETATM   10  N5  UNL     1       1.156 -17.766 -49.544  1.00  0.00    -0.217 N
BRANCH  10  11
HETATM   11  O2  UNL     1       2.172 -18.172 -48.856  1.00  0.00    -0.284 OA
ATOM     12  H2  UNL     1       2.309 -19.111 -48.846  1.00  0.00     0.245 HD
ENDBRANCH  10  11
BRANCH  10  13
HETATM   13  C7  UNL     1      -0.030 -17.588 -48.778  1.00  0.00     0.213 C
HETATM   14  C8  UNL     1      -1.131 -16.829 -49.537  1.00  0.00     0.072 C
HETATM   15  C9  UNL     1      -0.685 -18.963 -48.494  1.00  0.00     0.072 C
BRANCH  13  16
HETATM   16  N6  UNL     1       0.149 -17.011 -47.463  1.00  0.00    -0.051 N
ATOM     17  H63 UNL     1       0.762 -17.605 -46.904  1.00  0.00     0.277 HD
ATOM     18  H62 UNL     1       0.722 -16.169 -47.528  1.00  0.00     0.277 HD
ATOM     19  H61 UNL     1      -0.707 -16.810 -46.945  1.00  0.00     0.277 HD
ENDBRANCH  13  16
ENDBRANCH  10  13
ENDBRANCH   9  10
BRANCH   1  20
HETATM   20  N1  UNL     1       0.827 -19.880 -51.516  1.00  0.00    -0.374 N
HETATM   21  C1  UNL     1      -0.518 -20.306 -51.687  1.00  0.00     0.150 C
HETATM   22  C2  UNL     1       1.834 -20.804 -51.049  1.00  0.00     0.150 C
ENDBRANCH   1  20
BRANCH   8  23
HETATM   23  N4  UNL     1       1.915 -15.377 -50.575  1.00  0.00    -0.383 N
ATOM     24  H42 UNL     1       2.244 -14.475 -50.920  1.00  0.00     0.157 HD
ATOM     25  H41 UNL     1       1.716 -15.492 -49.581  1.00  0.00     0.157 HD
ENDBRANCH   8  23
TORSDOF 6
ENDMDL