MODEL 3
REMARK VINA RESULT: -4.090833441      3.799      5.293
REMARK  5 active torsions:
REMARK  status: ('A' for Active; 'I' for Inactive)
REMARK    1  A    between atoms: N1_1  and  C1_4
REMARK    2  A    between atoms: C2_7  and  N3_8
REMARK    3  A    between atoms: N3_8  and  C3_10
REMARK    4  A    between atoms: C3_10  and  C4_11
REMARK    5  A    between atoms: C4_11  and  N4_12
ROOT
HETATM    1  C1  UNL     1       3.368 -22.847 -50.776  1.00  0.00     0.162 A
HETATM    2  N2  UNL     1       2.777 -21.640 -50.665  1.00  0.00    -0.170 N
ATOM      3  H2  UNL     1       1.898 -21.513 -51.167  1.00  0.00     0.186 HD
HETATM    4  C2  UNL     1       3.221 -20.600 -49.970  1.00  0.00     0.683 A
HETATM    5  N6  UNL     1       4.367 -20.568 -49.233  1.00  0.00    -0.150 N
ATOM      6  H6  UNL     1       4.584 -19.698 -48.747  1.00  0.00     0.188 HD
HETATM    7  C9  UNL     1       5.228 -21.573 -49.092  1.00  0.00     0.305 A
HETATM    8  O1  UNL     1       6.264 -21.409 -48.372  1.00  0.00    -0.259 OA
HETATM    9  S1  UNL     1       4.828 -23.002 -49.916  1.00  0.00     0.008 SA
ENDROOT
BRANCH   4  10
HETATM   10  N3  UNL     1       2.564 -19.507 -49.957  1.00  0.00    -0.224 N
ATOM     11  H3  UNL     1       2.644 -18.893 -49.146  1.00  0.00     0.177 HD
BRANCH  10  12
HETATM   12  C3  UNL     1       1.721 -19.113 -51.041  1.00  0.00     0.157 C
BRANCH  12  13
HETATM   13  C4  UNL     1       0.580 -18.219 -50.550  1.00  0.00     0.137 C
BRANCH  13  14
HETATM   14  N4  UNL     1       0.188 -18.599 -49.238  1.00  0.00    -0.408 N
HETATM   15  C5  UNL     1       0.282 -17.566 -48.281  1.00  0.00     0.136 C
HETATM   16  C6  UNL     1      -1.085 -16.885 -48.234  1.00  0.00     0.133 C
HETATM   17  N5  UNL     1      -2.078 -17.798 -47.787  1.00  0.00    -0.418 N
HETATM   18  C7  UNL     1      -1.882 -19.173 -48.061  1.00  0.00     0.133 C
ATOM     19  H5  UNL     1      -2.904 -17.473 -47.285  1.00  0.00     0.153 HD
HETATM   20  C8  UNL     1      -0.934 -19.457 -49.196  1.00  0.00     0.136 C
ENDBRANCH  13  14
ENDBRANCH  12  13
ENDBRANCH  10  12
ENDBRANCH   4  10
BRANCH   1  21
HETATM   21  N1  UNL     1       2.839 -23.797 -51.503  1.00  0.00    -0.379 N
ATOM     22  H12 UNL     1       1.851 -24.052 -51.482  1.00  0.00     0.158 HD
ATOM     23  H11 UNL     1       3.406 -24.353 -52.142  1.00  0.00     0.158 HD
ENDBRANCH   1  21
TORSDOF 5
ENDMDL