MODEL 4
REMARK VINA RESULT: -5.068173352      2.163      2.227
REMARK  4 active torsions:
REMARK  status: ('A' for Active; 'I' for Inactive)
REMARK    1  A    between atoms: S1_2  and  N1_5
REMARK    2  A    between atoms: N1_5  and  N2_7
REMARK       I    between atoms: N2_7  and  C2_9
REMARK    3  A    between atoms: C2_9  and  C3_11
REMARK    4  A    between atoms: C5_17  and  O5_18
ROOT
HETATM    1  N2  UNL     1       1.410 -16.279 -52.491  1.00  0.00    -0.256 N
ATOM      2  H2  UNL     1       0.668 -15.580 -52.438  1.00  0.00     0.191 HD
HETATM    3  C2  UNL     1       1.550 -17.196 -51.462  1.00  0.00     0.281 C
HETATM    4  O3  UNL     1       2.484 -18.069 -51.540  1.00  0.00    -0.265 OA
ENDROOT
BRANCH   3   5
HETATM    5  C3  UNL     1       0.712 -17.280 -50.249  1.00  0.00     0.130 A
HETATM    6  S2  UNL     1      -0.922 -16.745 -50.060  1.00  0.00    -0.019 SA
HETATM    7  C4  UNL     1      -1.144 -17.197 -48.435  1.00  0.00     0.290 A
HETATM    8  O4  UNL     1      -2.186 -17.057 -47.702  1.00  0.00    -0.260 OA
HETATM    9  N3  UNL     1       0.026 -17.734 -48.104  1.00  0.00    -0.297 N
HETATM   10  C5  UNL     1       0.973 -17.783 -49.008  1.00  0.00     0.166 A
ATOM     11  H3  UNL     1       0.184 -18.100 -47.165  1.00  0.00     0.171 HD
BRANCH  10  12
HETATM   12  O5  UNL     1       2.252 -18.353 -48.701  1.00  0.00    -0.345 OA
ATOM     13  H5  UNL     1       2.392 -18.823 -47.888  1.00  0.00     0.219 HD
ENDBRANCH  10  12
ENDBRANCH   3   5
BRANCH   1  14
HETATM   14  N1  UNL     1       2.254 -16.286 -53.590  1.00  0.00    -0.225 N
ATOM     15  H1  UNL     1       2.166 -16.973 -54.338  1.00  0.00     0.200 HD
BRANCH  14  16
HETATM   16  S1  UNL     1       3.443 -15.076 -53.610  1.00  0.00     0.240 S
HETATM   17  C1  UNL     1       2.801 -13.438 -53.342  1.00  0.00     0.187 C
HETATM   18  O1  UNL     1       4.255 -15.077 -54.879  1.00  0.00    -0.205 OA
HETATM   19  O2  UNL     1       4.426 -15.344 -52.490  1.00  0.00    -0.205 OA
ENDBRANCH  14  16
ENDBRANCH   1  14
TORSDOF 4
ENDMDL