MODEL 5
REMARK VINA RESULT: -4.520597940      1.511      5.460
REMARK  5 active torsions:
REMARK  status: ('A' for Active; 'I' for Inactive)
REMARK    1  A    between atoms: C2_2  and  C3_3
REMARK    2  A    between atoms: C3_3  and  C4_4
REMARK    3  A    between atoms: N1_5  and  C5_7
REMARK    4  A    between atoms: C6_10  and  N3_11
REMARK    5  A    between atoms: C10_23  and  N7_24
ROOT
HETATM    1  C5  UNL     1       0.278 -19.809 -51.858  1.00  0.00     0.720 A
HETATM    2  N2  UNL     1       0.689 -19.613 -53.157  1.00  0.00    -0.021 N
ATOM      3  H2  UNL     1       0.529 -20.349 -53.846  1.00  0.00     0.203 HD
HETATM    4  C6  UNL     1       1.292 -18.482 -53.537  1.00  0.00     0.692 A
HETATM    5  N4  UNL     1       1.522 -17.493 -52.664  1.00  0.00    -0.170 N
ATOM      6  H4  UNL     1       1.984 -16.637 -52.969  1.00  0.00     0.186 HD
HETATM    7  C7  UNL     1       1.143 -17.633 -51.392  1.00  0.00     0.205 A
HETATM    8  C8  UNL     1       1.370 -16.626 -50.476  1.00  0.00     0.164 A
HETATM    9  N5  UNL     1       1.937 -15.520 -50.757  1.00  0.00    -0.377 N
ATOM     10  H5  UNL     1       2.036 -14.872 -49.976  1.00  0.00     0.160 HD
HETATM   11  C9  UNL     1       2.453 -15.058 -51.997  1.00  0.00     0.148 C
HETATM   12  N6  UNL     1       0.989 -16.755 -49.173  1.00  0.00    -0.172 N
ATOM     13  H6  UNL     1       1.154 -16.014 -48.492  1.00  0.00     0.186 HD
HETATM   14  C10 UNL     1       0.389 -17.899 -48.834  1.00  0.00     0.693 A
HETATM   15  N8  UNL     1       0.167 -18.894 -49.747  1.00  0.00    -0.109 N
ATOM     16  H8  UNL     1      -0.294 -19.749 -49.436  1.00  0.00     0.207 HD
HETATM   17  N9  UNL     1       0.526 -18.793 -51.012  1.00  0.00    -0.050 N
ENDROOT
BRANCH   1  18
HETATM   18  N1  UNL     1      -0.259 -20.854 -51.588  1.00  0.00    -0.203 N
HETATM   19  C4  UNL     1      -0.423 -22.193 -51.532  1.00  0.00     0.079 C
ATOM     20  H1  UNL     1      -1.100 -20.528 -51.112  1.00  0.00     0.183 HD
BRANCH  19  21
HETATM   21  C3  UNL     1      -1.661 -22.700 -50.802  1.00  0.00     0.045 C
BRANCH  21  22
HETATM   22  C2  UNL     1      -2.265 -21.595 -49.949  1.00  0.00     0.001 C
HETATM   23  C1  UNL     1      -3.506 -22.137 -49.276  1.00  0.00     0.005 C
ENDBRANCH  21  22
ENDBRANCH  19  21
ENDBRANCH   1  18
BRANCH   4  24
HETATM   24  N3  UNL     1       1.683 -18.289 -54.763  1.00  0.00    -0.234 N
ATOM     25  H32 UNL     1       2.187 -19.053 -55.214  1.00  0.00     0.174 HD
ATOM     26  H31 UNL     1       1.495 -17.417 -55.258  1.00  0.00     0.174 HD
ENDBRANCH   4  24
BRANCH  14  27
HETATM   27  N7  UNL     1      -0.005 -18.107 -47.624  1.00  0.00    -0.233 N
ATOM     28  H72 UNL     1       0.432 -17.552 -46.887  1.00  0.00     0.174 HD
ATOM     29  H71 UNL     1      -0.724 -18.800 -47.418  1.00  0.00     0.174 HD
ENDBRANCH  14  27
TORSDOF 5
ENDMDL