MODEL 1
REMARK VINA RESULT: -5.534033055      0.000      0.000
REMARK  5 active torsions:
REMARK  status: ('A' for Active; 'I' for Inactive)
REMARK    1  A    between atoms: C2_7  and  N3_8
REMARK    2  A    between atoms: C7_18  and  C8_19
REMARK    3  A    between atoms: C8_19  and  O3_20
REMARK    4  A    between atoms: N6_22  and  C9_24
REMARK    5  A    between atoms: C9_24  and  O4_25
ROOT
HETATM    1  N1  UNL     1      -1.863 -18.224 -47.468  1.00  0.00    -0.384 N
ATOM      2  H11 UNL     1      -1.343 -17.372 -47.258  1.00  0.00     0.157 HD
ATOM      3  H12 UNL     1      -2.704 -18.438 -46.931  1.00  0.00     0.157 HD
HETATM    4  C1  UNL     1      -1.412 -18.909 -48.439  1.00  0.00     0.132 A
HETATM    5  N2  UNL     1      -2.111 -20.053 -48.721  1.00  0.00    -0.175 N
ATOM      6  H2  UNL     1      -2.950 -20.247 -48.174  1.00  0.00     0.186 HD
HETATM    7  C2  UNL     1      -1.768 -20.925 -49.661  1.00  0.00     0.692 A
HETATM    8  N4  UNL     1      -0.660 -20.648 -50.369  1.00  0.00    -0.177 N
ATOM      9  H4  UNL     1      -0.366 -21.297 -51.099  1.00  0.00     0.185 HD
HETATM   10  C6  UNL     1       0.069 -19.552 -50.149  1.00  0.00     0.150 A
HETATM   11  N5  UNL     1       1.215 -19.369 -50.984  1.00  0.00    -0.081 NA
HETATM   12  C7  UNL     1      -0.295 -18.625 -49.151  1.00  0.00     0.100 A
ENDROOT
BRANCH  12  13
HETATM   13  C8  UNL     1       0.552 -17.505 -48.878  1.00  0.00     0.158 C
HETATM   14  N6  UNL     1       1.140 -16.459 -49.519  1.00  0.00    -0.327 N
ATOM     15  H6  UNL     1       1.543 -15.806 -48.846  1.00  0.00     0.169 HD
BRANCH  13  16
HETATM   16  O3  UNL     1       0.856 -17.516 -47.539  1.00  0.00    -0.345 OA
ATOM     17  H3  UNL     1       1.183 -16.656 -47.303  1.00  0.00     0.219 HD
ENDBRANCH  13  16
BRANCH  14  18
HETATM   18  C9  UNL     1       1.354 -16.021 -50.810  1.00  0.00     0.225 C
BRANCH  18  19
HETATM   19  O4  UNL     1       2.322 -16.584 -51.507  1.00  0.00    -0.356 OA
ATOM     20  H4  UNL     1       2.167 -17.446 -51.874  1.00  0.00     0.218 HD
ENDBRANCH  18  19
ENDBRANCH  14  18
ENDBRANCH  12  13
BRANCH   7  21
HETATM   21  N3  UNL     1      -2.546 -22.104 -49.904  1.00  0.00    -0.124 N
HETATM   22  C3  UNL     1      -3.987 -22.294 -49.697  1.00  0.00     0.180 C
HETATM   23  C4  UNL     1      -4.151 -23.793 -49.627  1.00  0.00     0.201 C
HETATM   24  O1  UNL     1      -3.115 -24.248 -50.487  1.00  0.00    -0.302 OA
HETATM   25  C5  UNL     1      -2.059 -23.346 -50.400  1.00  0.00     0.381 C
HETATM   26  O2  UNL     1      -0.875 -23.612 -50.717  1.00  0.00    -0.237 OA
ENDBRANCH   7  21
TORSDOF 5
ENDMDL