MODEL 3
REMARK VINA RESULT: -5.301435021      1.367      1.525
REMARK  4 active torsions:
REMARK  status: ('A' for Active; 'I' for Inactive)
REMARK    1  A    between atoms: N1_1  and  C1_4
REMARK    2  A    between atoms: C2_9  and  C3_10
REMARK    3  A    between atoms: C4_11  and  C5_12
REMARK       I    between atoms: C5_12  and  N4_14
REMARK    4  A    between atoms: N4_14  and  C6_16
ROOT
HETATM    1  C3  UNL     1       3.124 -14.850 -52.548  1.00  0.00     0.044 C
HETATM    2  C4  UNL     1       2.031 -14.843 -51.870  1.00  0.00     0.077 C
ENDROOT
BRANCH   2   3
HETATM    3  C5  UNL     1       1.594 -15.951 -51.053  1.00  0.00     0.246 C
HETATM    4  O1  UNL     1       2.264 -17.045 -51.023  1.00  0.00    -0.268 OA
HETATM    5  N4  UNL     1       0.419 -15.845 -50.272  1.00  0.00    -0.312 N
ATOM      6  H4  UNL     1      -0.115 -14.976 -50.296  1.00  0.00     0.170 HD
BRANCH   5   7
HETATM    7  C6  UNL     1      -0.044 -16.921 -49.449  1.00  0.00     0.107 A
HETATM    8  N5  UNL     1       0.469 -17.281 -48.325  1.00  0.00    -0.286 N
HETATM    9  N6  UNL     1      -0.204 -18.357 -47.766  1.00  0.00    -0.268 N
ATOM     10  H5  UNL     1       1.277 -16.829 -47.897  1.00  0.00     0.188 HD
HETATM   11  C7  UNL     1      -1.271 -18.727 -48.629  1.00  0.00     0.243 A
ATOM     12  H6  UNL     1       0.028 -18.808 -46.881  1.00  0.00     0.190 HD
HETATM   13  O2  UNL     1      -2.125 -19.622 -48.518  1.00  0.00    -0.271 OA
HETATM   14  C8  UNL     1      -1.191 -17.788 -49.787  1.00  0.00     0.182 A
ENDBRANCH   5   7
ENDBRANCH   2   3
BRANCH   1  15
HETATM   15  C2  UNL     1       3.458 -13.638 -53.352  1.00  0.00     0.092 A
HETATM   16  N3  UNL     1       4.654 -13.136 -53.605  1.00  0.00    -0.292 N
HETATM   17  N2  UNL     1       4.768 -12.086 -54.316  1.00  0.00    -0.279 N
ATOM     18  H3  UNL     1       5.487 -13.591 -53.229  1.00  0.00     0.187 HD
HETATM   19  C1  UNL     1       3.661 -11.514 -54.792  1.00  0.00     0.159 A
ATOM     20  H2  UNL     1       5.687 -11.691 -54.517  1.00  0.00     0.189 HD
HETATM   21  S1  UNL     1       2.443 -12.545 -54.179  1.00  0.00    -0.034 SA
BRANCH  19  22
HETATM   22  N1  UNL     1       3.602 -10.434 -55.537  1.00  0.00    -0.379 N
ATOM     23  H12 UNL     1       4.090  -9.540 -55.479  1.00  0.00     0.158 HD
ATOM     24  H11 UNL     1       3.014 -10.298 -56.359  1.00  0.00     0.158 HD
ENDBRANCH  19  22
ENDBRANCH   1  15
TORSDOF 4
ENDMDL