MODEL 5
REMARK VINA RESULT: -5.037955550      1.127      1.127
REMARK  4 active torsions:
REMARK  status: ('A' for Active; 'I' for Inactive)
REMARK    1  A    between atoms: N3_10  and  C4_12
REMARK    2  A    between atoms: C4_12  and  C5_13
REMARK    3  A    between atoms: C5_13  and  S1_14
REMARK    4  A    between atoms: S1_14  and  C6_15
ROOT
HETATM    1  N1  UNL     1       0.198 -18.218 -47.900  1.00  0.00    -0.381 N
ATOM      2  H11 UNL     1      -0.699 -18.499 -47.505  1.00  0.00     0.157 HD
ATOM      3  H12 UNL     1       1.075 -18.574 -47.519  1.00  0.00     0.157 HD
HETATM    4  C1  UNL     1       0.216 -17.388 -48.909  1.00  0.00     0.171 A
HETATM    5  N2  UNL     1       1.459 -16.998 -49.455  1.00  0.00    -0.302 N
ATOM      6  H2  UNL     1       2.332 -17.357 -49.070  1.00  0.00     0.171 HD
HETATM    7  C2  UNL     1       1.467 -16.085 -50.564  1.00  0.00     0.291 A
HETATM    8  O1  UNL     1       2.564 -15.746 -51.039  1.00  0.00    -0.264 OA
HETATM    9  C3  UNL     1       0.242 -15.557 -51.133  1.00  0.00     0.173 A
HETATM   10  N3  UNL     1       0.263 -14.762 -52.100  1.00  0.00    -0.371 N
ATOM     11  H3  UNL     1       1.190 -14.519 -52.450  1.00  0.00     0.161 HD
HETATM   12  N5  UNL     1      -0.988 -15.965 -50.565  1.00  0.00    -0.302 N
ATOM     13  H5  UNL     1      -1.862 -15.605 -50.950  1.00  0.00     0.171 HD
HETATM   14  C7  UNL     1      -1.030 -16.881 -49.451  1.00  0.00     0.290 A
HETATM   15  O2  UNL     1      -2.124 -17.243 -48.948  1.00  0.00    -0.264 OA
ENDROOT
BRANCH  10  16
HETATM   16  C4  UNL     1      -0.834 -14.149 -52.780  1.00  0.00     0.132 C
BRANCH  16  17
HETATM   17  C5  UNL     1      -0.579 -12.766 -53.262  1.00  0.00     0.101 C
BRANCH  17  18
HETATM   18  S1  UNL     1      -1.777 -11.633 -52.516  1.00  0.00    -0.102 SA
BRANCH  18  19
HETATM   19  C6  UNL     1      -1.377  -9.932 -52.714  1.00  0.00     0.149 C
HETATM   20  N4  UNL     1      -0.351  -9.569 -53.625  1.00  0.00    -0.082 NA
HETATM   21  S2  UNL     1      -2.139  -8.751 -51.901  1.00  0.00    -0.056 SA
ENDBRANCH  18  19
ENDBRANCH  17  18
ENDBRANCH  16  17
ENDBRANCH  10  16
TORSDOF 4
ENDMDL