MODEL 1
REMARK VINA RESULT: -5.379097916      0.000      0.000
REMARK  4 active torsions:
REMARK  status: ('A' for Active; 'I' for Inactive)
REMARK    1  A    between atoms: C2_2  and  C4_4
REMARK    2  A    between atoms: C5_9  and  C6_10
REMARK    3  A    between atoms: C6_10  and  C7_11
REMARK    4  A    between atoms: C10_24  and  N7_25
ROOT
HETATM    1  C4  UNL     1      -1.032 -17.534 -49.140  1.00  0.00     0.096 A
HETATM    2  N1  UNL     1      -1.502 -17.118 -50.344  1.00  0.00    -0.295 N
ATOM      3  H1  UNL     1      -2.440 -17.400 -50.629  1.00  0.00     0.187 HD
HETATM    4  N2  UNL     1      -0.789 -16.363 -51.161  1.00  0.00    -0.288 N
ATOM      5  H2  UNL     1      -1.187 -16.078 -52.056  1.00  0.00     0.188 HD
HETATM    6  C5  UNL     1       0.457 -15.962 -50.828  1.00  0.00     0.104 A
HETATM    7  N6  UNL     1       0.920 -16.367 -49.648  1.00  0.00    -0.329 N
ATOM      8  H6  UNL     1       1.860 -16.074 -49.381  1.00  0.00     0.168 HD
HETATM    9  C10 UNL     1       0.228 -17.143 -48.775  1.00  0.00     0.129 A
ENDROOT
BRANCH   6  10
HETATM   10  C6  UNL     1       1.221 -15.114 -51.776  1.00  0.00     0.154 C
BRANCH  10  11
HETATM   11  C7  UNL     1       0.351 -14.149 -52.484  1.00  0.00     0.096 A
HETATM   12  N3  UNL     1      -0.510 -13.323 -51.866  1.00  0.00    -0.297 N
HETATM   13  C8  UNL     1      -1.287 -12.455 -52.562  1.00  0.00     0.329 A
ATOM     14  H3  UNL     1      -0.581 -13.349 -50.849  1.00  0.00     0.172 HD
HETATM   15  O1  UNL     1      -2.083 -11.697 -51.924  1.00  0.00    -0.246 OA
HETATM   16  N4  UNL     1      -1.220 -12.393 -53.903  1.00  0.00    -0.260 N
HETATM   17  C9  UNL     1      -0.353 -13.224 -54.524  1.00  0.00     0.329 A
ATOM     18  H4  UNL     1      -1.801 -11.744 -54.433  1.00  0.00     0.175 HD
HETATM   19  O2  UNL     1      -0.310 -13.147 -55.776  1.00  0.00    -0.246 OA
HETATM   20  N5  UNL     1       0.419 -14.087 -53.824  1.00  0.00    -0.297 N
ATOM     21  H5  UNL     1       1.063 -14.701 -54.322  1.00  0.00     0.172 HD
ENDBRANCH  10  11
ENDBRANCH   6  10
BRANCH   9  22
HETATM   22  N7  UNL     1       0.696 -17.513 -47.657  1.00  0.00    -0.384 N
ATOM     23  H72 UNL     1       0.393 -18.361 -47.179  1.00  0.00     0.157 HD
ATOM     24  H71 UNL     1       1.410 -16.946 -47.200  1.00  0.00     0.157 HD
ENDBRANCH   9  22
BRANCH   1  25
HETATM   25  C2  UNL     1      -1.876 -18.364 -48.296  1.00  0.00    -0.039 C
HETATM   26  C1  UNL     1      -1.746 -19.674 -48.388  1.00  0.00     0.021 C
HETATM   27  C3  UNL     1      -2.864 -17.829 -47.347  1.00  0.00     0.050 C
ENDBRANCH   1  25
TORSDOF 4
ENDMDL