MODEL 2
REMARK VINA RESULT: -7.494322999      2.091      2.623
REMARK  8 active torsions:
REMARK  status: ('A' for Active; 'I' for Inactive)
REMARK    1  A    between atoms: C8_8  and  O1_9
REMARK    2  A    between atoms: C10_12  and  N1_13
REMARK    3  A    between atoms: N1_13  and  C11_15
REMARK    4  A    between atoms: C11_15  and  C12_16
REMARK    5  A    between atoms: C12_16  and  C14_18
REMARK    6  A    between atoms: C14_18  and  C15_20
REMARK    7  A    between atoms: C15_20  and  C16_21
REMARK    8  A    between atoms: C16_21  and  C18_23
ROOT
HETATM    1  N1  UNL     1      12.248   5.513   1.792  1.00  0.00    -0.415 N
ATOM      2  H1  UNL     1      11.979   4.558   2.029  1.00  0.00     0.153 HD
ENDROOT
BRANCH   1   3
HETATM    3  C10 UNL     1      11.279   6.510   1.856  1.00  0.00     0.087 C
HETATM    4  C5  UNL     1      10.166   6.394   2.832  1.00  0.00    -0.018 C
HETATM    5  C4  UNL     1       8.908   5.947   2.140  1.00  0.00     0.012 C
HETATM    6  C6  UNL     1      10.378   5.509   4.006  1.00  0.00     0.015 C
HETATM    7  C7  UNL     1       9.960   7.852   3.262  1.00  0.00     0.043 C
HETATM    8  C3  UNL     1       8.335   4.794   2.891  1.00  0.00     0.005 C
HETATM    9  C2  UNL     1       9.129   4.667   4.137  1.00  0.00    -0.018 C
HETATM   10  C1  UNL     1       8.348   5.040   5.387  1.00  0.00     0.010 C
HETATM   11  C8  UNL     1      11.396   8.372   3.332  1.00  0.00     0.120 C
HETATM   12  C9  UNL     1      11.944   7.858   2.030  1.00  0.00     0.057 C
BRANCH  11  13
HETATM   13  O1  UNL     1      11.465   9.742   3.436  1.00  0.00    -0.395 OA
ATOM     14  H1  UNL     1      12.304  10.047   3.761  1.00  0.00     0.210 HD
ENDBRANCH  11  13
ENDBRANCH   1   3
BRANCH   1  15
HETATM   15  C11 UNL     1      13.571   5.758   1.417  1.00  0.00     0.126 C
BRANCH  15  16
HETATM   16  C12 UNL     1      13.692   5.499  -0.094  1.00  0.00     0.068 C
HETATM   17  C13 UNL     1      14.249   6.787  -0.672  1.00  0.00     0.019 C
BRANCH  16  18
HETATM   18  C14 UNL     1      14.587   4.346  -0.354  1.00  0.00     0.132 C
HETATM   19  O2  UNL     1      15.788   4.517  -0.249  1.00  0.00    -0.298 OA
BRANCH  18  20
HETATM   20  C15 UNL     1      14.089   3.013  -0.732  1.00  0.00     0.083 C
BRANCH  20  21
HETATM   21  C16 UNL     1      13.365   2.999  -2.073  1.00  0.00    -0.004 C
HETATM   22  C17 UNL     1      11.887   3.108  -1.916  1.00  0.00     0.011 C
BRANCH  21  23
HETATM   23  C18 UNL     1      13.845   1.817  -2.839  1.00  0.00     0.041 C
HETATM   24  C19 UNL     1      15.319   1.806  -3.184  1.00  0.00     0.239 C
HETATM   25  N2  UNL     1      14.957   1.149  -4.431  1.00  0.00    -0.074 N
HETATM   26  C20 UNL     1      13.653   1.821  -4.320  1.00  0.00     0.239 C
ATOM     27  H22 UNL     1      15.534   1.247  -5.267  1.00  0.00     0.277 HD
ATOM     28  H21 UNL     1      15.024   0.137  -4.534  1.00  0.00     0.277 HD
ENDBRANCH  21  23
ENDBRANCH  20  21
ENDBRANCH  18  20
ENDBRANCH  16  18
ENDBRANCH  15  16
ENDBRANCH   1  15
TORSDOF 8
ENDMDL