MODEL 3
REMARK VINA RESULT: -6.257499318      1.600      2.105
REMARK  10 active torsions:
REMARK  status: ('A' for Active; 'I' for Inactive)
REMARK    1  A    between atoms: C5_5  and  O1_6
REMARK    2  A    between atoms: C8_10  and  C9_11
REMARK    3  A    between atoms: C9_11  and  O2_12
REMARK    4  A    between atoms: C9_11  and  C10_14
REMARK    5  A    between atoms: C10_14  and  C11_15
REMARK    6  A    between atoms: C11_15  and  O3_17
REMARK    7  A    between atoms: C11_15  and  C13_19
REMARK    8  A    between atoms: C13_19  and  C14_20
REMARK    9  A    between atoms: C14_20  and  C15_21
REMARK   10  A    between atoms: C15_21  and  C16_22
ROOT
HETATM    1  C1  UNL     1       8.225   5.312   6.357  1.00  0.00     0.015 C
HETATM    2  C2  UNL     1       9.252   5.697   5.617  1.00  0.00    -0.083 C
HETATM    3  C3  UNL     1      10.615   5.486   6.123  1.00  0.00     0.036 C
HETATM    4  C4  UNL     1      11.586   5.533   4.993  1.00  0.00     0.037 C
HETATM    5  C5  UNL     1      11.391   6.808   4.216  1.00  0.00     0.131 C
HETATM    6  C6  UNL     1      10.046   6.908   3.565  1.00  0.00     0.015 A
HETATM    7  C7  UNL     1       9.798   8.412   3.359  1.00  0.00     0.023 C
HETATM    8  C8  UNL     1      10.012   6.316   2.210  1.00  0.00    -0.043 A
HETATM    9  C17 UNL     1       9.013   5.472   2.133  1.00  0.00    -0.015 A
HETATM   10  C18 UNL     1       8.247   5.371   3.385  1.00  0.00     0.013 A
HETATM   11  C19 UNL     1       8.236   3.946   3.888  1.00  0.00     0.015 C
HETATM   12  C20 UNL     1       8.926   6.324   4.310  1.00  0.00     0.036 A
ENDROOT
BRANCH   8  13
HETATM   13  C9  UNL     1      10.943   6.595   1.062  1.00  0.00     0.150 C
BRANCH  13  14
HETATM   14  O2  UNL     1      10.169   6.715  -0.068  1.00  0.00    -0.391 OA
ATOM     15  H2  UNL     1      10.665   6.342  -0.788  1.00  0.00     0.210 HD
ENDBRANCH  13  14
BRANCH  13  16
HETATM   16  C10 UNL     1      12.006   5.574   0.997  1.00  0.00     0.073 C
BRANCH  16  17
HETATM   17  C11 UNL     1      13.304   6.020   0.410  1.00  0.00     0.057 C
HETATM   18  C12 UNL     1      14.243   6.577   1.480  1.00  0.00     0.045 C
BRANCH  17  19
HETATM   19  O3  UNL     1      13.056   7.084  -0.444  1.00  0.00    -0.390 OA
ATOM     20  H3  UNL     1      13.341   6.841  -1.317  1.00  0.00     0.210 HD
ENDBRANCH  17  19
BRANCH  17  21
HETATM   21  C13 UNL     1      14.060   4.972  -0.313  1.00  0.00     0.038 C
BRANCH  21  22
HETATM   22  C14 UNL     1      13.288   3.950  -1.062  1.00  0.00     0.013 C
BRANCH  22  23
HETATM   23  C15 UNL     1      13.874   2.587  -1.107  1.00  0.00     0.113 C
BRANCH  23  24
HETATM   24  C16 UNL     1      14.448   2.346  -2.479  1.00  0.00     0.172 C
HETATM   25  O4  UNL     1      15.692   2.229  -2.574  1.00  0.00    -0.648 OA
HETATM   26  O5  UNL     1      13.631   2.259  -3.597  1.00  0.00    -0.648 OA
ENDBRANCH  23  24
ENDBRANCH  22  23
ENDBRANCH  21  22
ENDBRANCH  17  21
ENDBRANCH  16  17
ENDBRANCH  13  16
ENDBRANCH   8  13
BRANCH   5  27
HETATM   27  O1  UNL     1      11.630   7.898   5.046  1.00  0.00    -0.394 OA
ATOM     28  H1  UNL     1      12.565   7.992   5.182  1.00  0.00     0.210 HD
ENDBRANCH   5  27
TORSDOF 10
ENDMDL