MODEL 1
REMARK VINA RESULT: -7.345876152      0.000      0.000
REMARK  10 active torsions:
REMARK  status: ('A' for Active; 'I' for Inactive)
REMARK    1  A    between atoms: C4_4  and  C5_5
REMARK    2  A    between atoms: C5_5  and  N3_13
REMARK    3  A    between atoms: N1_6  and  C6_8
REMARK    4  A    between atoms: C6_8  and  C7_9
REMARK    5  A    between atoms: N3_13  and  C10_15
REMARK    6  A    between atoms: C10_15  and  C11_16
REMARK    7  A    between atoms: C10_15  and  C17_22
REMARK    8  A    between atoms: C11_16  and  C12_17
REMARK    9  A    between atoms: C17_22  and  O1_23
REMARK   10  A    between atoms: C17_22  and  O2_25
ROOT
HETATM    1  C7  UNL     1      12.800   2.979  -2.692  1.00  0.00     0.003 C
HETATM    2  C8  UNL     1      13.876   2.222  -2.706  1.00  0.00     0.091 C
HETATM    3  C9  UNL     1      14.724   2.151  -3.861  1.00  0.00     0.087 C
HETATM    4  N2  UNL     1      15.407   2.084  -4.811  1.00  0.00    -0.192 NA
ENDROOT
BRANCH   1   5
HETATM    5  C6  UNL     1      11.926   3.051  -1.498  1.00  0.00     0.148 C
BRANCH   5   6
HETATM    6  N1  UNL     1      11.220   4.282  -1.395  1.00  0.00    -0.376 N
HETATM    7  C5  UNL     1      11.364   5.227  -0.548  1.00  0.00     0.079 C
ATOM      8  H1  UNL     1      10.495   4.430  -2.096  1.00  0.00     0.161 HD
BRANCH   7   9
HETATM    9  C4  UNL     1      12.301   5.314   0.565  1.00  0.00     0.070 A
HETATM   10  C2  UNL     1      13.547   6.187   0.294  1.00  0.00    -0.029 A
HETATM   11  C1  UNL     1      13.536   7.063  -0.924  1.00  0.00     0.016 C
HETATM   12  C3  UNL     1      14.899   5.583   0.609  1.00  0.00     0.016 C
HETATM   13  C18 UNL     1      12.571   6.456   1.412  1.00  0.00    -0.029 A
HETATM   14  C19 UNL     1      11.822   7.759   1.418  1.00  0.00     0.016 C
HETATM   15  C20 UNL     1      13.183   6.166   2.795  1.00  0.00     0.016 C
ENDBRANCH   7   9
BRANCH   7  16
HETATM   16  N3  UNL     1      10.488   6.359  -0.765  1.00  0.00    -0.370 N
ATOM     17  H3  UNL     1      10.808   7.304  -0.554  1.00  0.00     0.161 HD
BRANCH  16  18
HETATM   18  C10 UNL     1       9.129   6.136  -1.294  1.00  0.00     0.138 C
BRANCH  18  19
HETATM   19  C11 UNL     1       8.199   6.765  -0.313  1.00  0.00     0.034 C
BRANCH  19  20
HETATM   20  C12 UNL     1       8.669   6.894   1.087  1.00  0.00    -0.012 C
HETATM   21  C13 UNL     1       7.771   7.716   1.962  1.00  0.00     0.005 C
HETATM   22  C14 UNL     1       8.163   7.224   3.362  1.00  0.00     0.000 C
HETATM   23  C15 UNL     1       8.540   5.780   3.209  1.00  0.00     0.000 C
HETATM   24  C16 UNL     1       8.497   5.508   1.738  1.00  0.00     0.005 C
ENDBRANCH  19  20
ENDBRANCH  18  19
BRANCH  18  25
HETATM   25  C17 UNL     1       9.067   6.730  -2.684  1.00  0.00     0.276 C
BRANCH  25  26
HETATM   26  O1  UNL     1       9.790   6.021  -3.630  1.00  0.00    -0.369 OA
ATOM     27  H1  UNL     1       9.934   6.496  -4.440  1.00  0.00     0.212 HD
ENDBRANCH  25  26
BRANCH  25  28
HETATM   28  O2  UNL     1       7.780   7.004  -3.088  1.00  0.00    -0.369 OA
ATOM     29  H2  UNL     1       7.744   7.644  -3.789  1.00  0.00     0.212 HD
ENDBRANCH  25  28
ENDBRANCH  18  25
ENDBRANCH  16  18
ENDBRANCH   7  16
ENDBRANCH   5   6
ENDBRANCH   1   5
TORSDOF 10
ENDMDL