MODEL 4
REMARK VINA RESULT: -7.810348241      1.550      2.308
REMARK  9 active torsions:
REMARK  status: ('A' for Active; 'I' for Inactive)
REMARK    1  A    between atoms: O1_1  and  C1_3
REMARK    2  A    between atoms: C1_3  and  C2_4
REMARK    3  A    between atoms: C2_4  and  N1_5
REMARK    4  A    between atoms: N1_5  and  C3_7
REMARK    5  A    between atoms: C6_10  and  N2_11
REMARK    6  A    between atoms: C10_15  and  O2_16
REMARK    7  A    between atoms: C10_15  and  C11_18
REMARK    8  A    between atoms: C11_18  and  C12_19
REMARK    9  A    between atoms: C12_19  and  C13_20
ROOT
HETATM    1  N2  UNL     1       9.350   6.812  -1.067  1.00  0.00    -0.405 N
HETATM    2  C7  UNL     1       8.769   6.846   0.234  1.00  0.00     0.117 C
HETATM    3  C8  UNL     1       9.258   5.681   1.074  1.00  0.00     0.022 C
HETATM    4  C9  UNL     1      10.809   5.700   1.077  1.00  0.00     0.041 C
HETATM    5  C10 UNL     1      11.320   5.738  -0.330  1.00  0.00     0.074 C
HETATM    6  C19 UNL     1      10.147   5.656  -1.335  1.00  0.00     0.155 C
ENDROOT
BRANCH   1   7
HETATM    7  C6  UNL     1       8.590   7.354  -2.127  1.00  0.00     0.079 C
HETATM    8  C5  UNL     1       8.121   6.387  -3.152  1.00  0.00     0.027 C
HETATM    9  C4  UNL     1       6.683   6.079  -3.245  1.00  0.00     0.027 C
HETATM   10  C3  UNL     1       5.717   7.008  -2.647  1.00  0.00     0.076 C
HETATM   11  C21 UNL     1       6.397   8.371  -2.493  1.00  0.00     0.027 C
HETATM   12  C20 UNL     1       7.472   8.159  -1.481  1.00  0.00     0.027 C
BRANCH  10  13
HETATM   13  N1  UNL     1       4.486   7.191  -3.319  1.00  0.00    -0.415 N
ATOM     14  H1  UNL     1       4.276   8.060  -3.810  1.00  0.00     0.153 HD
BRANCH  13  15
HETATM   15  C2  UNL     1       3.552   6.123  -3.286  1.00  0.00     0.140 C
BRANCH  15  16
HETATM   16  C1  UNL     1       3.351   5.651  -4.732  1.00  0.00     0.183 C
BRANCH  16  17
HETATM   17  O1  UNL     1       2.957   4.304  -4.736  1.00  0.00    -0.399 OA
ATOM     18  H1  UNL     1       2.762   4.027  -3.848  1.00  0.00     0.209 HD
ENDBRANCH  16  17
ENDBRANCH  15  16
ENDBRANCH  13  15
ENDBRANCH  10  13
ENDBRANCH   1   7
BRANCH   5  19
HETATM   19  O2  UNL     1      11.920   7.022  -0.549  1.00  0.00    -0.388 OA
ATOM     20  H2  UNL     1      12.061   7.428   0.298  1.00  0.00     0.210 HD
ENDBRANCH   5  19
BRANCH   5  21
HETATM   21  C11 UNL     1      12.321   4.716  -0.653  1.00  0.00     0.044 C
BRANCH  21  22
HETATM   22  C12 UNL     1      11.960   3.481  -1.371  1.00  0.00     0.041 C
BRANCH  22  23
HETATM   23  C13 UNL     1      12.868   2.848  -2.299  1.00  0.00    -0.058 A
HETATM   24  C14 UNL     1      12.439   2.562  -3.596  1.00  0.00     0.007 A
HETATM   25  C15 UNL     1      13.269   1.943  -4.493  1.00  0.00     0.001 A
HETATM   26  C16 UNL     1      14.550   1.581  -4.154  1.00  0.00     0.000 A
HETATM   27  C17 UNL     1      14.983   1.859  -2.874  1.00  0.00     0.001 A
HETATM   28  C18 UNL     1      14.151   2.480  -1.976  1.00  0.00     0.007 A
ENDBRANCH  22  23
ENDBRANCH  21  22
ENDBRANCH   5  21
TORSDOF 9
ENDMDL