MODEL 2
REMARK VINA RESULT: -6.525300003      0.097      1.486
REMARK  8 active torsions:
REMARK  status: ('A' for Active; 'I' for Inactive)
REMARK    1  A    between atoms: C2_2  and  C4_4
REMARK    2  A    between atoms: C4_4  and  N1_5
REMARK    3  A    between atoms: C4_4  and  C17_23
REMARK       I    between atoms: N1_5  and  C5_7
REMARK    4  A    between atoms: C5_7  and  C6_9
REMARK    5  A    between atoms: C6_9  and  N2_10
REMARK    6  A    between atoms: N2_10  and  C7_13
REMARK    7  A    between atoms: C17_23  and  O2_24
REMARK    8  A    between atoms: C17_23  and  C18_26
ROOT
HETATM    1  N1  UNL     1      12.740   5.292   0.053  1.00  0.00    -0.352 N
ATOM      2  H1  UNL     1      12.223   5.141   0.919  1.00  0.00     0.163 HD
HETATM    3  C5  UNL     1      13.969   5.998   0.115  1.00  0.00     0.243 C
HETATM    4  O1  UNL     1      14.581   6.166  -0.983  1.00  0.00    -0.272 OA
ENDROOT
BRANCH   3   5
HETATM    5  C6  UNL     1      14.491   6.503   1.411  1.00  0.00     0.335 C
BRANCH   5   6
HETATM    6  N2  UNL     1      13.552   6.155   2.437  1.00  0.00    -0.058 N
ATOM      7  H22 UNL     1      12.764   5.646   2.038  1.00  0.00     0.278 HD
ATOM      8  H21 UNL     1      13.941   5.431   3.042  1.00  0.00     0.278 HD
BRANCH   6   9
HETATM    9  C7  UNL     1      13.084   7.262   3.222  1.00  0.00     0.127 C
HETATM   10  C8  UNL     1      14.186   8.102   3.802  1.00  0.00     0.043 C
HETATM   11  C9  UNL     1      13.550   9.176   4.648  1.00  0.00    -0.012 C
HETATM   12  C10 UNL     1      12.802   8.594   5.826  1.00  0.00     0.009 C
HETATM   13  C14 UNL     1      12.594  10.043   3.883  1.00  0.00     0.009 C
HETATM   14  C11 UNL     1      11.721   7.698   5.287  1.00  0.00    -0.012 C
HETATM   15  C12 UNL     1      10.755   8.501   4.445  1.00  0.00     0.009 C
HETATM   16  C16 UNL     1      12.339   6.650   4.416  1.00  0.00     0.043 C
HETATM   17  C13 UNL     1      11.499   9.161   3.320  1.00  0.00    -0.012 C
HETATM   18  C15 UNL     1      12.092   8.065   2.447  1.00  0.00     0.043 C
ENDBRANCH   6   9
ENDBRANCH   5   6
ENDBRANCH   3   5
BRANCH   1  19
HETATM   19  C4  UNL     1      12.183   4.777  -1.180  1.00  0.00     0.122 C
BRANCH  19  20
HETATM   20  C2  UNL     1      10.770   5.284  -1.280  1.00  0.00     0.003 C
HETATM   21  C1  UNL     1      10.604   6.378  -2.291  1.00  0.00     0.011 C
HETATM   22  C3  UNL     1      10.433   5.865   0.081  1.00  0.00     0.011 C
ENDBRANCH  19  20
BRANCH  19  23
HETATM   23  C17 UNL     1      12.314   3.299  -1.174  1.00  0.00     0.190 C
BRANCH  23  24
HETATM   24  O2  UNL     1      11.259   2.612  -1.729  1.00  0.00    -0.387 OA
ATOM     25  H2  UNL     1      11.455   1.727  -2.014  1.00  0.00     0.210 HD
ENDBRANCH  23  24
BRANCH  23  26
HETATM   26  C18 UNL     1      13.550   2.932  -1.911  1.00  0.00     0.041 A
HETATM   27  N3  UNL     1      14.820   3.152  -1.899  1.00  0.00    -0.367 N
HETATM   28  C19 UNL     1      15.094   2.321  -3.031  1.00  0.00     0.090 A
ATOM     29  H3  UNL     1      15.418   3.717  -1.296  1.00  0.00     0.165 HD
HETATM   30  C20 UNL     1      13.790   2.072  -3.075  1.00  0.00     0.045 A
ENDBRANCH  23  26
ENDBRANCH  19  23
ENDBRANCH   1  19
TORSDOF 8
ENDMDL