MODEL 5
REMARK VINA RESULT: -6.286591623      2.367      4.287
REMARK  9 active torsions:
REMARK  status: ('A' for Active; 'I' for Inactive)
REMARK    1  A    between atoms: C2_2  and  N1_3
REMARK    2  A    between atoms: C2_2  and  C10_15
REMARK    3  A    between atoms: N1_3  and  C3_5
REMARK    4  A    between atoms: C3_5  and  C4_6
REMARK    5  A    between atoms: C4_6  and  O1_7
REMARK    6  A    between atoms: C4_6  and  C5_9
REMARK    7  A    between atoms: C5_9  and  O2_10
REMARK    8  A    between atoms: O2_10  and  C6_11
REMARK       I    between atoms: C10_15  and  N2_17
REMARK    9  A    between atoms: N2_17  and  C11_19
ROOT
HETATM    1  C1  UNL     1       9.755   6.551  -3.979  1.00  0.00     0.042 C
HETATM    2  C2  UNL     1       8.605   6.753  -3.028  1.00  0.00     0.169 C
ENDROOT
BRANCH   2   3
HETATM    3  N1  UNL     1       7.457   6.024  -3.201  1.00  0.00    -0.387 N
ATOM      4  H1  UNL     1       7.552   5.182  -3.769  1.00  0.00     0.159 HD
BRANCH   3   5
HETATM    5  C3  UNL     1       6.183   6.273  -2.707  1.00  0.00     0.090 C
BRANCH   5   6
HETATM    6  C4  UNL     1       5.659   7.711  -2.770  1.00  0.00     0.179 C
BRANCH   6   7
HETATM    7  O1  UNL     1       5.954   8.237  -1.474  1.00  0.00    -0.388 OA
ATOM      8  H1  UNL     1       5.465   7.675  -0.885  1.00  0.00     0.210 HD
ENDBRANCH   6   7
BRANCH   6   9
HETATM    9  C5  UNL     1       4.205   7.830  -2.997  1.00  0.00     0.205 C
BRANCH   9  10
HETATM   10  O2  UNL     1       3.798   7.547  -4.260  1.00  0.00    -0.379 OA
BRANCH  10  11
HETATM   11  C6  UNL     1       2.855   6.534  -4.340  1.00  0.00     0.050 C
HETATM   12  C7  UNL     1       2.341   6.127  -2.984  1.00  0.00     0.045 C
HETATM   13  C8  UNL     1       1.597   7.061  -5.059  1.00  0.00     0.045 C
HETATM   14  C9  UNL     1       3.348   5.389  -5.132  1.00  0.00     0.045 C
ENDBRANCH  10  11
ENDBRANCH   9  10
ENDBRANCH   6   9
ENDBRANCH   5   6
ENDBRANCH   3   5
ENDBRANCH   2   3
BRANCH   2  15
HETATM   15  C10 UNL     1       9.226   6.583  -1.637  1.00  0.00     0.240 C
HETATM   16  O3  UNL     1       8.669   7.003  -0.635  1.00  0.00    -0.271 OA
HETATM   17  N2  UNL     1      10.478   5.918  -1.614  1.00  0.00    -0.350 N
ATOM     18  H2  UNL     1      10.736   5.573  -2.539  1.00  0.00     0.163 HD
BRANCH  17  19
HETATM   19  C11 UNL     1      11.449   5.611  -0.665  1.00  0.00     0.037 C
HETATM   20  C12 UNL     1      12.407   4.479  -0.833  1.00  0.00     0.036 C
HETATM   21  C13 UNL     1      13.585   4.948   0.040  1.00  0.00    -0.011 C
HETATM   22  C14 UNL     1      13.201   5.205   1.460  1.00  0.00     0.009 C
HETATM   23  C18 UNL     1      13.802   6.320  -0.644  1.00  0.00     0.012 C
HETATM   24  C15 UNL     1      11.949   6.044   1.584  1.00  0.00    -0.011 C
HETATM   25  C16 UNL     1      12.155   7.356   0.850  1.00  0.00     0.012 C
HETATM   26  C19 UNL     1      10.855   5.449   0.725  1.00  0.00     0.036 C
HETATM   27  C17 UNL     1      12.406   6.850  -0.536  1.00  0.00     0.014 C
ENDBRANCH  17  19
ENDBRANCH   2  15
TORSDOF 9
ENDMDL