MODEL 4
REMARK VINA RESULT: -6.296972428      2.888      8.827
REMARK  9 active torsions:
REMARK  status: ('A' for Active; 'I' for Inactive)
REMARK    1  A    between atoms: O1_2  and  C2_3
REMARK    2  A    between atoms: C2_3  and  C3_4
REMARK    3  A    between atoms: C3_4  and  C4_5
REMARK    4  A    between atoms: C3_4  and  N2_14
REMARK    5  A    between atoms: C4_5  and  C5_6
REMARK    6  A    between atoms: C5_6  and  C6_7
REMARK    7  A    between atoms: C6_7  and  N1_10
REMARK    8  A    between atoms: N2_14  and  C9_16
REMARK    9  A    between atoms: N5_22  and  C11_24
ROOT
HETATM    1  C9  UNL     1       9.712   6.186  -2.229  1.00  0.00     0.163 A
HETATM    2  N3  UNL     1       8.702   6.050  -1.370  1.00  0.00    -0.278 N
ATOM      3  H3  UNL     1       8.807   5.475  -0.535  1.00  0.00     0.189 HD
HETATM    4  N4  UNL     1       7.602   6.649  -1.609  1.00  0.00    -0.278 N
ATOM      5  H4  UNL     1       6.815   6.560  -0.967  1.00  0.00     0.189 HD
HETATM    6  C10 UNL     1       7.493   7.394  -2.708  1.00  0.00     0.163 A
HETATM    7  N5  UNL     1       6.463   8.085  -3.137  1.00  0.00    -0.365 N
ATOM      8  H5  UNL     1       6.513   8.618  -4.005  1.00  0.00     0.162 HD
HETATM    9  S1  UNL     1       9.039   7.215  -3.416  1.00  0.00    -0.016 SA
ENDROOT
BRANCH   1  10
HETATM   10  N2  UNL     1      10.913   5.653  -2.159  1.00  0.00    -0.363 N
ATOM     11  H2  UNL     1      11.569   5.703  -2.939  1.00  0.00     0.162 HD
BRANCH  10  12
HETATM   12  C3  UNL     1      11.260   4.982  -0.897  1.00  0.00     0.107 C
BRANCH  12  13
HETATM   13  C2  UNL     1      12.274   3.929  -1.243  1.00  0.00     0.192 C
BRANCH  13  14
HETATM   14  O1  UNL     1      13.448   4.056  -0.539  1.00  0.00    -0.394 OA
HETATM   15  C1  UNL     1      14.494   3.413  -1.198  1.00  0.00     0.201 C
ENDBRANCH  13  14
ENDBRANCH  12  13
BRANCH  12  16
HETATM   16  C4  UNL     1      11.774   6.030   0.027  1.00  0.00     0.030 C
BRANCH  16  17
HETATM   17  C5  UNL     1      11.142   6.016   1.382  1.00  0.00     0.040 C
BRANCH  17  18
HETATM   18  C6  UNL     1      12.219   6.317   2.408  1.00  0.00     0.116 C
HETATM   19  C7  UNL     1      11.657   5.920   3.772  1.00  0.00     0.045 C
HETATM   20  C8  UNL     1      12.572   7.802   2.400  1.00  0.00     0.045 C
BRANCH  18  21
HETATM   21  N1  UNL     1      13.435   5.594   2.169  1.00  0.00    -0.071 N
ATOM     22  H13 UNL     1      13.403   5.113   1.270  1.00  0.00     0.275 HD
ATOM     23  H12 UNL     1      14.210   6.233   1.989  1.00  0.00     0.275 HD
ATOM     24  H11 UNL     1      13.665   4.945   2.922  1.00  0.00     0.275 HD
ENDBRANCH  18  21
ENDBRANCH  17  18
ENDBRANCH  16  17
ENDBRANCH  12  16
ENDBRANCH  10  12
ENDBRANCH   1  10
BRANCH   7  25
HETATM   25  C11 UNL     1       5.274   8.069  -2.352  1.00  0.00     0.083 C
HETATM   26  C12 UNL     1       4.011   7.993  -3.178  1.00  0.00     0.025 C
HETATM   27  C13 UNL     1       2.871   7.671  -2.232  1.00  0.00     0.002 C
HETATM   28  C14 UNL     1       3.154   8.282  -0.889  1.00  0.00     0.000 C
HETATM   29  C15 UNL     1       3.858   9.617  -0.990  1.00  0.00     0.002 C
HETATM   30  C16 UNL     1       5.212   9.398  -1.592  1.00  0.00     0.025 C
ENDBRANCH   7  25
TORSDOF 9
ENDMDL