MODEL 2
REMARK VINA RESULT: -6.762949155      1.042      1.615
REMARK  12 active torsions:
REMARK  status: ('A' for Active; 'I' for Inactive)
REMARK    1  A    between atoms: C2_2  and  C5_5
REMARK    2  A    between atoms: C6_6  and  O1_7
REMARK    3  A    between atoms: O1_7  and  N1_8
REMARK    4  A    between atoms: C7_10  and  N2_11
REMARK    5  A    between atoms: C7_10  and  C14_23
REMARK    6  A    between atoms: N2_11  and  C8_13
REMARK    7  A    between atoms: C8_13  and  C9_14
REMARK    8  A    between atoms: C9_14  and  C10_15
REMARK    9  A    between atoms: C10_15  and  C11_16
REMARK   10  A    between atoms: C11_16  and  C12_17
REMARK   11  A    between atoms: C12_17  and  C13_18
REMARK   12  A    between atoms: C13_18  and  N3_19
ROOT
HETATM    1  N1  UNL     1      11.126   5.625   0.926  1.00  0.00    -0.237 N
ATOM      2  H1  UNL     1      10.438   5.468   1.662  1.00  0.00     0.197 HD
HETATM    3  C7  UNL     1      12.310   6.014   1.260  1.00  0.00     0.132 C
ENDROOT
BRANCH   3   4
HETATM    4  N2  UNL     1      13.268   6.232   0.233  1.00  0.00    -0.377 N
ATOM      5  H2  UNL     1      13.016   6.874  -0.519  1.00  0.00     0.160 HD
BRANCH   4   6
HETATM    6  C8  UNL     1      14.550   5.623   0.174  1.00  0.00     0.121 C
BRANCH   6   7
HETATM    7  C9  UNL     1      14.617   4.619  -0.953  1.00  0.00     0.020 C
BRANCH   7   8
HETATM    8  C10 UNL     1      13.909   3.334  -0.603  1.00  0.00     0.002 C
BRANCH   8   9
HETATM    9  C11 UNL     1      13.535   2.522  -1.801  1.00  0.00     0.002 C
BRANCH   9  10
HETATM   10  C12 UNL     1      14.703   2.136  -2.658  1.00  0.00     0.027 C
BRANCH  10  11
HETATM   11  C13 UNL     1      14.152   1.510  -3.928  1.00  0.00     0.229 C
BRANCH  11  12
HETATM   12  N3  UNL     1      15.225   1.165  -4.849  1.00  0.00    -0.079 N
ATOM     13  H33 UNL     1      16.095   1.640  -4.608  1.00  0.00     0.274 HD
ATOM     14  H32 UNL     1      15.534   0.201  -4.721  1.00  0.00     0.274 HD
ATOM     15  H31 UNL     1      14.952   1.347  -5.815  1.00  0.00     0.274 HD
ENDBRANCH  11  12
ENDBRANCH  10  11
ENDBRANCH   9  10
ENDBRANCH   8   9
ENDBRANCH   7   8
ENDBRANCH   6   7
ENDBRANCH   4   6
ENDBRANCH   3   4
BRANCH   3  16
HETATM   16  C14 UNL     1      12.593   6.208   2.685  1.00  0.00     0.291 C
HETATM   17  C15 UNL     1      11.375   5.888   3.555  1.00  0.00     0.048 C
HETATM   18  C16 UNL     1      11.441   6.869   4.722  1.00  0.00    -0.009 C
HETATM   19  C17 UNL     1      11.094   8.232   4.138  1.00  0.00     0.035 C
HETATM   20  C20 UNL     1      12.866   6.874   5.247  1.00  0.00     0.035 C
HETATM   21  C18 UNL     1      12.154   8.539   3.097  1.00  0.00     0.273 C
HETATM   22  N4  UNL     1      13.127   7.504   2.957  1.00  0.00     0.100 N
HETATM   23  C19 UNL     1      13.846   7.413   4.237  1.00  0.00     0.273 C
ENDBRANCH   3  16
BRANCH   1  24
HETATM   24  O1  UNL     1      10.752   5.412  -0.378  1.00  0.00    -0.184 OA
BRANCH  24  25
HETATM   25  C6  UNL     1       9.678   6.041  -0.931  1.00  0.00     0.085 C
HETATM   26  C5  UNL     1       8.736   6.615  -1.427  1.00  0.00    -0.065 C
BRANCH  26  27
HETATM   27  C2  UNL     1       7.601   7.331  -2.047  1.00  0.00     0.015 C
HETATM   28  C1  UNL     1       8.151   8.238  -3.106  1.00  0.00     0.028 C
HETATM   29  C3  UNL     1       6.974   8.208  -0.977  1.00  0.00     0.028 C
HETATM   30  C4  UNL     1       6.577   6.375  -2.571  1.00  0.00     0.028 C
ENDBRANCH  26  27
ENDBRANCH  24  25
ENDBRANCH   1  24
TORSDOF 12
ENDMDL