MODEL 2
REMARK VINA RESULT: -7.309623432      0.877      1.096
REMARK  9 active torsions:
REMARK  status: ('A' for Active; 'I' for Inactive)
REMARK       I    between atoms: C1_2  and  N1_3
REMARK       I    between atoms: C1_2  and  N3_23
REMARK    1  A    between atoms: N1_3  and  C2_5
REMARK    2  A    between atoms: C2_5  and  C3_6
REMARK    3  A    between atoms: C3_6  and  C4_7
REMARK    4  A    between atoms: C4_7  and  C5_8
REMARK    5  A    between atoms: C5_8  and  O2_9
REMARK    6  A    between atoms: O2_9  and  C6_10
REMARK    7  A    between atoms: C9_13  and  C10_14
REMARK    8  A    between atoms: C10_14  and  O3_15
REMARK    9  A    between atoms: N2_17  and  O4_19
ROOT
HETATM    1  C5  UNL     1      12.661   5.946   2.487  1.00  0.00     0.172 C
ENDROOT
BRANCH   1   2
HETATM    2  C4  UNL     1      11.632   5.883   3.636  1.00  0.00     0.054 C
BRANCH   2   3
HETATM    3  C3  UNL     1      10.305   6.350   3.212  1.00  0.00    -0.007 C
BRANCH   3   4
HETATM    4  C2  UNL     1       9.387   5.544   2.404  1.00  0.00     0.089 C
BRANCH   4   5
HETATM    5  N1  UNL     1       8.966   5.955   1.131  1.00  0.00    -0.319 N
HETATM    6  C1  UNL     1       8.178   7.016   0.717  1.00  0.00     0.322 C
HETATM    7  O1  UNL     1       7.694   7.849   1.508  1.00  0.00    -0.247 OA
HETATM    8  N3  UNL     1       7.858   7.236  -0.666  1.00  0.00    -0.329 N
HETATM    9  C13 UNL     1       7.054   8.300  -1.203  1.00  0.00     0.132 C
HETATM   10  C16 UNL     1       8.251   6.480  -1.777  1.00  0.00     0.089 C
HETATM   11  C14 UNL     1       7.139   7.916  -2.661  1.00  0.00     0.007 C
HETATM   12  C15 UNL     1       8.618   7.578  -2.790  1.00  0.00     0.031 C
HETATM   13  C17 UNL     1       6.939   6.398  -2.577  1.00  0.00     0.031 C
ATOM     14  H1  UNL     1       9.302   5.364   0.371  1.00  0.00     0.169 HD
ENDBRANCH   4   5
ENDBRANCH   3   4
ENDBRANCH   2   3
ENDBRANCH   1   2
BRANCH   1  15
HETATM   15  O2  UNL     1      12.051   6.732   1.511  1.00  0.00    -0.386 OA
BRANCH  15  16
HETATM   16  C6  UNL     1      12.795   6.795   0.331  1.00  0.00     0.121 C
HETATM   17  C7  UNL     1      12.012   6.171  -0.769  1.00  0.00     0.033 C
HETATM   18  C8  UNL     1      12.252   4.724  -1.014  1.00  0.00     0.015 C
HETATM   19  C9  UNL     1      13.577   4.203  -0.611  1.00  0.00     0.062 C
HETATM   20  C11 UNL     1      14.619   5.310  -0.519  1.00  0.00     0.015 C
HETATM   21  C12 UNL     1      14.126   6.201   0.601  1.00  0.00     0.033 C
BRANCH  19  22
HETATM   22  C10 UNL     1      14.072   3.238  -1.621  1.00  0.00     0.139 C
HETATM   23  N2  UNL     1      15.337   3.040  -1.763  1.00  0.00    -0.251 N
ATOM     24  H2  UNL     1      16.008   3.546  -1.184  1.00  0.00     0.196 HD
BRANCH  22  25
HETATM   25  O3  UNL     1      13.148   2.558  -2.400  1.00  0.00    -0.348 OA
ATOM     26  H3  UNL     1      12.973   1.645  -2.206  1.00  0.00     0.219 HD
ENDBRANCH  22  25
BRANCH  23  27
HETATM   27  O4  UNL     1      15.770   2.142  -2.704  1.00  0.00    -0.288 OA
ATOM     28  H4  UNL     1      15.129   1.672  -3.224  1.00  0.00     0.244 HD
ENDBRANCH  23  27
ENDBRANCH  19  22
ENDBRANCH  15  16
ENDBRANCH   1  15
TORSDOF 9
ENDMDL