MODEL 4
REMARK VINA RESULT: -5.832445668      2.005      4.247
REMARK  10 active torsions:
REMARK  status: ('A' for Active; 'I' for Inactive)
REMARK    1  A    between atoms: C2_2  and  O1_5
REMARK    2  A    between atoms: O1_5  and  C5_6
REMARK    3  A    between atoms: C5_6  and  N1_8
REMARK    4  A    between atoms: N1_8  and  C6_10
REMARK    5  A    between atoms: C6_10  and  C7_11
REMARK    6  A    between atoms: C7_11  and  N2_12
REMARK       I    between atoms: N3_15  and  C10_16
REMARK       I    between atoms: C10_16  and  N4_18
REMARK    7  A    between atoms: N4_18  and  C11_20
REMARK    8  A    between atoms: C11_20  and  C12_21
REMARK    9  A    between atoms: C12_21  and  C13_22
REMARK   10  A    between atoms: C13_22  and  C14_23
ROOT
HETATM    1  N2  UNL     1       5.554  59.738  26.832  1.00  0.00     0.093 N
HETATM    2  C8  UNL     1       4.334  59.309  27.421  1.00  0.00     0.292 C
HETATM    3  C9  UNL     1       3.860  58.096  26.647  1.00  0.00     0.158 C
HETATM    4  N3  UNL     1       4.601  57.853  25.441  1.00  0.00    -0.331 N
HETATM    5  C10 UNL     1       3.896  57.518  24.248  1.00  0.00     0.318 C
HETATM    6  O2  UNL     1       2.619  57.447  24.289  1.00  0.00    -0.247 OA
HETATM    7  N4  UNL     1       4.642  57.280  23.076  1.00  0.00    -0.343 N
ATOM      8  H4  UNL     1       5.658  57.363  23.114  1.00  0.00     0.164 HD
HETATM    9  C19 UNL     1       6.033  57.933  25.405  1.00  0.00     0.158 C
HETATM   10  C20 UNL     1       6.495  58.650  26.683  1.00  0.00     0.292 C
ENDROOT
BRANCH   7  11
HETATM   11  C11 UNL     1       4.023  56.924  21.828  1.00  0.00     0.124 C
BRANCH  11  12
HETATM   12  C12 UNL     1       4.284  57.985  20.806  1.00  0.00     0.022 C
BRANCH  12  13
HETATM   13  C13 UNL     1       5.216  59.060  21.170  1.00  0.00     0.034 C
BRANCH  13  14
HETATM   14  C14 UNL     1       4.831  60.472  21.148  1.00  0.00     0.186 C
HETATM   15  C15 UNL     1       5.835  61.525  20.993  1.00  0.00     0.033 C
HETATM   16  C16 UNL     1       5.456  62.741  21.837  1.00  0.00     0.004 C
HETATM   17  C17 UNL     1       5.518  62.370  23.318  1.00  0.00     0.027 C
HETATM   18  C18 UNL     1       4.871  60.998  23.497  1.00  0.00     0.232 C
HETATM   19  N5  UNL     1       4.022  60.721  22.347  1.00  0.00    -0.071 N
ATOM     20  H52 UNL     1       3.339  61.464  22.194  1.00  0.00     0.277 HD
ATOM     21  H51 UNL     1       3.375  59.954  22.531  1.00  0.00     0.277 HD
ENDBRANCH  13  14
ENDBRANCH  12  13
ENDBRANCH  11  12
ENDBRANCH   7  11
BRANCH   1  22
HETATM   22  C7  UNL     1       6.129  60.924  27.378  1.00  0.00     0.292 C
BRANCH  22  23
HETATM   23  C6  UNL     1       5.161  61.933  27.881  1.00  0.00     0.152 C
BRANCH  23  24
HETATM   24  N1  UNL     1       5.331  63.158  27.121  1.00  0.00    -0.360 N
ATOM     25  H1  UNL     1       5.963  63.194  26.321  1.00  0.00     0.162 HD
BRANCH  24  26
HETATM   26  C5  UNL     1       4.600  64.299  27.517  1.00  0.00     0.210 C
HETATM   27  S1  UNL     1       4.661  64.793  29.059  1.00  0.00    -0.033 SA
BRANCH  26  28
HETATM   28  O1  UNL     1       3.844  64.986  26.604  1.00  0.00    -0.317 OA
BRANCH  28  29
HETATM   29  C2  UNL     1       2.597  64.634  26.096  1.00  0.00     0.059 C
HETATM   30  C1  UNL     1       1.801  65.933  25.919  1.00  0.00     0.045 C
HETATM   31  C3  UNL     1       2.674  63.962  24.740  1.00  0.00     0.045 C
HETATM   32  C4  UNL     1       1.803  63.739  27.002  1.00  0.00     0.045 C
ENDBRANCH  28  29
ENDBRANCH  26  28
ENDBRANCH  24  26
ENDBRANCH  23  24
ENDBRANCH  22  23
ENDBRANCH   1  22
TORSDOF 10
ENDMDL