MODEL 2
REMARK VINA RESULT: -8.343503536      1.502      2.575
REMARK  8 active torsions:
REMARK  status: ('A' for Active; 'I' for Inactive)
REMARK    1  A    between atoms: N1_1  and  C1_4
REMARK    2  A    between atoms: C2_7  and  O1_8
REMARK    3  A    between atoms: O1_8  and  C3_9
REMARK    4  A    between atoms: C3_9  and  C4_10
REMARK    5  A    between atoms: C10_16  and  C11_17
REMARK    6  A    between atoms: C11_17  and  C12_18
REMARK    7  A    between atoms: C12_18  and  N3_19
REMARK    8  A    between atoms: C19_28  and  C20_29
ROOT
HETATM    1  C4  UNL     1       4.505  60.289  22.595  1.00  0.00    -0.017 C
HETATM    2  C5  UNL     1       4.568  61.263  23.768  1.00  0.00     0.016 C
HETATM    3  C6  UNL     1       5.054  62.588  23.296  1.00  0.00    -0.013 C
HETATM    4  C7  UNL     1       3.925  63.242  22.508  1.00  0.00     0.009 C
HETATM    5  C8  UNL     1       3.701  62.316  21.336  1.00  0.00    -0.013 C
HETATM    6  C9  UNL     1       4.943  62.358  20.475  1.00  0.00     0.014 C
HETATM    7  C10 UNL     1       6.052  61.620  21.200  1.00  0.00    -0.037 C
HETATM    8  C16 UNL     1       6.280  62.533  22.463  1.00  0.00     0.014 C
HETATM    9  C17 UNL     1       5.727  60.305  21.765  1.00  0.00     0.021 C
HETATM   10  C18 UNL     1       3.385  60.914  21.676  1.00  0.00     0.016 C
ENDROOT
BRANCH   1  11
HETATM   11  C3  UNL     1       3.943  58.986  23.018  1.00  0.00     0.187 C
BRANCH  11  12
HETATM   12  O1  UNL     1       4.584  57.820  22.615  1.00  0.00    -0.334 OA
BRANCH  12  13
HETATM   13  C2  UNL     1       3.878  57.048  21.657  1.00  0.00     0.169 A
HETATM   14  N2  UNL     1       4.175  57.387  20.374  1.00  0.00    -0.170 N
HETATM   15  C1  UNL     1       3.598  56.757  19.316  1.00  0.00     0.680 A
ATOM     16  H2  UNL     1       4.848  58.134  20.201  1.00  0.00     0.186 HD
HETATM   17  N5  UNL     1       2.725  55.793  19.567  1.00  0.00    -0.156 N
HETATM   18  C23 UNL     1       2.383  55.406  20.837  1.00  0.00     0.270 A
ATOM     19  H5  UNL     1       2.287  55.316  18.779  1.00  0.00     0.187 HD
HETATM   20  C19 UNL     1       2.971  56.043  21.889  1.00  0.00     0.066 A
HETATM   21  O2  UNL     1       1.546  54.491  20.899  1.00  0.00    -0.267 OA
BRANCH  15  22
HETATM   22  N1  UNL     1       3.906  57.114  18.087  1.00  0.00    -0.234 N
ATOM     23  H12 UNL     1       4.339  58.014  17.879  1.00  0.00     0.174 HD
ATOM     24  H11 UNL     1       3.719  56.482  17.309  1.00  0.00     0.174 HD
ENDBRANCH  15  22
BRANCH  20  25
HETATM   25  C20 UNL     1       2.747  55.646  23.295  1.00  0.00     0.029 A
HETATM   26  C21 UNL     1       1.915  56.468  24.225  1.00  0.00     0.010 A
HETATM   27  C22 UNL     1       1.244  55.260  23.666  1.00  0.00     0.010 A
ENDBRANCH  20  25
ENDBRANCH  12  13
ENDBRANCH  11  12
ENDBRANCH   1  11
BRANCH   7  28
HETATM   28  C11 UNL     1       7.316  61.750  20.442  1.00  0.00     0.029 C
BRANCH  28  29
HETATM   29  C12 UNL     1       7.569  60.612  19.478  1.00  0.00     0.130 C
BRANCH  29  30
HETATM   30  N3  UNL     1       7.969  61.067  18.167  1.00  0.00    -0.352 N
HETATM   31  C13 UNL     1       8.362  62.277  17.758  1.00  0.00     0.108 A
HETATM   32  C14 UNL     1       8.662  62.212  16.391  1.00  0.00     0.106 A
HETATM   33  N4  UNL     1       8.426  60.964  16.038  1.00  0.00    -0.361 N
HETATM   34  C15 UNL     1       8.007  60.208  17.057  1.00  0.00     0.182 A
ATOM     35  H4  UNL     1       8.551  60.612  15.088  1.00  0.00     0.166 HD
ENDBRANCH  29  30
ENDBRANCH  28  29
ENDBRANCH   7  28
TORSDOF 8
ENDMDL