MODEL 4
REMARK VINA RESULT: -6.190159168      2.813      5.008
REMARK  9 active torsions:
REMARK  status: ('A' for Active; 'I' for Inactive)
REMARK    1  A    between atoms: C2_2  and  C3_3
REMARK    2  A    between atoms: C3_3  and  N1_4
REMARK       I    between atoms: N1_4  and  C4_6
REMARK    3  A    between atoms: C4_6  and  C5_8
REMARK    4  A    between atoms: C8_12  and  C9_13
REMARK    5  A    between atoms: C9_13  and  C10_14
REMARK    6  A    between atoms: C10_14  and  C11_15
REMARK    7  A    between atoms: C16_20  and  O2_21
REMARK    8  A    between atoms: C17_23  and  C18_24
REMARK    9  A    between atoms: C22_28  and  O3_29
ROOT
HETATM    1  C5  UNL     1       5.086  63.714  28.927  1.00  0.00     0.149 C
HETATM    2  C6  UNL     1       6.043  63.453  30.073  1.00  0.00     0.057 C
HETATM    3  C7  UNL     1       3.809  62.918  29.179  1.00  0.00     0.122 C
HETATM    4  S1  UNL     1       3.871  61.292  28.450  1.00  0.00    -0.156 SA
HETATM    5  C8  UNL     1       5.072  61.219  27.098  1.00  0.00     0.102 C
HETATM    6  C22 UNL     1       6.137  62.268  27.435  1.00  0.00     0.272 C
HETATM    7  O4  UNL     1       5.629  63.496  27.700  1.00  0.00    -0.339 OA
ENDROOT
BRANCH   5   8
HETATM    8  C9  UNL     1       4.523  61.519  25.757  1.00  0.00     0.021 C
BRANCH   8   9
HETATM    9  C10 UNL     1       5.139  60.990  24.551  1.00  0.00     0.011 C
BRANCH   9  10
HETATM   10  C11 UNL     1       4.404  60.266  23.517  1.00  0.00    -0.037 C
HETATM   11  C12 UNL     1       3.016  60.788  23.280  1.00  0.00     0.016 C
HETATM   12  C13 UNL     1       5.176  60.462  22.208  1.00  0.00    -0.008 C
HETATM   13  C14 UNL     1       4.561  61.543  21.345  1.00  0.00     0.011 C
HETATM   14  C15 UNL     1       5.369  59.225  21.415  1.00  0.00     0.037 C
HETATM   15  C16 UNL     1       4.142  58.311  21.361  1.00  0.00     0.126 C
HETATM   16  C17 UNL     1       3.534  58.076  22.668  1.00  0.00     0.041 C
HETATM   17  C20 UNL     1       4.249  58.785  23.816  1.00  0.00    -0.000 C
HETATM   18  C21 UNL     1       5.519  58.068  24.096  1.00  0.00     0.011 C
BRANCH  15  19
HETATM   19  O2  UNL     1       4.528  57.238  20.598  1.00  0.00    -0.395 OA
ATOM     20  H2  UNL     1       3.976  56.520  20.882  1.00  0.00     0.210 HD
ENDBRANCH  15  19
BRANCH  16  21
HETATM   21  C18 UNL     1       3.267  56.723  23.139  1.00  0.00    -0.029 C
HETATM   22  C19 UNL     1       2.270  55.916  22.966  1.00  0.00     0.007 C
ENDBRANCH  16  21
ENDBRANCH   9  10
ENDBRANCH   8   9
ENDBRANCH   5   8
BRANCH   6  23
HETATM   23  O3  UNL     1       6.974  61.729  28.375  1.00  0.00    -0.370 OA
ATOM     24  H3  UNL     1       7.441  62.443  28.791  1.00  0.00     0.212 HD
ENDBRANCH   6  23
BRANCH   1  25
HETATM   25  C4  UNL     1       4.695  65.147  29.020  1.00  0.00     0.253 C
HETATM   26  N1  UNL     1       4.598  65.984  27.875  1.00  0.00    -0.355 N
ATOM     27  H1  UNL     1       4.805  65.575  26.964  1.00  0.00     0.162 HD
HETATM   28  O1  UNL     1       4.432  65.689  30.132  1.00  0.00    -0.270 OA
BRANCH  26  29
HETATM   29  C3  UNL     1       4.227  67.362  27.921  1.00  0.00     0.149 C
BRANCH  29  30
HETATM   30  C2  UNL     1       4.733  68.074  26.714  1.00  0.00    -0.018 C
HETATM   31  C1  UNL     1       4.657  69.376  26.611  1.00  0.00     0.008 C
ENDBRANCH  29  30
ENDBRANCH  26  29
ENDBRANCH   1  25
TORSDOF 9
ENDMDL