MODEL 1
REMARK VINA RESULT: -7.207878181      0.000      0.000
REMARK  9 active torsions:
REMARK  status: ('A' for Active; 'I' for Inactive)
REMARK    1  A    between atoms: N1_1  and  C1_4
REMARK    2  A    between atoms: C2_7  and  N3_8
REMARK    3  A    between atoms: N3_8  and  C3_10
REMARK    4  A    between atoms: C3_10  and  C4_11
REMARK    5  A    between atoms: C4_11  and  C5_12
REMARK    6  A    between atoms: C5_12  and  C6_13
REMARK    7  A    between atoms: C6_13  and  N4_14
REMARK    8  A    between atoms: C7_16  and  C8_17
REMARK    9  A    between atoms: C8_17  and  N5_18
ROOT
HETATM    1  C1  UNL     1       3.188  56.677  19.406  1.00  0.00     0.678 A
HETATM    2  N2  UNL     1       4.149  57.597  19.646  1.00  0.00    -0.176 N
ATOM      3  H2  UNL     1       4.615  58.018  18.841  1.00  0.00     0.186 HD
HETATM    4  C2  UNL     1       4.534  57.995  20.867  1.00  0.00     0.134 A
HETATM    5  C14 UNL     1       3.906  57.426  22.006  1.00  0.00     0.051 A
HETATM    6  C15 UNL     1       4.148  57.692  23.297  1.00  0.00    -0.021 A
HETATM    7  C16 UNL     1       3.399  57.005  24.228  1.00  0.00     0.060 A
HETATM    8  S1  UNL     1       2.391  56.020  23.272  1.00  0.00    -0.067 SA
HETATM    9  C17 UNL     1       2.939  56.500  21.721  1.00  0.00     0.105 A
HETATM   10  N6  UNL     1       2.581  56.127  20.472  1.00  0.00    -0.185 N
ATOM     11  H6  UNL     1       1.851  55.427  20.338  1.00  0.00     0.185 HD
HETATM   12  C18 UNL     1       3.545  57.186  25.681  1.00  0.00     0.167 C
HETATM   13  O1  UNL     1       2.565  56.963  26.438  1.00  0.00    -0.292 OA
HETATM   14  C19 UNL     1       4.821  57.627  26.295  1.00  0.00     0.085 C
HETATM   15  C20 UNL     1       5.780  57.870  25.170  1.00  0.00     0.012 C
HETATM   16  C21 UNL     1       5.109  58.625  24.009  1.00  0.00     0.041 C
ENDROOT
BRANCH   4  17
HETATM   17  N3  UNL     1       5.445  58.861  20.979  1.00  0.00    -0.355 N
ATOM     18  H3  UNL     1       5.953  58.863  21.863  1.00  0.00     0.166 HD
BRANCH  17  19
HETATM   19  C3  UNL     1       5.845  59.821  20.036  1.00  0.00     0.062 C
BRANCH  19  20
HETATM   20  C4  UNL     1       7.327  60.165  20.105  1.00  0.00     0.046 C
BRANCH  20  21
HETATM   21  C5  UNL     1       7.609  61.499  19.460  1.00  0.00     0.025 C
BRANCH  21  22
HETATM   22  C6  UNL     1       7.550  62.630  20.458  1.00  0.00     0.119 C
BRANCH  22  23
HETATM   23  N4  UNL     1       6.252  63.228  20.525  1.00  0.00    -0.400 N
HETATM   24  C7  UNL     1       5.450  63.147  21.493  1.00  0.00     0.085 C
ATOM     25  H4  UNL     1       5.949  63.770  19.715  1.00  0.00     0.158 HD
BRANCH  24  26
HETATM   26  C8  UNL     1       5.737  62.401  22.738  1.00  0.00     0.316 C
BRANCH  26  27
HETATM   27  N5  UNL     1       4.614  62.391  23.622  1.00  0.00     0.093 N
HETATM   28  C9  UNL     1       3.681  63.459  23.447  1.00  0.00     0.273 C
HETATM   29  C10 UNL     1       2.970  63.833  24.723  1.00  0.00     0.030 C
HETATM   30  C11 UNL     1       2.575  62.604  25.514  1.00  0.00     0.003 C
HETATM   31  C12 UNL     1       3.766  61.727  25.785  1.00  0.00     0.030 C
HETATM   32  C13 UNL     1       4.975  62.139  24.984  1.00  0.00     0.273 C
ENDBRANCH  26  27
ENDBRANCH  24  26
ENDBRANCH  22  23
ENDBRANCH  21  22
ENDBRANCH  20  21
ENDBRANCH  19  20
ENDBRANCH  17  19
ENDBRANCH   4  17
BRANCH   1  33
HETATM   33  N1  UNL     1       2.903  56.372  18.194  1.00  0.00    -0.234 N
ATOM     34  H12 UNL     1       3.483  56.633  17.397  1.00  0.00     0.174 HD
ATOM     35  H11 UNL     1       2.053  55.842  18.001  1.00  0.00     0.174 HD
ENDBRANCH   1  33
TORSDOF 9
ENDMDL