MODEL 5
REMARK VINA RESULT: -7.384400631      2.904      7.494
REMARK  11 active torsions:
REMARK  status: ('A' for Active; 'I' for Inactive)
REMARK    1  A    between atoms: C2_2  and  O1_3
REMARK    2  A    between atoms: O1_3  and  C3_4
REMARK    3  A    between atoms: C3_4  and  C4_6
REMARK    4  A    between atoms: C4_6  and  C5_7
REMARK    5  A    between atoms: C5_7  and  C6_8
REMARK    6  A    between atoms: C7_9  and  C8_10
REMARK    7  A    between atoms: C8_10  and  C9_11
REMARK    8  A    between atoms: C11_13  and  C12_14
REMARK    9  A    between atoms: C12_14  and  O3_15
REMARK   10  A    between atoms: C15_19  and  O4_20
REMARK   11  A    between atoms: C16_22  and  O5_23
ROOT
HETATM    1  C9  UNL     1       2.366  56.396  23.376  1.00  0.00    -0.004 C
HETATM    2  C10 UNL     1       2.754  56.017  21.968  1.00  0.00     0.012 C
HETATM    3  C11 UNL     1       3.981  56.886  21.608  1.00  0.00     0.014 C
HETATM    4  C13 UNL     1       3.763  58.025  22.577  1.00  0.00     0.003 C
HETATM    5  C14 UNL     1       3.581  57.158  23.832  1.00  0.00     0.026 C
HETATM    6  C15 UNL     1       3.402  58.014  25.001  1.00  0.00     0.152 C
HETATM    7  C16 UNL     1       4.631  58.869  25.172  1.00  0.00     0.152 C
HETATM    8  C17 UNL     1       5.047  59.650  24.003  1.00  0.00     0.026 C
HETATM    9  C18 UNL     1       4.202  60.857  23.688  1.00  0.00    -0.003 C
HETATM   10  C19 UNL     1       4.834  62.152  24.051  1.00  0.00     0.005 C
HETATM   11  C20 UNL     1       4.870  63.123  22.883  1.00  0.00     0.000 C
HETATM   12  C21 UNL     1       5.765  62.440  21.871  1.00  0.00     0.000 C
HETATM   13  C22 UNL     1       5.056  61.252  21.348  1.00  0.00     0.005 C
HETATM   14  C23 UNL     1       4.234  60.448  22.261  1.00  0.00    -0.005 C
HETATM   15  C24 UNL     1       4.768  59.066  22.659  1.00  0.00     0.002 C
ENDROOT
BRANCH   1  16
HETATM   16  C8  UNL     1       2.057  55.206  24.238  1.00  0.00     0.031 C
BRANCH  16  17
HETATM   17  C7  UNL     1       0.853  54.488  23.864  1.00  0.00    -0.030 C
HETATM   18  C6  UNL     1       0.816  53.332  23.235  1.00  0.00    -0.030 C
BRANCH  18  19
HETATM   19  C5  UNL     1       1.993  52.557  22.797  1.00  0.00     0.037 C
BRANCH  19  20
HETATM   20  C4  UNL     1       1.762  52.112  21.369  1.00  0.00     0.115 C
BRANCH  20  21
HETATM   21  C3  UNL     1       2.840  52.600  20.492  1.00  0.00     0.259 C
HETATM   22  O2  UNL     1       3.976  52.074  20.432  1.00  0.00    -0.265 OA
BRANCH  21  23
HETATM   23  O1  UNL     1       2.568  53.717  19.683  1.00  0.00    -0.322 OA
BRANCH  23  24
HETATM   24  C2  UNL     1       1.359  53.724  18.942  1.00  0.00     0.174 C
HETATM   25  C1  UNL     1       1.160  55.057  18.284  1.00  0.00     0.034 C
ENDBRANCH  23  24
ENDBRANCH  21  23
ENDBRANCH  20  21
ENDBRANCH  19  20
ENDBRANCH  18  19
ENDBRANCH  16  17
ENDBRANCH   1  16
BRANCH   3  26
HETATM   26  C12 UNL     1       3.963  57.250  20.169  1.00  0.00     0.169 C
BRANCH  26  27
HETATM   27  O3  UNL     1       4.285  56.164  19.377  1.00  0.00    -0.400 OA
ATOM     28  H3  UNL     1       5.076  55.738  19.685  1.00  0.00     0.209 HD
ENDBRANCH  26  27
ENDBRANCH   3  26
BRANCH   6  29
HETATM   29  O4  UNL     1       2.240  58.753  25.042  1.00  0.00    -0.393 OA
ATOM     30  H4  UNL     1       2.075  59.317  24.295  1.00  0.00     0.210 HD
ENDBRANCH   6  29
BRANCH   7  31
HETATM   31  O5  UNL     1       5.712  58.136  25.664  1.00  0.00    -0.393 OA
ATOM     32  H5  UNL     1       6.536  58.425  25.290  1.00  0.00     0.210 HD
ENDBRANCH   7  31
TORSDOF 11
ENDMDL