MODEL 4
REMARK VINA RESULT: -7.089190715      0.817      1.263
REMARK  7 active torsions:
REMARK  status: ('A' for Active; 'I' for Inactive)
REMARK    1  A    between atoms: C2_3  and  N2_4
REMARK       I    between atoms: N2_4  and  C3_6
REMARK       I    between atoms: C3_6  and  N3_8
REMARK    2  A    between atoms: N3_8  and  C4_10
REMARK    3  A    between atoms: C7_13  and  C8_14
REMARK    4  A    between atoms: C8_14  and  N4_15
REMARK       I    between atoms: N4_15  and  C9_17
REMARK    5  A    between atoms: C9_17  and  C10_19
REMARK    6  A    between atoms: C10_19  and  C11_20
REMARK    7  A    between atoms: C11_20  and  C12_21
ROOT
HETATM    1  N1  UNL     1       2.592  61.749  28.781  1.00  0.00    -0.195 NA
HETATM    2  C1  UNL     1       3.540  62.355  28.502  1.00  0.00     0.091 C
HETATM    3  C2  UNL     1       4.766  63.112  28.155  1.00  0.00     0.123 C
HETATM    4  C18 UNL     1       4.783  64.297  29.094  1.00  0.00     0.046 C
HETATM    5  C19 UNL     1       5.400  63.740  30.341  1.00  0.00     0.004 C
HETATM    6  C20 UNL     1       6.499  62.841  29.818  1.00  0.00     0.004 C
HETATM    7  C21 UNL     1       5.947  62.285  28.538  1.00  0.00     0.046 C
ENDROOT
BRANCH   3   8
HETATM    8  N2  UNL     1       4.721  63.476  26.768  1.00  0.00    -0.321 N
HETATM    9  C3  UNL     1       5.008  62.543  25.737  1.00  0.00     0.317 C
HETATM   10  O1  UNL     1       5.312  61.361  26.019  1.00  0.00    -0.247 OA
HETATM   11  N3  UNL     1       4.958  62.930  24.376  1.00  0.00    -0.338 N
ATOM     12  H3  UNL     1       4.711  63.895  24.159  1.00  0.00     0.164 HD
ATOM     13  H2  UNL     1       4.476  64.433  26.516  1.00  0.00     0.166 HD
BRANCH  11  14
HETATM   14  C4  UNL     1       5.234  62.041  23.285  1.00  0.00     0.086 C
HETATM   15  C5  UNL     1       5.589  62.838  22.037  1.00  0.00     0.026 C
HETATM   16  C6  UNL     1       6.122  61.931  20.971  1.00  0.00     0.008 C
HETATM   17  C7  UNL     1       5.189  60.805  20.706  1.00  0.00     0.003 C
HETATM   18  C16 UNL     1       3.890  61.030  21.456  1.00  0.00     0.008 C
HETATM   19  C17 UNL     1       4.096  61.090  22.962  1.00  0.00     0.026 C
BRANCH  17  20
HETATM   20  C8  UNL     1       5.778  59.472  21.101  1.00  0.00     0.127 C
BRANCH  20  21
HETATM   21  N4  UNL     1       5.021  58.419  20.485  1.00  0.00    -0.361 N
HETATM   22  C9  UNL     1       4.342  57.393  21.180  1.00  0.00     0.217 C
HETATM   23  O2  UNL     1       4.356  57.322  22.427  1.00  0.00    -0.274 OA
ATOM     24  H4  UNL     1       4.969  58.411  19.466  1.00  0.00     0.162 HD
BRANCH  22  25
HETATM   25  C10 UNL     1       3.603  56.391  20.354  1.00  0.00     0.104 C
BRANCH  25  26
HETATM   26  C11 UNL     1       3.136  55.271  21.291  1.00  0.00     0.024 C
BRANCH  26  27
HETATM   27  C12 UNL     1       1.792  54.724  20.810  1.00  0.00     0.047 C
HETATM   28  C13 UNL     1       1.746  54.863  19.330  1.00  0.00     0.016 C
HETATM   29  C14 UNL     1       1.137  53.640  18.730  1.00  0.00     0.011 C
HETATM   30  C15 UNL     1       1.807  52.435  19.299  1.00  0.00     0.074 C
HETATM   31  S1  UNL     1       1.872  52.908  21.074  1.00  0.00    -0.164 SA
ENDBRANCH  26  27
ENDBRANCH  25  26
ENDBRANCH  22  25
ENDBRANCH  20  21
ENDBRANCH  17  20
ENDBRANCH  11  14
ENDBRANCH   3   8
TORSDOF 7
ENDMDL