MODEL 5
REMARK VINA RESULT: -6.247952544      2.544      5.022
REMARK  10 active torsions:
REMARK  status: ('A' for Active; 'I' for Inactive)
REMARK    1  A    between atoms: O1_2  and  C2_3
REMARK    2  A    between atoms: C2_3  and  C3_4
REMARK    3  A    between atoms: C3_4  and  C4_5
REMARK    4  A    between atoms: C4_5  and  C5_6
REMARK    5  A    between atoms: C5_6  and  C6_7
REMARK    6  A    between atoms: C6_7  and  C7_8
REMARK    7  A    between atoms: C7_8  and  N1_9
REMARK    8  A    between atoms: C12_15  and  O3_16
REMARK    9  A    between atoms: C13_18  and  O4_19
REMARK   10  A    between atoms: C23_30  and  O5_31
ROOT
HETATM    1  N1  UNL     1       3.776  60.295  23.767  1.00  0.00    -0.338 N
HETATM    2  C8  UNL     1       3.874  58.889  23.953  1.00  0.00     0.220 C
HETATM    3  O2  UNL     1       3.237  57.938  23.458  1.00  0.00    -0.273 OA
HETATM    4  C9  UNL     1       4.975  58.574  24.952  1.00  0.00     0.105 C
HETATM    5  C10 UNL     1       5.513  59.966  25.159  1.00  0.00     0.046 C
HETATM    6  C11 UNL     1       4.253  60.858  25.021  1.00  0.00     0.090 C
HETATM    7  C12 UNL     1       4.701  62.250  25.057  1.00  0.00     0.178 C
HETATM    8  C13 UNL     1       3.702  63.270  25.492  1.00  0.00     0.155 C
HETATM    9  C14 UNL     1       2.502  62.756  26.200  1.00  0.00     0.035 C
HETATM   10  C15 UNL     1       1.795  63.871  26.958  1.00  0.00    -0.041 C
HETATM   11  C16 UNL     1       1.824  65.187  26.180  1.00  0.00     0.015 C
HETATM   12  C17 UNL     1       0.290  63.575  27.074  1.00  0.00     0.015 C
HETATM   13  C18 UNL     1       2.401  64.150  28.288  1.00  0.00     0.009 C
HETATM   14  C19 UNL     1       3.041  63.035  28.995  1.00  0.00     0.002 C
HETATM   15  C20 UNL     1       3.639  61.944  28.191  1.00  0.00     0.012 C
HETATM   16  C21 UNL     1       2.809  61.568  27.001  1.00  0.00    -0.009 C
HETATM   17  C22 UNL     1       1.560  60.912  27.627  1.00  0.00     0.018 C
HETATM   18  C23 UNL     1       3.368  60.467  26.152  1.00  0.00     0.157 C
ENDROOT
BRANCH   1  19
HETATM   19  C7  UNL     1       3.308  60.927  22.583  1.00  0.00     0.127 C
BRANCH  19  20
HETATM   20  C6  UNL     1       3.996  60.738  21.311  1.00  0.00     0.020 C
BRANCH  20  21
HETATM   21  C5  UNL     1       5.469  60.939  21.212  1.00  0.00     0.002 C
BRANCH  21  22
HETATM   22  C4  UNL     1       6.191  59.813  20.501  1.00  0.00     0.002 C
BRANCH  22  23
HETATM   23  C3  UNL     1       7.355  60.426  19.759  1.00  0.00     0.026 C
BRANCH  23  24
HETATM   24  C2  UNL     1       7.251  61.938  19.792  1.00  0.00     0.167 C
BRANCH  24  25
HETATM   25  O1  UNL     1       7.401  62.494  18.542  1.00  0.00    -0.396 OA
HETATM   26  C1  UNL     1       8.093  61.595  17.734  1.00  0.00     0.201 C
ENDBRANCH  24  25
ENDBRANCH  23  24
ENDBRANCH  22  23
ENDBRANCH  21  22
ENDBRANCH  20  21
ENDBRANCH  19  20
ENDBRANCH   1  19
BRANCH   7  27
HETATM   27  O3  UNL     1       5.384  62.740  23.957  1.00  0.00    -0.390 OA
ATOM     28  H3  UNL     1       5.892  63.535  24.066  1.00  0.00     0.210 HD
ENDBRANCH   7  27
BRANCH  18  29
HETATM   29  O5  UNL     1       2.283  59.748  25.654  1.00  0.00    -0.392 OA
ATOM     30  H5  UNL     1       1.707  59.517  26.372  1.00  0.00     0.210 HD
ENDBRANCH  18  29
BRANCH   8  31
HETATM   31  O4  UNL     1       4.369  64.254  26.226  1.00  0.00    -0.392 OA
ATOM     32  H4  UNL     1       5.013  64.664  25.661  1.00  0.00     0.210 HD
ENDBRANCH   8  31
TORSDOF 10
ENDMDL