MODEL 3
REMARK VINA RESULT: -7.414419237      3.899      7.587
REMARK  9 active torsions:
REMARK  status: ('A' for Active; 'I' for Inactive)
REMARK    1  A    between atoms: O1_1  and  C1_3
REMARK    2  A    between atoms: N1_6  and  C4_7
REMARK    3  A    between atoms: C7_10  and  N2_11
REMARK    4  A    between atoms: C9_13  and  O2_14
REMARK    5  A    between atoms: C10_16  and  C11_17
REMARK    6  A    between atoms: C11_17  and  C12_18
REMARK    7  A    between atoms: C20_26  and  C21_27
REMARK    8  A    between atoms: C21_27  and  N3_28
REMARK    9  A    between atoms: N3_28  and  C22_30
ROOT
HETATM    1  C4  UNL     1       4.633  58.758  20.964  1.00  0.00     0.030 A
HETATM    2  C5  UNL     1       4.528  57.881  22.014  1.00  0.00     0.031 A
HETATM    3  C6  UNL     1       3.852  56.703  21.842  1.00  0.00     0.031 A
HETATM    4  C7  UNL     1       3.285  56.404  20.633  1.00  0.00     0.030 A
HETATM    5  C18 UNL     1       3.391  57.286  19.582  1.00  0.00     0.031 A
HETATM    6  C19 UNL     1       4.076  58.475  19.761  1.00  0.00     0.031 A
ENDROOT
BRANCH   1   7
HETATM    7  N1  UNL     1       5.321  59.994  21.153  1.00  0.00    -0.371 N
HETATM    8  C3  UNL     1       6.669  60.139  20.704  1.00  0.00     0.126 C
HETATM    9  C2  UNL     1       6.904  61.356  19.856  1.00  0.00     0.051 C
HETATM   10  C1  UNL     1       6.080  62.540  20.186  1.00  0.00     0.122 C
HETATM   11  C25 UNL     1       4.755  62.278  20.780  1.00  0.00     0.062 C
HETATM   12  C20 UNL     1       4.697  61.161  21.781  1.00  0.00     0.125 C
BRANCH  10  13
HETATM   13  O1  UNL     1       6.785  63.448  21.009  1.00  0.00    -0.395 OA
ATOM     14  H1  UNL     1       7.583  63.749  20.591  1.00  0.00     0.210 HD
ENDBRANCH  10  13
BRANCH  12  15
HETATM   15  C21 UNL     1       5.383  61.441  23.060  1.00  0.00     0.081 C
BRANCH  15  16
HETATM   16  N3  UNL     1       5.156  62.669  23.705  1.00  0.00    -0.396 N
ATOM     17  H3  UNL     1       5.656  63.504  23.398  1.00  0.00     0.159 HD
BRANCH  16  18
HETATM   18  C22 UNL     1       4.241  62.752  24.776  1.00  0.00     0.081 A
HETATM   19  C23 UNL     1       2.833  62.367  24.770  1.00  0.00     0.027 A
HETATM   20  C24 UNL     1       3.165  63.820  24.646  1.00  0.00     0.027 A
ENDBRANCH  16  18
ENDBRANCH  15  16
ENDBRANCH  12  15
ENDBRANCH   1   7
BRANCH   4  21
HETATM   21  N2  UNL     1       2.591  55.186  20.462  1.00  0.00    -0.371 N
HETATM   22  C8  UNL     1       1.786  54.512  19.485  1.00  0.00     0.157 C
HETATM   23  C9  UNL     1       2.268  53.200  20.087  1.00  0.00     0.159 C
HETATM   24  C10 UNL     1       2.391  53.997  21.325  1.00  0.00     0.119 C
BRANCH  23  25
HETATM   25  O2  UNL     1       1.368  52.174  20.026  1.00  0.00    -0.392 OA
ATOM     26  H2  UNL     1       1.316  51.736  19.185  1.00  0.00     0.210 HD
ENDBRANCH  23  25
BRANCH  24  27
HETATM   27  C11 UNL     1       1.222  54.239  22.202  1.00  0.00     0.066 C
BRANCH  27  28
HETATM   28  C12 UNL     1       1.469  54.096  23.645  1.00  0.00    -0.056 A
HETATM   29  C13 UNL     1       1.556  52.860  24.252  1.00  0.00     0.007 A
HETATM   30  C14 UNL     1       1.810  52.763  25.605  1.00  0.00     0.001 A
HETATM   31  C15 UNL     1       1.986  53.871  26.403  1.00  0.00     0.000 A
HETATM   32  C16 UNL     1       1.897  55.094  25.791  1.00  0.00     0.001 A
HETATM   33  C17 UNL     1       1.647  55.232  24.451  1.00  0.00     0.007 A
ENDBRANCH  27  28
ENDBRANCH  24  27
ENDBRANCH   4  21
TORSDOF 9
ENDMDL