MODEL 4
REMARK VINA RESULT: -6.894017252      2.582      6.627
REMARK  9 active torsions:
REMARK  status: ('A' for Active; 'I' for Inactive)
REMARK    1  A    between atoms: O1_2  and  C2_3
REMARK    2  A    between atoms: C2_3  and  O2_4
REMARK    3  A    between atoms: O2_4  and  C3_5
REMARK    4  A    between atoms: C3_5  and  C4_6
REMARK    5  A    between atoms: C11_13  and  O3_14
REMARK    6  A    between atoms: C12_16  and  O4_17
REMARK    7  A    between atoms: C13_19  and  C14_20
REMARK    8  A    between atoms: C15_21  and  C16_22
REMARK    9  A    between atoms: C21_27  and  C22_28
ROOT
HETATM    1  C2  UNL     1       5.089  60.434  20.967  1.00  0.00     0.166 C
HETATM    2  C10 UNL     1       4.881  59.217  20.052  1.00  0.00     0.102 C
HETATM    3  C11 UNL     1       3.616  58.562  20.490  1.00  0.00     0.152 C
HETATM    4  C12 UNL     1       4.023  57.599  21.620  1.00  0.00     0.154 C
HETATM    5  C13 UNL     1       5.071  58.355  22.421  1.00  0.00     0.044 C
HETATM    6  C23 UNL     1       4.859  59.829  22.391  1.00  0.00     0.079 C
ENDROOT
BRANCH   5   7
HETATM    7  C14 UNL     1       4.852  57.935  23.843  1.00  0.00    -0.023 C
HETATM    8  C15 UNL     1       5.823  57.946  24.750  1.00  0.00    -0.025 C
BRANCH   8   9
HETATM    9  C16 UNL     1       5.593  57.526  26.157  1.00  0.00     0.022 C
HETATM   10  C17 UNL     1       4.144  57.505  26.524  1.00  0.00     0.009 C
HETATM   11  C18 UNL     1       3.822  57.598  27.953  1.00  0.00     0.001 C
HETATM   12  C19 UNL     1       4.874  58.039  28.884  1.00  0.00     0.001 C
HETATM   13  C20 UNL     1       6.284  57.755  28.449  1.00  0.00     0.016 C
HETATM   14  C21 UNL     1       6.428  58.391  27.058  1.00  0.00     0.094 C
BRANCH  14  15
HETATM   15  C22 UNL     1       6.032  59.800  27.073  1.00  0.00     0.177 C
HETATM   16  O5  UNL     1       5.102  60.296  26.388  1.00  0.00    -0.648 OA
HETATM   17  O6  UNL     1       6.734  60.663  27.904  1.00  0.00    -0.648 OA
ENDBRANCH  14  15
ENDBRANCH   8   9
ENDBRANCH   5   7
BRANCH   4  18
HETATM   18  O4  UNL     1       4.621  56.508  20.993  1.00  0.00    -0.392 OA
ATOM     19  H4  UNL     1       5.182  56.108  21.647  1.00  0.00     0.210 HD
ENDBRANCH   4  18
BRANCH   3  20
HETATM   20  O3  UNL     1       2.945  57.892  19.483  1.00  0.00    -0.393 OA
ATOM     21  H3  UNL     1       3.141  58.205  18.608  1.00  0.00     0.210 HD
ENDBRANCH   3  20
BRANCH   1  22
HETATM   22  O1  UNL     1       4.189  61.368  20.842  1.00  0.00    -0.360 OA
HETATM   23  C1  UNL     1       4.087  62.621  21.120  1.00  0.00     0.205 C
ENDBRANCH   1  22
BRANCH   1  24
HETATM   24  O2  UNL     1       6.439  60.667  20.939  1.00  0.00    -0.350 OA
BRANCH  24  25
HETATM   25  C3  UNL     1       7.122  59.969  20.013  1.00  0.00     0.210 C
BRANCH  25  26
HETATM   26  C4  UNL     1       7.653  60.895  18.935  1.00  0.00    -0.035 A
HETATM   27  C5  UNL     1       7.743  62.250  19.149  1.00  0.00     0.009 A
HETATM   28  C6  UNL     1       8.232  63.093  18.153  1.00  0.00     0.001 A
HETATM   29  C7  UNL     1       8.637  62.599  16.931  1.00  0.00     0.000 A
HETATM   30  C8  UNL     1       8.545  61.241  16.718  1.00  0.00     0.001 A
HETATM   31  C9  UNL     1       8.056  60.400  17.717  1.00  0.00     0.009 A
ENDBRANCH  25  26
ENDBRANCH  24  25
ENDBRANCH   1  24
TORSDOF 9
ENDMDL