MODEL 1
REMARK VINA RESULT: -8.359472667      0.000      0.000
REMARK  9 active torsions:
REMARK  status: ('A' for Active; 'I' for Inactive)
REMARK    1  A    between atoms: N1_1  and  C1_5
REMARK    2  A    between atoms: C1_5  and  C2_6
REMARK    3  A    between atoms: C2_6  and  C3_7
REMARK    4  A    between atoms: C7_11  and  O1_12
REMARK    5  A    between atoms: O1_12  and  C8_13
REMARK    6  A    between atoms: N2_16  and  C11_17
REMARK    7  A    between atoms: C14_20  and  N3_21
REMARK    8  A    between atoms: N3_21  and  C15_23
REMARK    9  A    between atoms: C18_26  and  O2_27
ROOT
HETATM    1  C8  UNL     1       3.524  57.004  22.059  1.00  0.00     0.132 C
HETATM    2  C9  UNL     1       4.187  58.121  21.276  1.00  0.00     0.062 C
HETATM    3  C10 UNL     1       5.108  58.923  22.142  1.00  0.00     0.275 C
HETATM    4  N2  UNL     1       4.434  59.607  23.217  1.00  0.00     0.093 N
HETATM    5  C23 UNL     1       3.582  58.623  23.880  1.00  0.00     0.275 C
HETATM    6  C24 UNL     1       3.923  57.204  23.510  1.00  0.00     0.062 C
ENDROOT
BRANCH   4   7
HETATM    7  C11 UNL     1       3.567  60.676  22.775  1.00  0.00     0.223 C
HETATM    8  C12 UNL     1       3.596  60.954  21.311  1.00  0.00     0.041 C
HETATM    9  C13 UNL     1       4.432  62.192  20.948  1.00  0.00     0.054 C
HETATM   10  C14 UNL     1       5.728  62.180  21.727  1.00  0.00    -0.014 C
HETATM   11  C21 UNL     1       5.425  62.309  23.197  1.00  0.00     0.054 C
HETATM   12  C22 UNL     1       3.984  61.933  23.506  1.00  0.00     0.041 C
BRANCH  10  13
HETATM   13  N3  UNL     1       6.814  62.841  21.208  1.00  0.00    -0.370 N
ATOM     14  H3  UNL     1       7.051  63.720  21.669  1.00  0.00     0.165 HD
BRANCH  13  15
HETATM   15  C15 UNL     1       7.628  62.489  20.157  1.00  0.00    -0.014 C
HETATM   16  C16 UNL     1       7.457  63.176  18.823  1.00  0.00     0.055 C
HETATM   17  C17 UNL     1       8.586  62.680  17.903  1.00  0.00     0.037 C
HETATM   18  C18 UNL     1       8.394  61.226  17.555  1.00  0.00     0.118 C
HETATM   19  C19 UNL     1       7.421  60.584  18.529  1.00  0.00     0.037 C
HETATM   20  C20 UNL     1       7.890  61.009  19.927  1.00  0.00     0.055 C
BRANCH  18  21
HETATM   21  O2  UNL     1       8.014  61.036  16.234  1.00  0.00    -0.396 OA
ATOM     22  H2  UNL     1       7.196  61.468  16.021  1.00  0.00     0.210 HD
ENDBRANCH  18  21
ENDBRANCH  13  15
ENDBRANCH  10  13
ENDBRANCH   4   7
BRANCH   1  23
HETATM   23  O1  UNL     1       3.818  55.751  21.581  1.00  0.00    -0.346 OA
BRANCH  23  24
HETATM   24  C7  UNL     1       3.026  55.002  20.767  1.00  0.00     0.069 A
HETATM   25  C6  UNL     1       2.064  55.486  19.915  1.00  0.00     0.037 A
HETATM   26  C5  UNL     1       1.330  54.592  19.142  1.00  0.00     0.003 A
HETATM   27  C4  UNL     1       1.528  53.234  19.192  1.00  0.00     0.007 A
HETATM   28  C3  UNL     1       2.490  52.731  20.042  1.00  0.00    -0.054 A
HETATM   29  C25 UNL     1       3.212  53.611  20.803  1.00  0.00     0.044 A
BRANCH  28  30
HETATM   30  C2  UNL     1       2.731  51.246  20.115  1.00  0.00     0.066 C
BRANCH  30  31
HETATM   31  C1  UNL     1       4.114  51.055  20.696  1.00  0.00     0.234 C
BRANCH  31  32
HETATM   32  N1  UNL     1       5.026  50.712  19.642  1.00  0.00    -0.079 N
ATOM     33  H13 UNL     1       5.388  51.535  19.160  1.00  0.00     0.274 HD
ATOM     34  H12 UNL     1       5.912  50.353  19.999  1.00  0.00     0.274 HD
ATOM     35  H11 UNL     1       4.572  50.059  19.004  1.00  0.00     0.274 HD
ENDBRANCH  31  32
ENDBRANCH  30  31
ENDBRANCH  28  30
ENDBRANCH  23  24
ENDBRANCH   1  23
TORSDOF 9
ENDMDL