MODEL 3
REMARK VINA RESULT: -7.318596753      5.591      9.311
REMARK  9 active torsions:
REMARK  status: ('A' for Active; 'I' for Inactive)
REMARK    1  A    between atoms: C2_2  and  C4_4
REMARK    2  A    between atoms: C4_4  and  N1_5
REMARK    3  A    between atoms: C4_4  and  C22_31
REMARK       I    between atoms: N1_5  and  C5_7
REMARK    4  A    between atoms: C5_7  and  C6_9
REMARK    5  A    between atoms: C6_9  and  N2_10
REMARK    6  A    between atoms: C6_9  and  C19_28
REMARK       I    between atoms: N2_10  and  C7_12
REMARK    7  A    between atoms: C7_12  and  C8_14
REMARK    8  A    between atoms: C8_14  and  C9_15
REMARK    9  A    between atoms: C13_19  and  O3_20
ROOT
HETATM    1  N2  UNL     1       3.871  64.866  26.063  1.00  0.00    -0.326 N
ATOM      2  H2  UNL     1       4.680  65.085  25.481  1.00  0.00     0.168 HD
HETATM    3  C7  UNL     1       2.951  63.908  25.554  1.00  0.00     0.222 C
HETATM    4  O2  UNL     1       1.959  63.648  26.288  1.00  0.00    -0.273 OA
ENDROOT
BRANCH   1   5
HETATM    5  C6  UNL     1       3.768  65.553  27.318  1.00  0.00     0.083 C
BRANCH   5   6
HETATM    6  C5  UNL     1       4.234  64.757  28.451  1.00  0.00     0.265 C
HETATM    7  N1  UNL     1       4.383  63.355  28.532  1.00  0.00    -0.341 N
ATOM      8  H1  UNL     1       4.143  62.794  27.715  1.00  0.00     0.163 HD
HETATM    9  O1  UNL     1       4.558  65.374  29.539  1.00  0.00    -0.266 OA
BRANCH   7  10
HETATM   10  C4  UNL     1       4.862  62.675  29.719  1.00  0.00     0.189 C
BRANCH  10  11
HETATM   11  C2  UNL     1       4.121  61.358  29.938  1.00  0.00     0.011 C
HETATM   12  C1  UNL     1       3.119  61.504  31.066  1.00  0.00     0.012 C
HETATM   13  C3  UNL     1       3.425  60.876  28.703  1.00  0.00     0.012 C
ENDBRANCH  10  11
BRANCH  10  14
HETATM   14  C22 UNL     1       6.289  62.380  29.688  1.00  0.00     0.197 C
HETATM   15  O5  UNL     1       7.024  62.449  30.691  1.00  0.00    -0.646 OA
HETATM   16  O6  UNL     1       6.870  62.002  28.474  1.00  0.00    -0.646 OA
ENDBRANCH  10  14
ENDBRANCH   7  10
ENDBRANCH   5   6
BRANCH   5  17
HETATM   17  C19 UNL     1       4.146  66.993  27.289  1.00  0.00     0.033 C
HETATM   18  C20 UNL     1       3.194  67.933  27.929  1.00  0.00     0.016 C
HETATM   19  C21 UNL     1       4.461  67.426  25.886  1.00  0.00     0.016 C
ENDBRANCH   5  17
ENDBRANCH   1   5
BRANCH   3  20
HETATM   20  C8  UNL     1       3.169  63.266  24.225  1.00  0.00     0.110 C
BRANCH  20  21
HETATM   21  C9  UNL     1       3.885  61.988  24.297  1.00  0.00     0.026 C
HETATM   22  C10 UNL     1       3.047  60.762  23.875  1.00  0.00     0.045 C
HETATM   23  C11 UNL     1       3.922  60.229  22.860  1.00  0.00     0.064 C
HETATM   24  C12 UNL     1       4.054  58.824  22.456  1.00  0.00     0.069 C
HETATM   25  O4  UNL     1       5.188  60.456  23.453  1.00  0.00    -0.374 OA
HETATM   26  C18 UNL     1       3.655  60.945  21.569  1.00  0.00     0.043 C
HETATM   27  C13 UNL     1       5.115  58.823  21.360  1.00  0.00     0.121 C
HETATM   28  C14 UNL     1       5.815  60.101  21.065  1.00  0.00     0.036 C
HETATM   29  C15 UNL     1       5.057  61.366  21.132  1.00  0.00    -0.007 C
HETATM   30  C16 UNL     1       5.412  62.341  22.246  1.00  0.00     0.037 C
HETATM   31  C17 UNL     1       5.168  61.862  23.611  1.00  0.00     0.127 C
BRANCH  27  32
HETATM   32  O3  UNL     1       4.638  58.187  20.191  1.00  0.00    -0.395 OA
ATOM     33  H3  UNL     1       5.172  57.433  19.970  1.00  0.00     0.210 HD
ENDBRANCH  27  32
ENDBRANCH  20  21
ENDBRANCH   3  20
TORSDOF 9
ENDMDL