MODEL 4
REMARK VINA RESULT: -7.329313171      1.401      2.092
REMARK  9 active torsions:
REMARK  status: ('A' for Active; 'I' for Inactive)
REMARK    1  A    between atoms: C2_2  and  C3_3
REMARK    2  A    between atoms: C2_2  and  C14_16
REMARK    3  A    between atoms: C3_3  and  N1_4
REMARK    4  A    between atoms: C6_7  and  C7_8
REMARK    5  A    between atoms: C14_16  and  O2_17
REMARK    6  A    between atoms: C14_16  and  N2_19
REMARK    7  A    between atoms: N2_19  and  C15_22
REMARK    8  A    between atoms: C15_22  and  C16_23
REMARK    9  A    between atoms: C20_30  and  C21_31
ROOT
HETATM    1  N2  UNL     1       5.095  61.929  23.856  1.00  0.00    -0.047 N
ATOM      2  H21 UNL     1       5.722  62.629  24.252  1.00  0.00     0.280 HD
ATOM      3  H22 UNL     1       5.602  61.090  24.138  1.00  0.00     0.280 HD
ENDROOT
BRANCH   1   4
HETATM    4  C14 UNL     1       5.008  62.042  22.437  1.00  0.00     0.323 C
BRANCH   4   5
HETATM    5  C2  UNL     1       5.555  60.885  21.647  1.00  0.00     0.056 C
HETATM    6  C1  UNL     1       6.476  61.381  20.595  1.00  0.00     0.016 C
BRANCH   5   7
HETATM    7  C3  UNL     1       4.373  60.114  21.111  1.00  0.00     0.134 C
BRANCH   7   8
HETATM    8  N1  UNL     1       4.247  58.785  21.664  1.00  0.00    -0.351 N
HETATM    9  C4  UNL     1       4.555  58.459  23.040  1.00  0.00     0.127 C
HETATM   10  C5  UNL     1       4.028  57.059  23.270  1.00  0.00     0.039 C
HETATM   11  C6  UNL     1       4.155  56.448  21.919  1.00  0.00     0.112 C
HETATM   12  C13 UNL     1       3.825  57.593  21.018  1.00  0.00     0.228 C
HETATM   13  O1  UNL     1       3.278  57.480  19.908  1.00  0.00    -0.273 OA
BRANCH  11  14
HETATM   14  C7  UNL     1       3.254  55.297  21.704  1.00  0.00    -0.045 A
HETATM   15  C8  UNL     1       3.519  54.296  20.811  1.00  0.00     0.008 A
HETATM   16  C9  UNL     1       2.636  53.245  20.657  1.00  0.00     0.001 A
HETATM   17  C10 UNL     1       1.468  53.182  21.398  1.00  0.00     0.000 A
HETATM   18  C11 UNL     1       1.193  54.175  22.290  1.00  0.00     0.001 A
HETATM   19  C12 UNL     1       2.090  55.237  22.443  1.00  0.00     0.008 A
ENDBRANCH  11  14
ENDBRANCH   7   8
ENDBRANCH   5   7
ENDBRANCH   4   5
BRANCH   4  20
HETATM   20  O2  UNL     1       5.612  63.251  22.082  1.00  0.00    -0.369 OA
ATOM     21  H2  UNL     1       5.187  63.995  22.491  1.00  0.00     0.212 HD
ENDBRANCH   4  20
ENDBRANCH   1   4
BRANCH   1  22
HETATM   22  C15 UNL     1       3.801  61.986  24.450  1.00  0.00     0.268 C
BRANCH  22  23
HETATM   23  C16 UNL     1       3.822  61.288  25.827  1.00  0.00     0.217 C
HETATM   24  N3  UNL     1       3.316  62.254  26.751  1.00  0.00    -0.069 N
HETATM   25  C17 UNL     1       3.335  61.776  28.095  1.00  0.00     0.233 C
ATOM     26  H32 UNL     1       3.812  63.141  26.667  1.00  0.00     0.277 HD
ATOM     27  H31 UNL     1       2.382  62.566  26.483  1.00  0.00     0.277 HD
HETATM   28  C18 UNL     1       4.744  61.495  28.513  1.00  0.00     0.028 C
HETATM   29  C19 UNL     1       5.721  61.410  27.390  1.00  0.00     0.010 C
HETATM   30  C20 UNL     1       5.193  60.778  26.144  1.00  0.00     0.040 C
BRANCH  30  31
HETATM   31  C21 UNL     1       5.241  59.258  26.154  1.00  0.00     0.082 C
HETATM   32  C22 UNL     1       6.497  58.743  26.796  1.00  0.00     0.025 C
HETATM   33  C23 UNL     1       6.405  57.212  26.694  1.00  0.00     0.004 C
HETATM   34  C24 UNL     1       5.324  56.822  27.693  1.00  0.00     0.019 C
HETATM   35  C25 UNL     1       4.143  57.728  27.687  1.00  0.00     0.114 C
HETATM   36  N4  UNL     1       4.042  58.635  26.602  1.00  0.00    -0.417 N
ATOM     37  H4  UNL     1       3.145  58.833  26.159  1.00  0.00     0.153 HD
ENDBRANCH  30  31
ENDBRANCH  22  23
ENDBRANCH   1  22
TORSDOF 9
ENDMDL