MODEL 5
REMARK VINA RESULT: -6.602829386      3.492      6.098
REMARK  12 active torsions:
REMARK  status: ('A' for Active; 'I' for Inactive)
REMARK    1  A    between atoms: N1_6  and  C6_8
REMARK    2  A    between atoms: C6_8  and  C7_9
REMARK    3  A    between atoms: C7_9  and  C8_10
REMARK    4  A    between atoms: C8_10  and  C9_11
REMARK    5  A    between atoms: C9_11  and  O2_12
REMARK    6  A    between atoms: O2_12  and  C10_13
REMARK       I    between atoms: C10_13  and  N2_15
REMARK    7  A    between atoms: C13_18  and  O4_19
REMARK    8  A    between atoms: C14_21  and  O5_22
REMARK    9  A    between atoms: C14_21  and  C15_24
REMARK   10  A    between atoms: C15_24  and  N3_25
REMARK   11  A    between atoms: N3_25  and  C16_27
REMARK   12  A    between atoms: C16_27  and  C17_31
ROOT
HETATM    1  C10 UNL     1       4.486  59.192  23.054  1.00  0.00     0.362 C
HETATM    2  O3  UNL     1       4.563  58.262  22.215  1.00  0.00    -0.238 OA
HETATM    3  N2  UNL     1       4.977  60.513  22.735  1.00  0.00    -0.325 N
HETATM    4  C11 UNL     1       4.877  61.555  23.708  1.00  0.00     0.131 C
HETATM    5  C12 UNL     1       4.581  62.903  23.147  1.00  0.00     0.055 C
HETATM    6  C13 UNL     1       4.763  63.008  21.670  1.00  0.00     0.157 C
HETATM    7  C14 UNL     1       5.933  62.172  21.245  1.00  0.00     0.115 C
HETATM    8  C20 UNL     1       5.555  60.719  21.422  1.00  0.00     0.170 C
ENDROOT
BRANCH   1   9
HETATM    9  O2  UNL     1       3.923  58.912  24.277  1.00  0.00    -0.304 OA
BRANCH   9  10
HETATM   10  C9  UNL     1       2.669  58.330  24.513  1.00  0.00     0.180 C
BRANCH  10  11
HETATM   11  C8  UNL     1       1.576  59.316  24.854  1.00  0.00     0.029 C
BRANCH  11  12
HETATM   12  C7  UNL     1       2.190  60.391  25.708  1.00  0.00     0.038 C
BRANCH  12  13
HETATM   13  C6  UNL     1       2.228  60.062  27.164  1.00  0.00     0.312 C
BRANCH  13  14
HETATM   14  N1  UNL     1       3.430  60.418  27.840  1.00  0.00     0.014 N
HETATM   15  C5  UNL     1       4.529  59.524  27.633  1.00  0.00     0.312 C
HETATM   16  C4  UNL     1       5.816  60.264  27.255  1.00  0.00     0.037 C
HETATM   17  C3  UNL     1       6.036  61.364  28.265  1.00  0.00     0.008 C
HETATM   18  C2  UNL     1       4.909  62.364  28.092  1.00  0.00     0.015 C
HETATM   19  C1  UNL     1       5.477  63.512  27.262  1.00  0.00     0.012 C
HETATM   20  C21 UNL     1       3.833  61.718  27.273  1.00  0.00     0.316 C
HETATM   21  O1  UNL     1       3.226  60.679  29.171  1.00  0.00    -0.064 OA
ENDBRANCH  13  14
ENDBRANCH  12  13
ENDBRANCH  11  12
ENDBRANCH  10  11
ENDBRANCH   9  10
ENDBRANCH   1   9
BRANCH   7  22
HETATM   22  O5  UNL     1       7.032  62.415  22.066  1.00  0.00    -0.384 OA
ATOM     23  H5  UNL     1       7.834  62.136  21.642  1.00  0.00     0.210 HD
ENDBRANCH   7  22
BRANCH   7  24
HETATM   24  C15 UNL     1       6.312  62.418  19.806  1.00  0.00     0.163 C
BRANCH  24  25
HETATM   25  N3  UNL     1       7.555  61.775  19.493  1.00  0.00    -0.377 N
ATOM     26  H3  UNL     1       8.410  62.112  19.936  1.00  0.00     0.160 HD
BRANCH  25  27
HETATM   27  C16 UNL     1       7.634  60.688  18.588  1.00  0.00     0.074 C
HETATM   28  N4  UNL     1       7.506  59.497  19.077  1.00  0.00    -0.389 N
ATOM     29  H42 UNL     1       7.354  59.379  20.078  1.00  0.00     0.157 HD
ATOM     30  H41 UNL     1       7.562  58.714  18.425  1.00  0.00     0.157 HD
BRANCH  27  31
HETATM   31  C17 UNL     1       7.854  60.859  17.132  1.00  0.00     0.044 C
HETATM   32  C18 UNL     1       8.160  59.544  16.448  1.00  0.00     0.017 C
HETATM   33  C19 UNL     1       8.991  61.861  16.947  1.00  0.00     0.017 C
ENDBRANCH  27  31
ENDBRANCH  25  27
ENDBRANCH  24  25
ENDBRANCH   7  24
BRANCH   6  34
HETATM   34  O4  UNL     1       3.634  62.504  20.997  1.00  0.00    -0.392 OA
ATOM     35  H4  UNL     1       3.898  61.979  20.250  1.00  0.00     0.210 HD
ENDBRANCH   6  34
TORSDOF 12
ENDMDL