MODEL 5
REMARK VINA RESULT: -7.314713876      3.000      7.002
REMARK  10 active torsions:
REMARK  status: ('A' for Active; 'I' for Inactive)
REMARK    1  A    between atoms: N1_2  and  C2_4
REMARK    2  A    between atoms: C2_4  and  O1_5
REMARK    3  A    between atoms: C2_4  and  C3_7
REMARK    4  A    between atoms: C3_7  and  N2_9
REMARK    5  A    between atoms: C5_11  and  C6_12
REMARK    6  A    between atoms: C5_11  and  C14_20
REMARK    7  A    between atoms: C6_12  and  C7_13
REMARK    8  A    between atoms: C7_13  and  C8_14
REMARK    9  A    between atoms: C14_20  and  O3_22
REMARK   10  A    between atoms: O3_22  and  C15_23
ROOT
HETATM    1  N2  UNL     1       3.669  55.937  20.568  1.00  0.00    -0.380 N
ATOM      2  H2  UNL     1       4.381  55.284  20.241  1.00  0.00     0.160 HD
HETATM    3  C5  UNL     1       4.089  56.946  21.373  1.00  0.00     0.082 C
ENDROOT
BRANCH   3   4
HETATM    4  C6  UNL     1       4.011  58.360  20.895  1.00  0.00     0.068 C
BRANCH   4   5
HETATM    5  C7  UNL     1       5.405  58.953  20.990  1.00  0.00     0.044 C
BRANCH   5   6
HETATM    6  C8  UNL     1       5.408  60.417  21.036  1.00  0.00    -0.058 A
HETATM    7  C9  UNL     1       6.578  61.084  20.636  1.00  0.00     0.007 A
HETATM    8  C10 UNL     1       6.602  62.470  20.671  1.00  0.00     0.001 A
HETATM    9  C11 UNL     1       5.515  63.210  21.081  1.00  0.00     0.000 A
HETATM   10  C12 UNL     1       4.368  62.556  21.469  1.00  0.00     0.001 A
HETATM   11  C13 UNL     1       4.350  61.159  21.434  1.00  0.00     0.007 A
ENDBRANCH   5   6
ENDBRANCH   4   5
ENDBRANCH   3   4
BRANCH   3  12
HETATM   12  C14 UNL     1       3.976  56.836  22.857  1.00  0.00     0.305 C
HETATM   13  O2  UNL     1       2.861  56.484  23.314  1.00  0.00    -0.258 OA
BRANCH  12  14
HETATM   14  O3  UNL     1       4.975  57.088  23.734  1.00  0.00    -0.311 OA
BRANCH  14  15
HETATM   15  C15 UNL     1       4.919  57.621  25.030  1.00  0.00     0.138 C
HETATM   16  C16 UNL     1       6.198  57.226  25.694  1.00  0.00     0.033 C
HETATM   17  C17 UNL     1       6.604  57.912  26.933  1.00  0.00     0.003 C
HETATM   18  C18 UNL     1       6.257  59.398  26.993  1.00  0.00     0.007 C
HETATM   19  C19 UNL     1       4.846  59.495  26.524  1.00  0.00     0.027 C
HETATM   20  C20 UNL     1       4.881  59.165  25.034  1.00  0.00     0.050 C
HETATM   21  C24 UNL     1       4.170  60.790  26.563  1.00  0.00     0.229 C
HETATM   22  C21 UNL     1       3.586  59.715  24.572  1.00  0.00     0.280 C
HETATM   23  N3  UNL     1       3.281  60.837  25.412  1.00  0.00     0.094 N
HETATM   24  C22 UNL     1       3.774  62.117  25.047  1.00  0.00     0.275 C
HETATM   25  C23 UNL     1       4.844  62.043  26.138  1.00  0.00     0.066 C
ENDBRANCH  14  15
ENDBRANCH  12  14
ENDBRANCH   3  12
BRANCH   1  26
HETATM   26  C3  UNL     1       2.354  55.703  20.142  1.00  0.00     0.126 C
HETATM   27  C4  UNL     1       2.062  55.742  18.676  1.00  0.00     0.036 C
BRANCH  26  28
HETATM   28  C2  UNL     1       1.920  54.340  20.681  1.00  0.00     0.235 C
BRANCH  28  29
HETATM   29  N1  UNL     1       2.995  53.442  20.967  1.00  0.00    -0.400 N
HETATM   30  C1  UNL     1       2.775  52.065  20.585  1.00  0.00     0.142 C
ATOM     31  H1  UNL     1       3.859  53.752  21.411  1.00  0.00     0.155 HD
ENDBRANCH  28  29
BRANCH  28  32
HETATM   32  O1  UNL     1       1.214  54.566  21.860  1.00  0.00    -0.375 OA
ATOM     33  H1  UNL     1       0.693  53.795  22.048  1.00  0.00     0.212 HD
ENDBRANCH  28  32
ENDBRANCH  26  28
ENDBRANCH   1  26
TORSDOF 10
ENDMDL