MODEL 3
REMARK VINA RESULT: -6.150427902      2.793      6.438
REMARK  11 active torsions:
REMARK  status: ('A' for Active; 'I' for Inactive)
REMARK    1  A    between atoms: O1_2  and  C2_3
REMARK    2  A    between atoms: C2_3  and  C3_5
REMARK    3  A    between atoms: C3_5  and  C5_7
REMARK    4  A    between atoms: C5_7  and  N1_8
REMARK    5  A    between atoms: C5_7  and  C16_25
REMARK       I    between atoms: N1_8  and  C6_10
REMARK    6  A    between atoms: C6_10  and  C7_12
REMARK    7  A    between atoms: C7_12  and  N2_13
REMARK    8  A    between atoms: C7_12  and  C13_22
REMARK       I    between atoms: N2_13  and  C8_15
REMARK    9  A    between atoms: C8_15  and  O5_17
REMARK   10  A    between atoms: O5_17  and  C9_18
REMARK       I    between atoms: C16_25  and  N3_27
REMARK   11  A    between atoms: N3_27  and  C17_29
ROOT
HETATM    1  N1  UNL     1       4.594  60.567  23.356  1.00  0.00    -0.345 N
ATOM      2  H1  UNL     1       5.604  60.443  23.425  1.00  0.00     0.163 HD
HETATM    3  C6  UNL     1       3.903  60.927  24.518  1.00  0.00     0.241 C
HETATM    4  O3  UNL     1       2.650  61.087  24.436  1.00  0.00    -0.271 OA
ENDROOT
BRANCH   1   5
HETATM    5  C5  UNL     1       3.963  60.354  22.041  1.00  0.00     0.190 C
BRANCH   5   6
HETATM    6  C3  UNL     1       4.417  61.410  21.086  1.00  0.00     0.113 C
HETATM    7  C4  UNL     1       3.688  62.708  21.357  1.00  0.00     0.023 C
BRANCH   6   8
HETATM    8  C2  UNL     1       5.872  61.762  21.318  1.00  0.00     0.264 C
HETATM    9  O2  UNL     1       6.120  62.610  22.196  1.00  0.00    -0.265 OA
BRANCH   8  10
HETATM   10  O1  UNL     1       6.877  61.182  20.605  1.00  0.00    -0.326 OA
HETATM   11  C1  UNL     1       7.848  61.912  19.898  1.00  0.00     0.213 C
ENDBRANCH   8  10
ENDBRANCH   6   8
ENDBRANCH   5   6
BRANCH   5  12
HETATM   12  C16 UNL     1       4.358  59.020  21.534  1.00  0.00     0.241 C
HETATM   13  O6  UNL     1       5.471  58.544  21.989  1.00  0.00    -0.271 OA
HETATM   14  N3  UNL     1       3.693  58.196  20.634  1.00  0.00    -0.355 N
ATOM     15  H3  UNL     1       2.805  58.516  20.248  1.00  0.00     0.162 HD
BRANCH  14  16
HETATM   16  C17 UNL     1       4.206  56.893  20.211  1.00  0.00     0.084 C
HETATM   17  C18 UNL     1       3.626  56.639  18.813  1.00  0.00     0.025 C
HETATM   18  C19 UNL     1       2.195  56.335  19.117  1.00  0.00     0.002 C
HETATM   19  C20 UNL     1       2.121  55.851  20.530  1.00  0.00     0.002 C
HETATM   20  C21 UNL     1       3.578  55.761  20.993  1.00  0.00     0.025 C
ENDBRANCH  14  16
ENDBRANCH   5  12
ENDBRANCH   1   5
BRANCH   3  21
HETATM   21  C7  UNL     1       4.532  61.132  25.835  1.00  0.00     0.182 C
BRANCH  21  22
HETATM   22  N2  UNL     1       4.518  59.954  26.647  1.00  0.00    -0.323 N
HETATM   23  C8  UNL     1       5.587  59.575  27.501  1.00  0.00     0.362 C
HETATM   24  O4  UNL     1       6.590  60.337  27.524  1.00  0.00    -0.238 OA
ATOM     25  H2  UNL     1       3.695  59.353  26.610  1.00  0.00     0.165 HD
BRANCH  23  26
HETATM   26  O5  UNL     1       5.604  58.458  28.286  1.00  0.00    -0.294 OA
BRANCH  26  27
HETATM   27  C9  UNL     1       5.790  57.142  27.811  1.00  0.00     0.061 C
HETATM   28  C10 UNL     1       6.688  56.416  28.796  1.00  0.00     0.046 C
HETATM   29  C11 UNL     1       4.494  56.379  27.741  1.00  0.00     0.046 C
HETATM   30  C12 UNL     1       6.456  57.081  26.459  1.00  0.00     0.046 C
ENDBRANCH  26  27
ENDBRANCH  23  26
ENDBRANCH  21  22
BRANCH  21  31
HETATM   31  C13 UNL     1       3.894  62.316  26.501  1.00  0.00     0.009 C
HETATM   32  C14 UNL     1       3.098  61.954  27.712  1.00  0.00     0.012 C
HETATM   33  C15 UNL     1       4.990  63.307  26.921  1.00  0.00     0.012 C
ENDBRANCH  21  31
ENDBRANCH   3  21
TORSDOF 11
ENDMDL