MODEL 3
REMARK VINA RESULT: -7.244428925      3.378      7.165
REMARK  11 active torsions:
REMARK  status: ('A' for Active; 'I' for Inactive)
REMARK    1  A    between atoms: C2_2  and  N1_3
REMARK    2  A    between atoms: C2_2  and  C18_29
REMARK    3  A    between atoms: N1_3  and  C3_5
REMARK    4  A    between atoms: C3_5  and  C4_6
REMARK    5  A    between atoms: C3_5  and  C14_25
REMARK       I    between atoms: C4_6  and  N2_8
REMARK    6  A    between atoms: N2_8  and  C5_10
REMARK    7  A    between atoms: C5_10  and  C6_11
REMARK    8  A    between atoms: C5_10  and  C13_18
REMARK    9  A    between atoms: C6_11  and  C7_12
REMARK   10  A    between atoms: C13_18  and  O2_19
REMARK   11  A    between atoms: N3_21  and  O3_23
REMARK       I    between atoms: C18_29  and  N4_31
ROOT
HETATM    1  C4  UNL     1       4.047  58.401  23.420  1.00  0.00     0.245 C
HETATM    2  O1  UNL     1       5.197  57.851  23.601  1.00  0.00    -0.271 OA
HETATM    3  N2  UNL     1       3.642  58.612  22.073  1.00  0.00    -0.325 N
ATOM      4  H2  UNL     1       2.730  59.037  21.904  1.00  0.00     0.169 HD
ENDROOT
BRANCH   1   5
HETATM    5  C3  UNL     1       3.282  58.753  24.626  1.00  0.00     0.178 C
BRANCH   5   6
HETATM    6  N1  UNL     1       4.085  59.400  25.557  1.00  0.00    -0.397 N
ATOM      7  H1  UNL     1       4.606  58.797  26.195  1.00  0.00     0.154 HD
BRANCH   6   8
HETATM    8  C2  UNL     1       4.263  60.762  25.726  1.00  0.00     0.166 C
HETATM    9  C1  UNL     1       4.733  61.617  24.605  1.00  0.00     0.042 C
BRANCH   8  10
HETATM   10  C18 UNL     1       5.262  60.885  26.875  1.00  0.00     0.241 C
HETATM   11  O4  UNL     1       5.974  59.844  27.089  1.00  0.00    -0.271 OA
HETATM   12  N4  UNL     1       5.436  62.014  27.670  1.00  0.00    -0.350 N
HETATM   13  C19 UNL     1       6.480  62.057  28.716  1.00  0.00     0.126 C
HETATM   14  C22 UNL     1       4.770  63.283  27.756  1.00  0.00     0.126 C
HETATM   15  C20 UNL     1       5.993  62.993  29.766  1.00  0.00     0.021 C
HETATM   16  C21 UNL     1       4.822  63.740  29.180  1.00  0.00     0.021 C
ENDBRANCH   8  10
ENDBRANCH   6   8
ENDBRANCH   5   6
BRANCH   5  17
HETATM   17  C14 UNL     1       2.636  57.483  25.164  1.00  0.00    -0.022 C
HETATM   18  C15 UNL     1       2.457  56.422  24.128  1.00  0.00     0.017 C
HETATM   19  C16 UNL     1       1.318  57.801  25.804  1.00  0.00     0.017 C
HETATM   20  C17 UNL     1       3.509  56.937  26.324  1.00  0.00     0.017 C
ENDBRANCH   5  17
ENDBRANCH   1   5
BRANCH   3  21
HETATM   21  C5  UNL     1       4.446  58.258  20.940  1.00  0.00     0.065 C
BRANCH  21  22
HETATM   22  C6  UNL     1       5.045  59.411  20.245  1.00  0.00     0.066 C
BRANCH  22  23
HETATM   23  C7  UNL     1       6.196  60.091  20.878  1.00  0.00    -0.009 C
HETATM   24  C8  UNL     1       6.081  61.510  21.252  1.00  0.00     0.005 C
HETATM   25  C9  UNL     1       6.364  62.494  20.127  1.00  0.00     0.000 C
HETATM   26  C10 UNL     1       7.606  62.169  19.363  1.00  0.00     0.000 C
HETATM   27  C11 UNL     1       7.565  60.725  18.879  1.00  0.00     0.000 C
HETATM   28  C12 UNL     1       7.490  59.870  20.105  1.00  0.00     0.005 C
ENDBRANCH  22  23
ENDBRANCH  21  22
BRANCH  21  29
HETATM   29  C13 UNL     1       3.942  57.236  20.044  1.00  0.00     0.183 C
HETATM   30  N3  UNL     1       4.119  57.108  18.789  1.00  0.00    -0.246 N
ATOM     31  H3  UNL     1       4.694  57.810  18.321  1.00  0.00     0.196 HD
BRANCH  29  32
HETATM   32  O2  UNL     1       3.138  56.236  20.643  1.00  0.00    -0.343 OA
ATOM     33  H2  UNL     1       2.863  55.531  20.070  1.00  0.00     0.219 HD
ENDBRANCH  29  32
BRANCH  30  34
HETATM   34  O3  UNL     1       3.606  56.115  18.029  1.00  0.00    -0.288 OA
ATOM     35  H3  UNL     1       3.179  56.236  17.188  1.00  0.00     0.244 HD
ENDBRANCH  30  34
ENDBRANCH  21  29
ENDBRANCH   3  21
TORSDOF 11
ENDMDL