MODEL 1
REMARK VINA RESULT: -8.427485165      0.000      0.000
REMARK  9 active torsions:
REMARK  status: ('A' for Active; 'I' for Inactive)
REMARK    1  A    between atoms: C2_2  and  C3_3
REMARK    2  A    between atoms: C2_2  and  C15_30
REMARK    3  A    between atoms: C3_3  and  C4_4
REMARK    4  A    between atoms: C4_4  and  N1_5
REMARK    5  A    between atoms: N2_8  and  C7_9
REMARK    6  A    between atoms: C7_9  and  C8_10
REMARK    7  A    between atoms: C8_10  and  C9_11
REMARK    8  A    between atoms: C9_11  and  N3_12
REMARK    9  A    between atoms: C11_19  and  N6_20
REMARK       I    between atoms: N6_20  and  C12_22
ROOT
HETATM    1  C8  UNL     1       4.910  62.817  22.003  1.00  0.00     0.050 C
ENDROOT
BRANCH   1   2
HETATM    2  C7  UNL     1       4.157  61.814  22.875  1.00  0.00     0.274 C
BRANCH   2   3
HETATM    3  N2  UNL     1       4.000  62.347  24.209  1.00  0.00     0.094 N
HETATM    4  C6  UNL     1       2.704  62.004  24.791  1.00  0.00     0.292 C
HETATM    5  C5  UNL     1       2.435  60.559  24.770  1.00  0.00     0.152 C
HETATM    6  N1  UNL     1       3.527  59.684  25.095  1.00  0.00    -0.390 N
HETATM    7  C14 UNL     1       4.784  60.246  25.270  1.00  0.00     0.088 C
HETATM    8  C13 UNL     1       4.956  61.716  25.132  1.00  0.00     0.316 C
BRANCH   6   9
HETATM    9  C4  UNL     1       3.131  58.520  25.787  1.00  0.00     0.122 C
BRANCH   9  10
HETATM   10  C3  UNL     1       3.607  57.282  25.126  1.00  0.00     0.024 C
BRANCH  10  11
HETATM   11  C2  UNL     1       3.064  57.111  23.728  1.00  0.00    -0.013 C
HETATM   12  C1  UNL     1       2.213  55.825  23.802  1.00  0.00     0.010 C
BRANCH  11  13
HETATM   13  C15 UNL     1       4.063  56.902  22.643  1.00  0.00    -0.011 C
HETATM   14  C16 UNL     1       4.716  58.120  22.125  1.00  0.00     0.005 C
HETATM   15  C17 UNL     1       4.441  58.486  20.711  1.00  0.00     0.000 C
HETATM   16  C18 UNL     1       3.462  57.633  19.986  1.00  0.00     0.000 C
HETATM   17  C19 UNL     1       3.901  56.186  20.242  1.00  0.00     0.000 C
HETATM   18  C20 UNL     1       3.466  55.949  21.667  1.00  0.00     0.005 C
ENDBRANCH  11  13
ENDBRANCH  10  11
ENDBRANCH   9  10
ENDBRANCH   6   9
ENDBRANCH   2   3
ENDBRANCH   1   2
BRANCH   1  19
HETATM   19  C9  UNL     1       6.174  62.056  21.554  1.00  0.00     0.123 C
BRANCH  19  20
HETATM   20  N3  UNL     1       6.963  62.876  20.683  1.00  0.00    -0.369 N
HETATM   21  C10 UNL     1       7.361  62.383  19.545  1.00  0.00     0.162 A
HETATM   22  N4  UNL     1       8.098  62.980  18.606  1.00  0.00    -0.278 N
HETATM   23  S1  UNL     1       7.108  60.825  18.832  1.00  0.00    -0.015 SA
HETATM   24  N5  UNL     1       8.402  62.347  17.546  1.00  0.00    -0.277 N
ATOM     25  H4  UNL     1       8.415  63.940  18.738  1.00  0.00     0.189 HD
HETATM   26  C11 UNL     1       7.977  61.094  17.389  1.00  0.00     0.169 A
ATOM     27  H5  UNL     1       8.966  62.795  16.823  1.00  0.00     0.189 HD
ATOM     28  H3  UNL     1       7.210  63.829  20.951  1.00  0.00     0.161 HD
BRANCH  26  29
HETATM   29  N6  UNL     1       8.185  60.280  16.383  1.00  0.00    -0.310 N
HETATM   30  C12 UNL     1       7.182  59.370  16.031  1.00  0.00     0.187 C
HETATM   31  N7  UNL     1       7.048  58.218  16.600  1.00  0.00    -0.373 N
HETATM   32  N8  UNL     1       6.284  59.744  15.003  1.00  0.00    -0.064 NA
ATOM     33  H72 UNL     1       7.695  57.949  17.342  1.00  0.00     0.158 HD
ATOM     34  H71 UNL     1       6.317  57.555  16.344  1.00  0.00     0.158 HD
ATOM     35  H6  UNL     1       9.063  60.310  15.865  1.00  0.00     0.170 HD
ENDBRANCH  26  29
ENDBRANCH  19  20
ENDBRANCH   1  19
TORSDOF 9
ENDMDL