MODEL 4
REMARK VINA RESULT: -5.631062355      3.422      5.898
REMARK  11 active torsions:
REMARK  status: ('A' for Active; 'I' for Inactive)
REMARK    1  A    between atoms: C2_2  and  C3_3
REMARK    2  A    between atoms: C3_3  and  C4_4
REMARK    3  A    between atoms: C4_4  and  N1_5
REMARK    4  A    between atoms: N1_5  and  C5_6
REMARK    5  A    between atoms: N1_5  and  C7_10
REMARK    6  A    between atoms: C5_6  and  C6_7
REMARK    7  A    between atoms: C6_7  and  O1_8
REMARK    8  A    between atoms: C7_10  and  C8_11
REMARK    9  A    between atoms: C8_11  and  O2_12
REMARK   10  A    between atoms: C9_14  and  O3_15
REMARK   11  A    between atoms: C14_21  and  C15_22
ROOT
HETATM    1  C8  UNL     1       3.550  57.519  26.086  1.00  0.00     0.107 C
HETATM    2  C9  UNL     1       2.342  58.290  26.382  1.00  0.00     0.155 C
HETATM    3  C10 UNL     1       2.214  59.412  25.318  1.00  0.00     0.041 C
HETATM    4  C11 UNL     1       3.385  59.236  24.490  1.00  0.00     0.004 C
HETATM    5  C12 UNL     1       4.014  60.332  23.757  1.00  0.00    -0.001 C
HETATM    6  C13 UNL     1       3.490  60.440  22.324  1.00  0.00     0.019 C
HETATM    7  C14 UNL     1       4.631  60.869  21.408  1.00  0.00     0.075 C
HETATM    8  C16 UNL     1       5.590  61.687  22.255  1.00  0.00     0.014 C
HETATM    9  C17 UNL     1       4.882  62.520  23.278  1.00  0.00     0.010 C
HETATM   10  C18 UNL     1       4.138  61.675  24.331  1.00  0.00    -0.040 C
HETATM   11  C19 UNL     1       2.813  62.411  24.524  1.00  0.00     0.015 C
HETATM   12  C20 UNL     1       4.969  61.765  25.563  1.00  0.00     0.009 C
HETATM   13  C21 UNL     1       4.907  60.642  26.532  1.00  0.00     0.002 C
HETATM   14  C22 UNL     1       5.369  59.310  26.023  1.00  0.00     0.012 C
HETATM   15  C23 UNL     1       4.437  58.470  25.290  1.00  0.00    -0.005 C
HETATM   16  C24 UNL     1       5.257  57.583  24.360  1.00  0.00     0.019 C
ENDROOT
BRANCH   1  17
HETATM   17  C7  UNL     1       4.290  56.798  27.120  1.00  0.00     0.168 C
BRANCH  17  18
HETATM   18  N1  UNL     1       3.661  56.326  28.303  1.00  0.00    -0.369 N
BRANCH  18  19
HETATM   19  C4  UNL     1       3.843  56.972  29.508  1.00  0.00     0.063 C
BRANCH  19  20
HETATM   20  C3  UNL     1       4.909  58.011  29.634  1.00  0.00     0.044 C
BRANCH  20  21
HETATM   21  C2  UNL     1       4.229  59.359  29.966  1.00  0.00     0.001 C
HETATM   22  C1  UNL     1       5.234  60.407  30.275  1.00  0.00     0.005 C
ENDBRANCH  20  21
ENDBRANCH  19  20
ENDBRANCH  18  19
BRANCH  18  23
HETATM   23  C5  UNL     1       3.336  54.965  28.307  1.00  0.00     0.089 C
BRANCH  23  24
HETATM   24  C6  UNL     1       1.984  54.482  27.978  1.00  0.00     0.208 C
BRANCH  24  25
HETATM   25  O1  UNL     1       1.693  54.480  26.614  1.00  0.00    -0.396 OA
ATOM     26  H1  UNL     1       1.427  53.634  26.273  1.00  0.00     0.209 HD
ENDBRANCH  24  25
ENDBRANCH  23  24
ENDBRANCH  18  23
ENDBRANCH  17  18
ENDBRANCH   1  17
BRANCH   1  27
HETATM   27  O2  UNL     1       3.177  56.549  25.096  1.00  0.00    -0.385 OA
ATOM     28  H2  UNL     1       3.145  57.007  24.264  1.00  0.00     0.210 HD
ENDBRANCH   1  27
BRANCH   2  29
HETATM   29  O3  UNL     1       1.181  57.492  26.317  1.00  0.00    -0.392 OA
ATOM     30  H3  UNL     1       0.684  57.656  25.526  1.00  0.00     0.210 HD
ENDBRANCH   2  29
BRANCH   7  31
HETATM   31  C15 UNL     1       5.396  59.712  20.875  1.00  0.00     0.235 C
HETATM   32  N2  UNL     1       6.665  59.835  20.268  1.00  0.00    -0.062 NA
HETATM   33  O4  UNL     1       4.938  58.518  20.938  1.00  0.00    -0.277 OA
ENDBRANCH   7  31
TORSDOF 11
ENDMDL