MODEL 3
REMARK VINA RESULT: -6.095031359      2.953      5.843
REMARK  17 active torsions:
REMARK  status: ('A' for Active; 'I' for Inactive)
REMARK    1  A    between atoms: C3_3  and  O1_4
REMARK    2  A    between atoms: O1_4  and  C4_5
REMARK       I    between atoms: C4_5  and  N1_7
REMARK    3  A    between atoms: N1_7  and  C5_8
REMARK    4  A    between atoms: C5_8  and  C6_9
REMARK    5  A    between atoms: C5_8  and  N4_23
REMARK    6  A    between atoms: C6_9  and  C7_10
REMARK    7  A    between atoms: C7_10  and  C8_11
REMARK    8  A    between atoms: C8_11  and  C9_12
REMARK    9  A    between atoms: C9_12  and  C10_13
REMARK   10  A    between atoms: C10_13  and  N2_14
REMARK   11  A    between atoms: N2_14  and  C11_16
REMARK   12  A    between atoms: C11_16  and  N3_18
REMARK   13  A    between atoms: N3_18  and  C12_20
REMARK   14  A    between atoms: C12_20  and  C13_21
REMARK   15  A    between atoms: N4_23  and  N5_25
REMARK       I    between atoms: N5_25  and  C15_27
REMARK   16  A    between atoms: C15_27  and  O4_29
REMARK   17  A    between atoms: O4_29  and  C16_30
ROOT
HETATM    1  C1  UNL     1       7.572  59.225  16.494  1.00  0.00     0.014 C
HETATM    2  C2  UNL     1       7.928  60.188  17.086  1.00  0.00    -0.091 C
HETATM    3  C3  UNL     1       8.355  61.373  17.782  1.00  0.00     0.274 C
ENDROOT
BRANCH   3   4
HETATM    4  O1  UNL     1       7.367  61.974  18.569  1.00  0.00    -0.281 OA
BRANCH   4   5
HETATM    5  C4  UNL     1       7.065  61.532  19.864  1.00  0.00     0.442 C
HETATM    6  O2  UNL     1       7.464  62.369  20.762  1.00  0.00    -0.221 OA
HETATM    7  N1  UNL     1       6.454  60.415  20.231  1.00  0.00    -0.331 NA
BRANCH   7   8
HETATM    8  C5  UNL     1       5.626  59.629  20.570  1.00  0.00     0.176 C
BRANCH   8   9
HETATM    9  C6  UNL     1       4.838  59.979  21.859  1.00  0.00     0.094 C
BRANCH   9  10
HETATM   10  C7  UNL     1       4.027  61.166  21.503  1.00  0.00     0.008 C
BRANCH  10  11
HETATM   11  C8  UNL     1       4.150  62.433  22.222  1.00  0.00     0.002 C
BRANCH  11  12
HETATM   12  C9  UNL     1       5.012  62.536  23.413  1.00  0.00     0.020 C
BRANCH  12  13
HETATM   13  C10 UNL     1       4.457  62.477  24.775  1.00  0.00     0.122 C
BRANCH  13  14
HETATM   14  N2  UNL     1       4.766  61.136  25.299  1.00  0.00    -0.367 N
ATOM     15  H2  UNL     1       5.714  60.905  25.595  1.00  0.00     0.161 HD
BRANCH  14  16
HETATM   16  C11 UNL     1       3.743  60.178  25.386  1.00  0.00     0.167 C
HETATM   17  S1  UNL     1       2.181  60.668  25.149  1.00  0.00    -0.041 SA
BRANCH  16  18
HETATM   18  N3  UNL     1       3.998  58.817  25.725  1.00  0.00    -0.364 N
ATOM     19  H3  UNL     1       3.341  58.338  26.340  1.00  0.00     0.162 HD
BRANCH  18  20
HETATM   20  C12 UNL     1       5.134  58.090  25.242  1.00  0.00     0.148 C
BRANCH  20  21
HETATM   21  C13 UNL     1       4.827  57.217  24.086  1.00  0.00    -0.018 C
HETATM   22  C14 UNL     1       3.559  56.879  23.883  1.00  0.00     0.008 C
ENDBRANCH  20  21
ENDBRANCH  18  20
ENDBRANCH  16  18
ENDBRANCH  14  16
ENDBRANCH  13  14
ENDBRANCH  12  13
ENDBRANCH  11  12
ENDBRANCH  10  11
ENDBRANCH   9  10
ENDBRANCH   8   9
BRANCH   8  23
HETATM   23  N4  UNL     1       5.279  58.428  19.930  1.00  0.00    -0.273 N
ATOM     24  H4  UNL     1       5.826  58.071  19.146  1.00  0.00     0.189 HD
BRANCH  23  25
HETATM   25  N5  UNL     1       4.173  57.746  20.396  1.00  0.00    -0.243 N
HETATM   26  C15 UNL     1       3.496  56.799  19.611  1.00  0.00     0.380 C
HETATM   27  O3  UNL     1       3.820  56.501  18.428  1.00  0.00    -0.237 OA
ATOM     28  H5  UNL     1       3.838  57.935  21.341  1.00  0.00     0.192 HD
BRANCH  26  29
HETATM   29  O4  UNL     1       2.383  56.091  20.091  1.00  0.00    -0.293 OA
BRANCH  29  30
HETATM   30  C16 UNL     1       2.367  54.769  20.494  1.00  0.00     0.061 C
HETATM   31  C17 UNL     1       1.440  54.716  21.723  1.00  0.00     0.046 C
HETATM   32  C18 UNL     1       3.707  54.253  20.966  1.00  0.00     0.046 C
HETATM   33  C19 UNL     1       1.795  53.790  19.512  1.00  0.00     0.046 C
ENDBRANCH  29  30
ENDBRANCH  26  29
ENDBRANCH  23  25
ENDBRANCH   8  23
ENDBRANCH   7   8
ENDBRANCH   4   5
ENDBRANCH   3   4
TORSDOF 17
ENDMDL