MODEL 3
REMARK VINA RESULT: -7.798279787      2.722      4.409
REMARK  9 active torsions:
REMARK  status: ('A' for Active; 'I' for Inactive)
REMARK    1  A    between atoms: C2_2  and  N1_3
REMARK    2  A    between atoms: C2_2  and  C15_26
REMARK       I    between atoms: N1_3  and  C3_5
REMARK    3  A    between atoms: C3_5  and  C4_7
REMARK    4  A    between atoms: C4_7  and  C5_8
REMARK    5  A    between atoms: C4_7  and  N4_16
REMARK    6  A    between atoms: C5_8  and  C6_9
REMARK       I    between atoms: N4_16  and  C9_18
REMARK    7  A    between atoms: C9_18  and  O3_20
REMARK    8  A    between atoms: O3_20  and  C10_21
REMARK       I    between atoms: C15_26  and  N5_28
REMARK    9  A    between atoms: N5_28  and  C16_30
ROOT
HETATM    1  C4  UNL     1       4.700  61.859  21.723  1.00  0.00     0.087 C
ENDROOT
BRANCH   1   2
HETATM    2  C3  UNL     1       4.046  60.552  21.707  1.00  0.00     0.265 C
HETATM    3  N1  UNL     1       4.481  59.386  21.070  1.00  0.00    -0.343 N
ATOM      4  H1  UNL     1       5.357  59.407  20.547  1.00  0.00     0.163 HD
HETATM    5  O1  UNL     1       2.942  60.460  22.360  1.00  0.00    -0.266 OA
BRANCH   3   6
HETATM    6  C2  UNL     1       3.733  58.153  21.125  1.00  0.00     0.172 C
HETATM    7  C1  UNL     1       3.933  57.303  19.879  1.00  0.00     0.042 C
BRANCH   6   8
HETATM    8  C15 UNL     1       4.119  57.338  22.302  1.00  0.00     0.240 C
HETATM    9  O4  UNL     1       4.138  56.092  22.225  1.00  0.00    -0.271 OA
HETATM   10  N5  UNL     1       4.470  57.954  23.529  1.00  0.00    -0.355 N
ATOM     11  H5  UNL     1       4.459  58.971  23.606  1.00  0.00     0.162 HD
BRANCH  10  12
HETATM   12  C16 UNL     1       4.849  57.140  24.689  1.00  0.00     0.084 C
HETATM   13  C17 UNL     1       3.695  56.896  25.609  1.00  0.00     0.025 C
HETATM   14  C18 UNL     1       3.932  57.410  26.999  1.00  0.00     0.002 C
HETATM   15  C19 UNL     1       5.239  56.996  27.590  1.00  0.00     0.000 C
HETATM   16  C20 UNL     1       6.373  56.978  26.590  1.00  0.00     0.002 C
HETATM   17  C21 UNL     1       5.981  57.867  25.428  1.00  0.00     0.025 C
ENDBRANCH  10  12
ENDBRANCH   6   8
ENDBRANCH   3   6
ENDBRANCH   1   2
BRANCH   1  18
HETATM   18  C5  UNL     1       3.950  62.958  22.382  1.00  0.00     0.121 C
BRANCH  18  19
HETATM   19  C6  UNL     1       3.967  62.944  23.855  1.00  0.00     0.031 A
HETATM   20  C7  UNL     1       2.948  63.399  24.659  1.00  0.00     0.114 A
HETATM   21  N2  UNL     1       3.354  63.247  25.935  1.00  0.00    -0.360 N
HETATM   22  C8  UNL     1       4.583  62.716  25.958  1.00  0.00     0.180 A
ATOM     23  H2  UNL     1       2.808  63.500  26.759  1.00  0.00     0.166 HD
HETATM   24  N3  UNL     1       4.943  62.537  24.677  1.00  0.00    -0.354 N
ATOM     25  H3  UNL     1       5.835  62.147  24.372  1.00  0.00     0.166 HD
ENDBRANCH  18  19
ENDBRANCH   1  18
BRANCH   1  26
HETATM   26  N4  UNL     1       5.357  62.225  20.497  1.00  0.00    -0.301 N
HETATM   27  C9  UNL     1       6.711  62.598  20.472  1.00  0.00     0.365 C
HETATM   28  O2  UNL     1       7.425  62.634  21.518  1.00  0.00    -0.238 OA
ATOM     29  H4  UNL     1       4.828  62.213  19.625  1.00  0.00     0.171 HD
BRANCH  27  30
HETATM   30  O3  UNL     1       7.376  62.958  19.293  1.00  0.00    -0.298 OA
BRANCH  30  31
HETATM   31  C10 UNL     1       8.357  62.091  18.709  1.00  0.00     0.133 C
HETATM   32  C11 UNL     1       7.674  60.753  18.534  1.00  0.00     0.032 C
HETATM   33  C12 UNL     1       7.992  60.252  17.158  1.00  0.00     0.002 C
HETATM   34  C13 UNL     1       9.036  61.211  16.631  1.00  0.00     0.002 C
HETATM   35  C14 UNL     1       8.762  62.528  17.342  1.00  0.00     0.032 C
ENDBRANCH  30  31
ENDBRANCH  27  30
ENDBRANCH   1  26
TORSDOF 9
ENDMDL