MODEL 4
REMARK VINA RESULT: -6.281879025      3.258      9.013
REMARK  16 active torsions:
REMARK  status: ('A' for Active; 'I' for Inactive)
REMARK    1  A    between atoms: N1_5  and  C5_7
REMARK    2  A    between atoms: C5_7  and  C6_8
REMARK    3  A    between atoms: C6_8  and  C7_9
REMARK    4  A    between atoms: C7_9  and  C8_10
REMARK    5  A    between atoms: C8_10  and  N2_11
REMARK       I    between atoms: C9_13  and  N4_15
REMARK    6  A    between atoms: N4_15  and  C10_17
REMARK    7  A    between atoms: C10_17  and  C11_18
REMARK    8  A    between atoms: C11_18  and  N5_19
REMARK    9  A    between atoms: C12_25  and  N7_26
REMARK   10  A    between atoms: N7_26  and  C13_28
REMARK   11  A    between atoms: C13_28  and  C14_29
REMARK   12  A    between atoms: C14_29  and  N8_30
REMARK       I    between atoms: N8_30  and  C15_32
REMARK   13  A    between atoms: C15_32  and  C16_34
REMARK   14  A    between atoms: C16_34  and  C17_35
REMARK   15  A    between atoms: C17_35  and  C18_36
REMARK   16  A    between atoms: C18_36  and  N9_37
ROOT
HETATM    1  C1  UNL     1      -2.520  20.654  -7.871  1.00  0.00     0.069 C
HETATM    2  C2  UNL     1      -1.351  21.230  -7.133  1.00  0.00     0.026 A
HETATM    3  C3  UNL     1      -0.553  20.427  -6.327  1.00  0.00     0.073 A
HETATM    4  C4  UNL     1       0.537  20.882  -5.624  1.00  0.00     0.118 A
HETATM    5  N1  UNL     1       1.292  20.164  -4.869  1.00  0.00    -0.376 N
ATOM      6  H1  UNL     1       2.086  20.569  -4.374  1.00  0.00     0.161 HD
HETATM    7  N6  UNL     1       0.806  22.218  -5.762  1.00  0.00    -0.177 N
ATOM      8  H6  UNL     1       1.600  22.624  -5.268  1.00  0.00     0.186 HD
HETATM    9  C12 UNL     1       0.038  23.004  -6.540  1.00  0.00     0.683 A
HETATM   10  N10 UNL     1      -1.019  22.535  -7.216  1.00  0.00    -0.196 N
ATOM     11  H10 UNL     1      -1.574  23.166  -7.794  1.00  0.00     0.184 HD
ENDROOT
BRANCH   5  12
HETATM   12  C5  UNL     1       0.962  18.733  -4.750  1.00  0.00     0.121 C
BRANCH  12  13
HETATM   13  C6  UNL     1       2.163  17.891  -5.012  1.00  0.00     0.021 C
BRANCH  13  14
HETATM   14  C7  UNL     1       2.257  17.190  -6.305  1.00  0.00     0.021 C
BRANCH  14  15
HETATM   15  C8  UNL     1       2.288  18.035  -7.521  1.00  0.00     0.122 C
BRANCH  15  16
HETATM   16  N2  UNL     1       2.534  17.323  -8.722  1.00  0.00    -0.365 N
HETATM   17  C9  UNL     1       1.610  16.968  -9.539  1.00  0.00     0.184 C
HETATM   18  N3  UNL     1       1.990  16.254 -10.716  1.00  0.00    -0.064 NA
HETATM   19  N4  UNL     1       0.231  17.267  -9.305  1.00  0.00    -0.363 N
ATOM     20  H4  UNL     1      -0.345  16.650  -8.734  1.00  0.00     0.162 HD
ATOM     21  H2  UNL     1       3.498  17.078  -8.949  1.00  0.00     0.162 HD
BRANCH  19  22
HETATM   22  C10 UNL     1      -0.329  18.465  -9.898  1.00  0.00     0.149 C
BRANCH  22  23
HETATM   23  C11 UNL     1      -1.118  18.147 -11.134  1.00  0.00     0.249 C
BRANCH  23  24
HETATM   24  N5  UNL     1      -0.204  18.095 -12.258  1.00  0.00    -0.078 N
ATOM     25  H53 UNL     1       0.015  19.020 -12.628  1.00  0.00     0.274 HD
ATOM     26  H52 UNL     1       0.741  17.828 -11.982  1.00  0.00     0.274 HD
ATOM     27  H51 UNL     1      -0.598  17.473 -12.963  1.00  0.00     0.274 HD
ENDBRANCH  23  24
ENDBRANCH  22  23
ENDBRANCH  19  22
ENDBRANCH  15  16
ENDBRANCH  14  15
ENDBRANCH  13  14
ENDBRANCH  12  13
ENDBRANCH   5  12
BRANCH   9  28
HETATM   28  N7  UNL     1       0.391  24.241  -6.602  1.00  0.00    -0.200 N
ATOM     29  H7  UNL     1       1.245  24.428  -7.129  1.00  0.00     0.183 HD
BRANCH  28  30
HETATM   30  C13 UNL     1      -0.235  25.369  -6.045  1.00  0.00     0.123 C
BRANCH  30  31
HETATM   31  C14 UNL     1      -1.105  26.148  -6.975  1.00  0.00     0.108 C
BRANCH  31  32
HETATM   32  N8  UNL     1      -0.451  27.032  -7.853  1.00  0.00    -0.336 N
HETATM   33  C15 UNL     1      -0.385  28.420  -7.850  1.00  0.00     0.221 C
HETATM   34  O1  UNL     1      -0.930  29.132  -6.995  1.00  0.00    -0.273 OA
ATOM     35  H8  UNL     1       0.056  26.580  -8.614  1.00  0.00     0.168 HD
BRANCH  33  36
HETATM   36  C16 UNL     1       0.370  29.145  -8.915  1.00  0.00     0.105 C
BRANCH  36  37
HETATM   37  C17 UNL     1      -0.219  30.423  -9.360  1.00  0.00     0.036 C
BRANCH  37  38
HETATM   38  C18 UNL     1      -0.869  30.448 -10.695  1.00  0.00     0.230 C
BRANCH  38  39
HETATM   39  N9  UNL     1      -2.234  30.941 -10.664  1.00  0.00    -0.079 N
ATOM     40  H93 UNL     1      -2.260  31.916 -10.364  1.00  0.00     0.274 HD
ATOM     41  H92 UNL     1      -2.602  31.045 -11.609  1.00  0.00     0.274 HD
ATOM     42  H91 UNL     1      -2.859  30.371 -10.094  1.00  0.00     0.274 HD
ENDBRANCH  38  39
ENDBRANCH  37  38
ENDBRANCH  36  37
ENDBRANCH  33  36
ENDBRANCH  31  32
ENDBRANCH  30  31
ENDBRANCH  28  30
ENDBRANCH   9  28
TORSDOF 16
ENDMDL