MODEL 5
REMARK VINA RESULT: -7.126835719      3.982      5.051
REMARK  14 active torsions:
REMARK  status: ('A' for Active; 'I' for Inactive)
REMARK       I    between atoms: C1_4  and  N3_6
REMARK    1  A    between atoms: N3_6  and  C2_7
REMARK    2  A    between atoms: N3_6  and  C12_28
REMARK    3  A    between atoms: C2_7  and  C3_8
REMARK    4  A    between atoms: C3_8  and  C4_9
REMARK    5  A    between atoms: C4_9  and  C5_10
REMARK    6  A    between atoms: C5_10  and  C6_11
REMARK    7  A    between atoms: C6_11  and  N4_12
REMARK    8  A    between atoms: N4_12  and  C7_14
REMARK    9  A    between atoms: C12_28  and  C13_29
REMARK       I    between atoms: C13_29  and  N9_31
REMARK   10  A    between atoms: N9_31  and  C14_33
REMARK   11  A    between atoms: C14_33  and  C15_34
REMARK   12  A    between atoms: C15_34  and  C16_35
REMARK   13  A    between atoms: C16_35  and  C17_36
REMARK   14  A    between atoms: C17_36  and  N10_37
ROOT
HETATM    1  C2  UNL     1      -0.458  22.794  -6.982  1.00  0.00     0.126 C
ENDROOT
BRANCH   1   2
HETATM    2  N3  UNL     1      -0.028  23.299  -5.712  1.00  0.00    -0.347 N
HETATM    3  C1  UNL     1       1.063  22.739  -5.020  1.00  0.00     0.184 C
HETATM    4  N1  UNL     1       1.967  23.592  -4.588  1.00  0.00    -0.374 N
HETATM    5  N2  UNL     1       1.258  21.367  -4.743  1.00  0.00    -0.064 NA
ATOM      6  H12 UNL     1       2.757  23.186  -4.087  1.00  0.00     0.158 HD
ATOM      7  H11 UNL     1       1.826  24.582  -4.787  1.00  0.00     0.158 HD
BRANCH   2   8
HETATM    8  C12 UNL     1      -0.734  24.405  -5.109  1.00  0.00     0.228 C
BRANCH   8   9
HETATM    9  C13 UNL     1      -1.089  25.522  -5.967  1.00  0.00     0.235 C
HETATM   10  O2  UNL     1      -2.336  25.855  -5.932  1.00  0.00    -0.272 OA
HETATM   11  N9  UNL     1      -0.294  26.287  -6.821  1.00  0.00    -0.360 N
ATOM     12  H9  UNL     1       0.703  26.082  -6.897  1.00  0.00     0.162 HD
BRANCH  11  13
HETATM   13  C14 UNL     1      -0.872  27.385  -7.614  1.00  0.00     0.122 C
BRANCH  13  14
HETATM   14  C15 UNL     1       0.177  28.092  -8.393  1.00  0.00     0.021 C
BRANCH  14  15
HETATM   15  C16 UNL     1       0.090  29.569  -8.489  1.00  0.00     0.029 C
BRANCH  15  16
HETATM   16  C17 UNL     1      -0.765  30.263  -7.502  1.00  0.00     0.229 C
BRANCH  16  17
HETATM   17  N10 UNL     1      -1.986  30.825  -8.002  1.00  0.00    -0.079 N
ATOM     18 3H10 UNL     1      -2.655  30.079  -8.194  1.00  0.00     0.274 HD
ATOM     19 2H10 UNL     1      -2.469  31.321  -7.253  1.00  0.00     0.274 HD
ATOM     20 1H10 UNL     1      -1.905  31.432  -8.819  1.00  0.00     0.274 HD
ENDBRANCH  16  17
ENDBRANCH  15  16
ENDBRANCH  14  15
ENDBRANCH  13  14
ENDBRANCH  11  13
ENDBRANCH   8   9
ENDBRANCH   2   8
ENDBRANCH   1   2
BRANCH   1  21
HETATM   21  C3  UNL     1      -1.698  21.996  -7.053  1.00  0.00     0.020 C
BRANCH  21  22
HETATM   22  C4  UNL     1      -1.595  20.632  -7.636  1.00  0.00     0.003 C
BRANCH  22  23
HETATM   23  C5  UNL     1      -2.027  19.548  -6.667  1.00  0.00     0.020 C
BRANCH  23  24
HETATM   24  C6  UNL     1      -0.789  18.914  -6.054  1.00  0.00     0.138 C
BRANCH  24  25
HETATM   25  N4  UNL     1       0.362  18.984  -6.886  1.00  0.00    -0.226 N
ATOM     26  H4  UNL     1       0.830  19.887  -6.958  1.00  0.00     0.177 HD
BRANCH  25  27
HETATM   27  C7  UNL     1       0.860  18.018  -7.551  1.00  0.00     0.682 A
HETATM   28  N5  UNL     1       1.366  16.951  -6.934  1.00  0.00    -0.154 N
HETATM   29  C8  UNL     1       1.905  15.911  -7.627  1.00  0.00     0.290 A
ATOM     30  H5  UNL     1       1.350  16.912  -5.915  1.00  0.00     0.187 HD
HETATM   31  O1  UNL     1       2.378  14.912  -7.041  1.00  0.00    -0.265 OA
HETATM   32  C9  UNL     1       1.905  16.006  -9.007  1.00  0.00     0.147 A
HETATM   33  N6  UNL     1       2.371  15.131  -9.938  1.00  0.00    -0.345 N
HETATM   34  C11 UNL     1       1.387  17.098  -9.651  1.00  0.00     0.154 A
HETATM   35  C10 UNL     1       2.126  15.708 -11.136  1.00  0.00     0.182 A
ATOM     36  H6  UNL     1       2.814  14.227  -9.767  1.00  0.00     0.167 HD
HETATM   37  N7  UNL     1       1.528  16.904 -10.954  1.00  0.00    -0.336 N
ATOM     38  H7  UNL     1       1.236  17.546 -11.691  1.00  0.00     0.168 HD
HETATM   39  N8  UNL     1       0.867  18.095  -8.892  1.00  0.00    -0.174 N
ATOM     40  H8  UNL     1       0.474  18.918  -9.348  1.00  0.00     0.186 HD
ENDBRANCH  25  27
ENDBRANCH  24  25
ENDBRANCH  23  24
ENDBRANCH  22  23
ENDBRANCH  21  22
ENDBRANCH   1  21
TORSDOF 14
ENDMDL