MODEL 3
REMARK VINA RESULT: -6.142143488      3.678      8.971
REMARK  15 active torsions:
REMARK  status: ('A' for Active; 'I' for Inactive)
REMARK    1  A    between atoms: N1_2  and  C2_5
REMARK    2  A    between atoms: C4_7  and  N2_8
REMARK    3  A    between atoms: C7_14  and  N3_15
REMARK       I    between atoms: N3_15  and  C8_17
REMARK    4  A    between atoms: C8_17  and  C9_19
REMARK    5  A    between atoms: C9_19  and  N4_20
REMARK       I    between atoms: N4_20  and  C10_22
REMARK       I    between atoms: C10_22  and  N6_26
REMARK    6  A    between atoms: N6_26  and  C11_28
REMARK    7  A    between atoms: C11_28  and  C12_29
REMARK    8  A    between atoms: C12_29  and  O2_30
REMARK    9  A    between atoms: O2_30  and  C13_31
REMARK   10  A    between atoms: C13_31  and  C14_32
REMARK   11  A    between atoms: C14_32  and  O3_33
REMARK   12  A    between atoms: O3_33  and  C15_34
REMARK   13  A    between atoms: C15_34  and  C16_35
REMARK   14  A    between atoms: C16_35  and  C17_36
REMARK   15  A    between atoms: C17_36  and  O4_37
ROOT
HETATM    1  C9  UNL     1       2.041  20.823  -4.659  1.00  0.00     0.240 C
ENDROOT
BRANCH   1   2
HETATM    2  C8  UNL     1       1.916  19.464  -5.222  1.00  0.00     0.236 C
HETATM    3  N3  UNL     1       1.154  19.256  -6.412  1.00  0.00    -0.353 N
ATOM      4  H3  UNL     1       0.691  20.036  -6.878  1.00  0.00     0.163 HD
HETATM    5  O1  UNL     1       2.473  18.467  -4.673  1.00  0.00    -0.272 OA
BRANCH   3   6
HETATM    6  C7  UNL     1       1.051  17.923  -6.936  1.00  0.00     0.115 C
HETATM    7  C2  UNL     1      -0.303  17.680  -7.515  1.00  0.00     0.209 C
HETATM    8  C3  UNL     1      -0.436  16.266  -8.054  1.00  0.00     0.068 C
HETATM    9  C4  UNL     1       0.731  15.886  -8.930  1.00  0.00     0.185 C
HETATM   10  C5  UNL     1       2.066  16.288  -8.405  1.00  0.00     0.035 C
HETATM   11  C6  UNL     1       2.040  17.789  -8.096  1.00  0.00     0.029 C
BRANCH   7  12
HETATM   12  N1  UNL     1      -0.575  18.652  -8.555  1.00  0.00    -0.073 N
HETATM   13  C1  UNL     1      -1.863  19.303  -8.331  1.00  0.00     0.267 C
ATOM     14  H12 UNL     1      -0.518  18.237  -9.485  1.00  0.00     0.277 HD
ATOM     15  H11 UNL     1       0.180  19.331  -8.645  1.00  0.00     0.277 HD
ENDBRANCH   7  12
BRANCH   9  16
HETATM   16  N2  UNL     1       0.723  14.422  -9.019  1.00  0.00    -0.075 N
ATOM     17  H23 UNL     1       1.440  13.978  -8.444  1.00  0.00     0.274 HD
ATOM     18  H22 UNL     1      -0.085  13.993  -8.569  1.00  0.00     0.274 HD
ATOM     19  H21 UNL     1       0.802  14.193 -10.010  1.00  0.00     0.274 HD
ENDBRANCH   9  16
ENDBRANCH   3   6
ENDBRANCH   1   2
BRANCH   1  20
HETATM   20  N4  UNL     1       0.885  21.592  -5.062  1.00  0.00    -0.218 N
HETATM   21  C10 UNL     1       1.101  22.976  -5.357  1.00  0.00     0.667 C
HETATM   22  N5  UNL     1       1.755  23.731  -4.570  1.00  0.00    -0.235 N
HETATM   23  N6  UNL     1       0.561  23.484  -6.557  1.00  0.00    -0.225 N
ATOM     24  H52 UNL     1       2.147  23.363  -3.702  1.00  0.00     0.174 HD
ATOM     25  H51 UNL     1       1.909  24.717  -4.781  1.00  0.00     0.174 HD
ATOM     26  H6  UNL     1       1.175  24.027  -7.163  1.00  0.00     0.177 HD
ATOM     27  H4  UNL     1      -0.040  21.169  -5.132  1.00  0.00     0.178 HD
BRANCH  23  28
HETATM   28  C11 UNL     1      -0.805  23.288  -6.986  1.00  0.00     0.164 C
BRANCH  28  29
HETATM   29  C12 UNL     1      -1.663  24.249  -6.221  1.00  0.00     0.188 C
BRANCH  29  30
HETATM   30  O2  UNL     1      -2.332  25.190  -6.829  1.00  0.00    -0.387 OA
BRANCH  30  31
HETATM   31  C13 UNL     1      -1.975  26.378  -7.260  1.00  0.00     0.193 C
BRANCH  31  32
HETATM   32  C14 UNL     1      -0.645  26.935  -6.733  1.00  0.00     0.193 C
BRANCH  32  33
HETATM   33  O3  UNL     1       0.375  26.966  -7.615  1.00  0.00    -0.389 OA
BRANCH  33  34
HETATM   34  C15 UNL     1       0.886  28.142  -8.024  1.00  0.00     0.169 C
BRANCH  34  35
HETATM   35  C16 UNL     1       0.271  28.870  -9.167  1.00  0.00     0.052 C
BRANCH  35  36
HETATM   36  C17 UNL     1      -0.192  30.254  -8.905  1.00  0.00     0.169 C
BRANCH  36  37
HETATM   37  O4  UNL     1      -1.439  30.492  -8.453  1.00  0.00    -0.396 OA
HETATM   38  C18 UNL     1      -1.593  30.874  -7.149  1.00  0.00     0.201 C
ENDBRANCH  36  37
ENDBRANCH  35  36
ENDBRANCH  34  35
ENDBRANCH  33  34
ENDBRANCH  32  33
ENDBRANCH  31  32
ENDBRANCH  30  31
ENDBRANCH  29  30
ENDBRANCH  28  29
ENDBRANCH  23  28
ENDBRANCH   1  20
TORSDOF 15
ENDMDL