MODEL 3
REMARK VINA RESULT: -7.161656267      2.143      2.816
REMARK  16 active torsions:
REMARK  status: ('A' for Active; 'I' for Inactive)
REMARK    1  A    between atoms: N1_1  and  C1_4
REMARK    2  A    between atoms: C2_7  and  N3_8
REMARK    3  A    between atoms: N3_8  and  C3_10
REMARK    4  A    between atoms: C3_10  and  C4_11
REMARK    5  A    between atoms: C5_15  and  N5_16
REMARK    6  A    between atoms: N5_16  and  C6_18
REMARK    7  A    between atoms: C6_18  and  C7_19
REMARK    8  A    between atoms: C7_19  and  C8_20
REMARK       I    between atoms: C8_20  and  N6_22
REMARK    9  A    between atoms: N6_22  and  C9_24
REMARK   10  A    between atoms: C9_24  and  C10_25
REMARK   11  A    between atoms: C10_25  and  C11_26
REMARK   12  A    between atoms: C11_26  and  C12_27
REMARK   13  A    between atoms: C12_27  and  C13_28
REMARK   14  A    between atoms: C13_28  and  C14_29
REMARK   15  A    between atoms: C14_29  and  C15_30
REMARK   16  A    between atoms: C15_30  and  N7_31
ROOT
HETATM    1  N5  UNL     1       2.011  20.441  -5.340  1.00  0.00    -0.225 N
ATOM      2  H5  UNL     1       3.004  20.378  -5.567  1.00  0.00     0.177 HD
ENDROOT
BRANCH   1   3
HETATM    3  C5  UNL     1       1.164  19.582  -5.801  1.00  0.00     0.707 A
HETATM    4  N4  UNL     1       1.509  18.618  -6.675  1.00  0.00    -0.022 N
HETATM    5  C2  UNL     1       0.625  17.723  -7.154  1.00  0.00     0.707 A
ATOM      6  H4  UNL     1       2.479  18.563  -6.985  1.00  0.00     0.203 HD
HETATM    7  N2  UNL     1      -0.663  17.763  -6.765  1.00  0.00    -0.022 N
HETATM    8  C1  UNL     1      -1.022  18.721  -5.892  1.00  0.00     0.705 A
ATOM      9  H2  UNL     1      -1.343  17.090  -7.120  1.00  0.00     0.203 HD
HETATM   10  N10 UNL     1      -0.130  19.615  -5.416  1.00  0.00    -0.022 N
ATOM     11  H10 UNL     1      -0.440  20.327  -4.754  1.00  0.00     0.203 HD
BRANCH   5  12
HETATM   12  N3  UNL     1       1.048  16.844  -7.981  1.00  0.00    -0.219 N
ATOM     13  H3  UNL     1       1.860  16.299  -7.690  1.00  0.00     0.178 HD
BRANCH  12  14
HETATM   14  C3  UNL     1       0.509  16.545  -9.262  1.00  0.00     0.207 C
BRANCH  14  15
HETATM   15  C4  UNL     1       1.611  16.462 -10.252  1.00  0.00     0.251 C
HETATM   16  O1  UNL     1       2.318  15.474 -10.377  1.00  0.00    -0.305 OA
ENDBRANCH  14  15
ENDBRANCH  12  14
ENDBRANCH   5  12
BRANCH   8  17
HETATM   17  N1  UNL     1      -2.265  18.788  -5.494  1.00  0.00    -0.234 N
ATOM     18  H12 UNL     1      -3.006  18.883  -6.190  1.00  0.00     0.174 HD
ATOM     19  H11 UNL     1      -2.472  18.746  -4.496  1.00  0.00     0.174 HD
ENDBRANCH   8  17
ENDBRANCH   1   3
BRANCH   1  20
HETATM   20  C6  UNL     1       1.500  21.504  -4.485  1.00  0.00     0.147 C
BRANCH  20  21
HETATM   21  C7  UNL     1       1.509  22.835  -5.184  1.00  0.00     0.123 C
BRANCH  21  22
HETATM   22  C8  UNL     1       0.159  23.345  -5.471  1.00  0.00     0.219 C
HETATM   23  O2  UNL     1      -0.562  23.765  -4.544  1.00  0.00    -0.274 OA
HETATM   24  N6  UNL     1      -0.326  23.362  -6.793  1.00  0.00    -0.361 N
ATOM     25  H6  UNL     1       0.267  23.019  -7.548  1.00  0.00     0.162 HD
BRANCH  24  26
HETATM   26  C9  UNL     1      -1.659  23.862  -7.105  1.00  0.00     0.122 C
BRANCH  26  27
HETATM   27  C10 UNL     1      -1.656  25.352  -7.373  1.00  0.00     0.020 C
BRANCH  27  28
HETATM   28  C11 UNL     1      -0.281  25.861  -7.728  1.00  0.00     0.002 C
BRANCH  28  29
HETATM   29  C12 UNL     1      -0.023  27.182  -7.077  1.00  0.00     0.000 C
BRANCH  29  30
HETATM   30  C13 UNL     1       0.887  28.071  -7.866  1.00  0.00     0.002 C
BRANCH  30  31
HETATM   31  C14 UNL     1       0.218  28.571  -9.140  1.00  0.00     0.020 C
BRANCH  31  32
HETATM   32  C15 UNL     1       0.147  30.089  -9.007  1.00  0.00     0.122 C
BRANCH  32  33
HETATM   33  N7  UNL     1      -1.166  30.501  -8.592  1.00  0.00    -0.367 N
HETATM   34  C16 UNL     1      -1.467  30.879  -7.395  1.00  0.00     0.196 C
HETATM   35  N8  UNL     1      -2.802  31.256  -7.140  1.00  0.00    -0.067 NA
HETATM   36  N9  UNL     1      -0.531  30.934  -6.338  1.00  0.00    -0.067 NA
ATOM     37  H7  UNL     1      -1.909  30.495  -9.290  1.00  0.00     0.161 HD
ENDBRANCH  32  33
ENDBRANCH  31  32
ENDBRANCH  30  31
ENDBRANCH  29  30
ENDBRANCH  28  29
ENDBRANCH  27  28
ENDBRANCH  26  27
ENDBRANCH  24  26
ENDBRANCH  21  22
ENDBRANCH  20  21
ENDBRANCH   1  20
TORSDOF 16
ENDMDL