MODEL 3
REMARK VINA RESULT: -6.981199459      1.565      2.137
REMARK  17 active torsions:
REMARK  status: ('A' for Active; 'I' for Inactive)
REMARK    1  A    between atoms: C2_2  and  C3_3
REMARK    2  A    between atoms: C3_3  and  C4_4
REMARK    3  A    between atoms: C4_4  and  O1_5
REMARK    4  A    between atoms: O1_5  and  C5_6
REMARK    5  A    between atoms: C7_8  and  N1_9
REMARK    6  A    between atoms: N1_9  and  C8_11
REMARK    7  A    between atoms: C8_11  and  C9_12
REMARK    8  A    between atoms: C9_12  and  C10_13
REMARK    9  A    between atoms: C10_13  and  N2_14
REMARK   10  A    between atoms: C12_21  and  N6_22
REMARK   11  A    between atoms: N6_22  and  C13_24
REMARK   12  A    between atoms: C13_24  and  C14_28
REMARK   13  A    between atoms: C14_28  and  N8_29
REMARK   14  A    between atoms: C14_28  and  C15_33
REMARK   15  A    between atoms: C15_33  and  C16_34
REMARK   16  A    between atoms: C16_34  and  C17_35
REMARK   17  A    between atoms: C17_35  and  N9_36
ROOT
HETATM    1  C5  UNL     1      -1.223  22.877  -7.174  1.00  0.00     0.161 A
HETATM    2  C6  UNL     1      -1.171  24.253  -7.119  1.00  0.00     0.105 A
HETATM    3  C7  UNL     1      -0.071  24.861  -6.553  1.00  0.00     0.120 A
HETATM    4  N5  UNL     1       0.905  24.069  -6.078  1.00  0.00    -0.177 N
ATOM      5  H5  UNL     1       1.719  24.519  -5.658  1.00  0.00     0.186 HD
HETATM    6  C12 UNL     1       0.880  22.725  -6.118  1.00  0.00     0.687 A
HETATM    7  N10 UNL     1      -0.213  22.156  -6.680  1.00  0.00    -0.170 N
ATOM      8  H10 UNL     1      -0.267  21.139  -6.728  1.00  0.00     0.186 HD
ENDROOT
BRANCH   6   9
HETATM    9  N6  UNL     1       1.783  21.953  -5.680  1.00  0.00    -0.179 N
ATOM     10  H6  UNL     1       2.720  22.061  -6.067  1.00  0.00     0.185 HD
BRANCH   9  11
HETATM   11  C13 UNL     1       1.597  20.950  -4.696  1.00  0.00     0.121 C
HETATM   12  N7  UNL     1       1.598  21.358  -3.476  1.00  0.00    -0.387 N
ATOM     13  H72 UNL     1       1.707  22.352  -3.274  1.00  0.00     0.157 HD
ATOM     14  H71 UNL     1       1.465  20.637  -2.768  1.00  0.00     0.157 HD
BRANCH  11  15
HETATM   15  C14 UNL     1       1.442  19.526  -4.986  1.00  0.00     0.250 C
BRANCH  15  16
HETATM   16  N8  UNL     1       2.052  19.171  -6.273  1.00  0.00    -0.068 N
ATOM     17  H83 UNL     1       1.352  18.847  -6.942  1.00  0.00     0.275 HD
ATOM     18  H82 UNL     1       2.377  19.998  -6.774  1.00  0.00     0.275 HD
ATOM     19  H81 UNL     1       2.801  18.487  -6.155  1.00  0.00     0.275 HD
ENDBRANCH  15  16
BRANCH  15  20
HETATM   20  C15 UNL     1       0.007  19.082  -5.105  1.00  0.00     0.042 C
BRANCH  20  21
HETATM   21  C16 UNL     1      -0.436  18.262  -3.938  1.00  0.00     0.030 C
BRANCH  21  22
HETATM   22  C17 UNL     1      -1.835  17.672  -4.175  1.00  0.00     0.230 C
BRANCH  22  23
HETATM   23  N9  UNL     1      -2.421  18.446  -5.257  1.00  0.00    -0.079 N
ATOM     24  H93 UNL     1      -2.801  19.344  -4.955  1.00  0.00     0.274 HD
ATOM     25  H92 UNL     1      -1.731  18.816  -5.911  1.00  0.00     0.274 HD
ATOM     26  H91 UNL     1      -3.114  17.840  -5.696  1.00  0.00     0.274 HD
ENDBRANCH  22  23
ENDBRANCH  21  22
ENDBRANCH  20  21
ENDBRANCH  15  20
ENDBRANCH  11  15
ENDBRANCH   9  11
ENDBRANCH   6   9
BRANCH   3  27
HETATM   27  N1  UNL     1      -0.014  26.137  -6.497  1.00  0.00    -0.376 N
ATOM     28  H1  UNL     1       0.110  26.612  -5.602  1.00  0.00     0.161 HD
BRANCH  27  29
HETATM   29  C8  UNL     1      -0.127  26.896  -7.725  1.00  0.00     0.123 C
BRANCH  29  30
HETATM   30  C9  UNL     1       0.896  28.040  -7.604  1.00  0.00     0.039 C
BRANCH  30  31
HETATM   31  C10 UNL     1       0.250  29.234  -8.227  1.00  0.00     0.123 C
BRANCH  31  32
HETATM   32  N2  UNL     1      -0.638  29.974  -7.413  1.00  0.00    -0.367 N
HETATM   33  C11 UNL     1      -1.699  30.591  -7.666  1.00  0.00     0.196 C
HETATM   34  N3  UNL     1      -2.270  30.672  -8.956  1.00  0.00    -0.067 NA
HETATM   35  N4  UNL     1      -2.382  31.255  -6.607  1.00  0.00    -0.067 NA
ATOM     36  H2  UNL     1      -0.362  30.012  -6.431  1.00  0.00     0.161 HD
ENDBRANCH  31  32
ENDBRANCH  30  31
ENDBRANCH  29  30
ENDBRANCH  27  29
ENDBRANCH   3  27
BRANCH   1  37
HETATM   37  O1  UNL     1      -2.322  22.252  -7.741  1.00  0.00    -0.335 OA
BRANCH  37  38
HETATM   38  C4  UNL     1      -2.288  20.886  -8.126  1.00  0.00     0.177 C
BRANCH  38  39
HETATM   39  C3  UNL     1      -3.138  20.630  -9.340  1.00  0.00     0.026 C
BRANCH  39  40
HETATM   40  C2  UNL     1      -2.529  21.467 -10.476  1.00  0.00    -0.002 C
HETATM   41  C1  UNL     1      -3.662  22.216 -11.127  1.00  0.00     0.005 C
ENDBRANCH  39  40
ENDBRANCH  38  39
ENDBRANCH  37  38
ENDBRANCH   1  37
TORSDOF 17
ENDMDL