MODEL 4
REMARK VINA RESULT: -6.721427250      1.235      2.048
REMARK  16 active torsions:
REMARK  status: ('A' for Active; 'I' for Inactive)
REMARK    1  A    between atoms: N1_1  and  C1_5
REMARK    2  A    between atoms: C1_5  and  C2_6
REMARK    3  A    between atoms: C2_6  and  C3_7
REMARK    4  A    between atoms: C3_7  and  C4_8
REMARK    5  A    between atoms: C4_8  and  C5_9
REMARK    6  A    between atoms: C5_9  and  C6_10
REMARK    7  A    between atoms: C5_9  and  N3_16
REMARK    8  A    between atoms: C6_10  and  C7_11
REMARK    9  A    between atoms: C7_11  and  N2_12
REMARK   10  A    between atoms: N3_16  and  C8_18
REMARK   11  A    between atoms: C8_18  and  C9_19
REMARK   12  A    between atoms: C9_19  and  C10_20
REMARK   13  A    between atoms: C10_20  and  C11_21
REMARK   14  A    between atoms: C13_25  and  C14_26
REMARK   15  A    between atoms: C14_26  and  C15_27
REMARK   16  A    between atoms: C15_27  and  C16_28
ROOT
HETATM    1  C11 UNL     1      -1.257  22.337  -7.307  1.00  0.00     0.098 A
HETATM    2  N4  UNL     1      -0.929  23.691  -7.279  1.00  0.00    -0.348 N
ATOM      3  H4  UNL     1      -1.366  24.297  -7.973  1.00  0.00     0.166 HD
HETATM    4  C12 UNL     1      -0.095  24.250  -6.422  1.00  0.00     0.098 A
HETATM    5  C13 UNL     1       0.225  25.535  -6.442  1.00  0.00     0.009 C
HETATM    6  C19 UNL     1       0.501  23.415  -5.463  1.00  0.00     0.274 A
HETATM    7  O1  UNL     1       1.284  23.943  -4.652  1.00  0.00    -0.266 OA
HETATM    8  N7  UNL     1       0.193  22.113  -5.479  1.00  0.00    -0.287 N
ATOM      9  H7  UNL     1       0.627  21.508  -4.781  1.00  0.00     0.172 HD
HETATM   10  C20 UNL     1      -0.662  21.551  -6.366  1.00  0.00     0.274 A
HETATM   11  O2  UNL     1      -0.873  20.292  -6.281  1.00  0.00    -0.266 OA
ENDROOT
BRANCH   1  12
HETATM   12  C10 UNL     1      -2.103  21.932  -8.217  1.00  0.00     0.013 C
BRANCH  12  13
HETATM   13  C9  UNL     1      -1.933  20.802  -9.117  1.00  0.00     0.073 C
BRANCH  13  14
HETATM   14  C8  UNL     1      -3.287  20.143  -9.278  1.00  0.00     0.059 C
BRANCH  14  15
HETATM   15  N3  UNL     1      -3.676  19.773 -10.569  1.00  0.00    -0.397 N
ATOM     16  H3  UNL     1      -4.407  19.077 -10.722  1.00  0.00     0.159 HD
BRANCH  15  17
HETATM   17  C5  UNL     1      -3.001  20.417 -11.692  1.00  0.00     0.082 C
BRANCH  17  18
HETATM   18  C4  UNL     1      -3.831  21.544 -12.163  1.00  0.00     0.025 C
BRANCH  18  19
HETATM   19  C3  UNL     1      -3.378  22.919 -11.909  1.00  0.00     0.004 C
BRANCH  19  20
HETATM   20  C2  UNL     1      -2.903  23.840 -12.939  1.00  0.00     0.027 C
BRANCH  20  21
HETATM   21  C1  UNL     1      -2.040  23.243 -14.005  1.00  0.00     0.229 C
BRANCH  21  22
HETATM   22  N1  UNL     1      -1.065  24.241 -14.450  1.00  0.00    -0.079 N
ATOM     23  H13 UNL     1      -1.343  25.191 -14.204  1.00  0.00     0.274 HD
ATOM     24  H12 UNL     1      -0.198  24.202 -13.914  1.00  0.00     0.274 HD
ATOM     25  H11 UNL     1      -0.907  24.132 -15.452  1.00  0.00     0.274 HD
ENDBRANCH  21  22
ENDBRANCH  20  21
ENDBRANCH  19  20
ENDBRANCH  18  19
ENDBRANCH  17  18
BRANCH  17  26
HETATM   26  C6  UNL     1      -2.422  19.436 -12.613  1.00  0.00     0.052 C
BRANCH  26  27
HETATM   27  C7  UNL     1      -0.954  19.128 -12.436  1.00  0.00     0.231 C
BRANCH  27  28
HETATM   28  N2  UNL     1      -0.226  20.340 -12.775  1.00  0.00    -0.079 N
ATOM     29  H23 UNL     1      -0.688  20.898 -13.493  1.00  0.00     0.274 HD
ATOM     30  H22 UNL     1      -0.246  21.040 -12.034  1.00  0.00     0.274 HD
ATOM     31  H21 UNL     1       0.719  20.054 -13.033  1.00  0.00     0.274 HD
ENDBRANCH  27  28
ENDBRANCH  26  27
ENDBRANCH  17  26
ENDBRANCH  15  17
ENDBRANCH  14  15
ENDBRANCH  13  14
ENDBRANCH  12  13
ENDBRANCH   1  12
BRANCH   5  32
HETATM   32  C14 UNL     1      -0.321  26.464  -7.432  1.00  0.00     0.034 C
BRANCH  32  33
HETATM   33  C15 UNL     1       0.653  27.511  -7.927  1.00  0.00     0.045 C
BRANCH  33  34
HETATM   34  C16 UNL     1      -0.060  28.739  -8.271  1.00  0.00    -0.024 A
HETATM   35  C17 UNL     1       0.141  29.484  -9.404  1.00  0.00     0.115 A
HETATM   36  N5  UNL     1      -0.686  30.555  -9.340  1.00  0.00    -0.312 N
HETATM   37  N6  UNL     1      -1.380  30.486  -8.210  1.00  0.00    -0.312 N
ATOM     38  H5  UNL     1      -0.762  31.291 -10.042  1.00  0.00     0.186 HD
HETATM   39  C18 UNL     1      -1.017  29.372  -7.525  1.00  0.00     0.115 A
ATOM     40  H6  UNL     1      -2.078  31.164  -7.903  1.00  0.00     0.186 HD
ENDBRANCH  33  34
ENDBRANCH  32  33
ENDBRANCH   5  32
TORSDOF 16
ENDMDL