MODEL 3
REMARK VINA RESULT: -6.860819539      2.144      2.760
REMARK  14 active torsions:
REMARK  status: ('A' for Active; 'I' for Inactive)
REMARK       I    between atoms: C1_4  and  N3_6
REMARK    1  A    between atoms: N3_6  and  C2_8
REMARK    2  A    between atoms: C2_8  and  C3_9
REMARK    3  A    between atoms: C3_9  and  C4_10
REMARK    4  A    between atoms: C4_10  and  C5_11
REMARK    5  A    between atoms: C5_11  and  C6_12
REMARK    6  A    between atoms: C6_12  and  C7_13
REMARK       I    between atoms: C7_13  and  N4_15
REMARK    7  A    between atoms: N4_15  and  C8_17
REMARK    8  A    between atoms: C8_17  and  C9_18
REMARK    9  A    between atoms: C9_18  and  N5_19
REMARK   10  A    between atoms: C11_21  and  C12_22
REMARK   11  A    between atoms: C12_22  and  C13_23
REMARK   12  A    between atoms: C16_30  and  N8_31
REMARK   13  A    between atoms: C17_35  and  C18_36
REMARK   14  A    between atoms: C18_36  and  N9_37
ROOT
HETATM    1  N5  UNL     1      -0.354  21.129  -5.929  1.00  0.00     0.099 N
HETATM    2  C10 UNL     1      -0.216  19.784  -5.376  1.00  0.00     0.280 C
HETATM    3  C11 UNL     1       1.281  19.526  -5.245  1.00  0.00     0.052 C
HETATM    4  C16 UNL     1       1.842  20.911  -5.018  1.00  0.00     0.224 C
HETATM    5  C17 UNL     1       0.865  21.809  -5.778  1.00  0.00     0.278 C
ENDROOT
BRANCH   1   6
HETATM    6  C9  UNL     1      -0.867  20.955  -7.251  1.00  0.00     0.292 C
BRANCH   6   7
HETATM    7  C8  UNL     1      -2.021  21.838  -7.590  1.00  0.00     0.152 C
BRANCH   7   8
HETATM    8  N4  UNL     1      -1.522  23.157  -8.063  1.00  0.00    -0.359 N
HETATM    9  C7  UNL     1      -1.821  24.263  -7.277  1.00  0.00     0.217 C
HETATM   10  O1  UNL     1      -2.465  24.206  -6.233  1.00  0.00    -0.274 OA
ATOM     11  H4  UNL     1      -0.985  23.245  -8.924  1.00  0.00     0.162 HD
BRANCH   9  12
HETATM   12  C6  UNL     1      -1.321  25.624  -7.740  1.00  0.00     0.103 C
BRANCH  12  13
HETATM   13  C5  UNL     1       0.094  25.807  -7.345  1.00  0.00     0.009 C
BRANCH  13  14
HETATM   14  C4  UNL     1       0.632  27.162  -7.399  1.00  0.00     0.002 C
BRANCH  14  15
HETATM   15  C3  UNL     1      -0.168  28.384  -7.356  1.00  0.00     0.020 C
BRANCH  15  16
HETATM   16  C2  UNL     1      -0.238  29.209  -8.588  1.00  0.00     0.122 C
BRANCH  16  17
HETATM   17  N3  UNL     1      -0.591  30.578  -8.267  1.00  0.00    -0.365 N
HETATM   18  C1  UNL     1      -1.949  30.875  -7.922  1.00  0.00     0.181 C
HETATM   19  N1  UNL     1      -2.818  30.905  -8.905  1.00  0.00    -0.374 N
HETATM   20  N2  UNL     1      -2.411  31.141  -6.621  1.00  0.00    -0.064 NA
ATOM     21  H12 UNL     1      -3.785  31.117  -8.659  1.00  0.00     0.158 HD
ATOM     22  H11 UNL     1      -2.482  30.712  -9.848  1.00  0.00     0.158 HD
ATOM     23  H3  UNL     1       0.114  31.314  -8.286  1.00  0.00     0.162 HD
ENDBRANCH  16  17
ENDBRANCH  15  16
ENDBRANCH  14  15
ENDBRANCH  13  14
ENDBRANCH  12  13
ENDBRANCH   9  12
ENDBRANCH   7   8
ENDBRANCH   6   7
ENDBRANCH   1   6
BRANCH   5  24
HETATM   24  C18 UNL     1       0.792  23.081  -4.931  1.00  0.00     0.267 C
BRANCH  24  25
HETATM   25  N9  UNL     1       2.040  23.787  -4.836  1.00  0.00    -0.077 N
ATOM     26  H93 UNL     1       2.776  23.171  -4.492  1.00  0.00     0.274 HD
ATOM     27  H92 UNL     1       2.408  23.992  -5.765  1.00  0.00     0.274 HD
ATOM     28  H91 UNL     1       1.990  24.636  -4.274  1.00  0.00     0.274 HD
ENDBRANCH  24  25
ENDBRANCH   5  24
BRANCH   3  29
HETATM   29  C12 UNL     1       1.839  18.873  -6.470  1.00  0.00     0.067 C
BRANCH  29  30
HETATM   30  C13 UNL     1       2.053  17.416  -6.200  1.00  0.00     0.026 A
HETATM   31  C14 UNL     1       2.732  16.785  -5.191  1.00  0.00     0.114 A
HETATM   32  N6  UNL     1       2.666  15.431  -5.368  1.00  0.00    -0.360 N
HETATM   33  C15 UNL     1       1.949  15.225  -6.479  1.00  0.00     0.180 A
ATOM     34  H6  UNL     1       3.081  14.717  -4.769  1.00  0.00     0.166 HD
HETATM   35  N7  UNL     1       1.572  16.404  -6.993  1.00  0.00    -0.355 N
ATOM     36  H7  UNL     1       1.017  16.529  -7.839  1.00  0.00     0.166 HD
ENDBRANCH  29  30
ENDBRANCH   3  29
BRANCH   4  37
HETATM   37  N8  UNL     1       1.684  21.180  -3.585  1.00  0.00    -0.072 N
ATOM     38  H83 UNL     1       1.099  20.497  -3.105  1.00  0.00     0.274 HD
ATOM     39  H82 UNL     1       2.533  21.018  -3.044  1.00  0.00     0.274 HD
ATOM     40  H81 UNL     1       1.334  22.136  -3.518  1.00  0.00     0.274 HD
ENDBRANCH   4  37
TORSDOF 14
ENDMDL