MODEL 5
REMARK VINA RESULT: -5.791545625      1.639      3.290
REMARK  15 active torsions:
REMARK  status: ('A' for Active; 'I' for Inactive)
REMARK    1  A    between atoms: N1_1  and  C1_5
REMARK    2  A    between atoms: C1_5  and  C2_6
REMARK    3  A    between atoms: C2_6  and  C3_7
REMARK    4  A    between atoms: C3_7  and  N2_8
REMARK       I    between atoms: C4_10  and  N3_11
REMARK       I    between atoms: C4_10  and  N5_16
REMARK    5  A    between atoms: N3_11  and  N4_13
REMARK    6  A    between atoms: N5_16  and  C5_18
REMARK    7  A    between atoms: C5_18  and  C6_19
REMARK    8  A    between atoms: C6_19  and  C7_20
REMARK    9  A    between atoms: C7_20  and  C8_21
REMARK   10  A    between atoms: C8_21  and  C9_22
REMARK   11  A    between atoms: C9_22  and  C10_23
REMARK   12  A    between atoms: C10_23  and  C11_24
REMARK   13  A    between atoms: C11_24  and  N6_25
REMARK   14  A    between atoms: N6_25  and  S1_27
REMARK   15  A    between atoms: S1_27  and  N7_30
ROOT
HETATM    1  C6  UNL     1      -1.949  21.131  -7.443  1.00  0.00     0.020 C
ENDROOT
BRANCH   1   2
HETATM    2  C5  UNL     1      -0.706  21.519  -6.671  1.00  0.00     0.138 C
BRANCH   2   3
HETATM    3  N5  UNL     1      -0.381  22.916  -6.872  1.00  0.00    -0.225 N
HETATM    4  C4  UNL     1       0.564  23.619  -6.092  1.00  0.00     0.688 C
HETATM    5  N2  UNL     1       0.430  24.885  -5.808  1.00  0.00    -0.225 N
HETATM    6  N3  UNL     1       1.708  22.962  -5.584  1.00  0.00    -0.139 N
ATOM      7  H2  UNL     1       1.139  25.348  -5.241  1.00  0.00     0.177 HD
ATOM      8  H3  UNL     1       2.556  22.930  -6.149  1.00  0.00     0.205 HD
ATOM      9  H5  UNL     1      -0.861  23.419  -7.617  1.00  0.00     0.177 HD
BRANCH   5  10
HETATM   10  C3  UNL     1      -0.710  25.646  -6.283  1.00  0.00     0.139 C
BRANCH  10  11
HETATM   11  C2  UNL     1      -0.502  26.272  -7.619  1.00  0.00     0.047 C
BRANCH  11  12
HETATM   12  C1  UNL     1      -0.178  27.736  -7.548  1.00  0.00     0.231 C
BRANCH  12  13
HETATM   13  N1  UNL     1       1.243  27.939  -7.341  1.00  0.00    -0.079 N
ATOM     14  H13 UNL     1       1.486  27.930  -6.350  1.00  0.00     0.274 HD
ATOM     15  H12 UNL     1       1.787  27.130  -7.639  1.00  0.00     0.274 HD
ATOM     16  H11 UNL     1       1.558  28.794  -7.798  1.00  0.00     0.274 HD
ENDBRANCH  12  13
ENDBRANCH  11  12
ENDBRANCH  10  11
ENDBRANCH   5  10
BRANCH   6  17
HETATM   17  N4  UNL     1       1.704  22.357  -4.325  1.00  0.00    -0.331 N
ATOM     18  H42 UNL     1       1.457  21.369  -4.267  1.00  0.00     0.177 HD
ATOM     19  H41 UNL     1       1.939  22.880  -3.481  1.00  0.00     0.177 HD
ENDBRANCH   6  17
ENDBRANCH   2   3
ENDBRANCH   1   2
BRANCH   1  20
HETATM   20  C7  UNL     1      -1.710  19.766  -8.048  1.00  0.00     0.002 C
BRANCH  20  21
HETATM   21  C8  UNL     1      -0.795  18.980  -7.177  1.00  0.00     0.000 C
BRANCH  21  22
HETATM   22  C9  UNL     1      -1.411  17.870  -6.408  1.00  0.00     0.002 C
BRANCH  22  23
HETATM   23  C10 UNL     1      -1.606  18.147  -4.942  1.00  0.00     0.020 C
BRANCH  23  24
HETATM   24  C11 UNL     1      -0.337  18.590  -4.260  1.00  0.00     0.133 C
BRANCH  24  25
HETATM   25  N6  UNL     1       0.589  17.492  -4.072  1.00  0.00    -0.302 N
ATOM     26  H6  UNL     1       0.357  16.645  -3.553  1.00  0.00     0.173 HD
BRANCH  25  27
HETATM   27  S1  UNL     1       2.101  17.757  -4.803  1.00  0.00     0.325 S
HETATM   28  O1  UNL     1       3.173  17.095  -3.969  1.00  0.00    -0.182 OA
HETATM   29  O2  UNL     1       2.397  19.249  -4.720  1.00  0.00    -0.182 OA
BRANCH  27  30
HETATM   30  N7  UNL     1       2.228  17.197  -6.410  1.00  0.00    -0.201 N
HETATM   31  C12 UNL     1       1.751  15.905  -6.880  1.00  0.00     0.251 C
HETATM   32  C13 UNL     1       1.555  16.116  -8.347  1.00  0.00     0.244 C
HETATM   33  O3  UNL     1       0.829  15.476  -9.142  1.00  0.00    -0.271 OA
HETATM   34  N8  UNL     1       2.384  17.226  -8.685  1.00  0.00    -0.277 N
HETATM   35  C14 UNL     1       2.811  17.910  -7.509  1.00  0.00     0.340 C
ATOM     36  H8  UNL     1       2.637  17.495  -9.637  1.00  0.00     0.173 HD
HETATM   37  O4  UNL     1       3.545  18.920  -7.489  1.00  0.00    -0.246 OA
ENDBRANCH  27  30
ENDBRANCH  25  27
ENDBRANCH  24  25
ENDBRANCH  23  24
ENDBRANCH  22  23
ENDBRANCH  21  22
ENDBRANCH  20  21
ENDBRANCH   1  20
TORSDOF 15
ENDMDL