MODEL 5
REMARK VINA RESULT: -6.389505904      3.170      8.112
REMARK  15 active torsions:
REMARK  status: ('A' for Active; 'I' for Inactive)
REMARK    1  A    between atoms: C4_4  and  N1_5
REMARK    2  A    between atoms: C6_11  and  N3_12
REMARK       I    between atoms: N3_12  and  C7_14
REMARK    3  A    between atoms: C7_14  and  C8_16
REMARK    4  A    between atoms: C8_16  and  N4_17
REMARK    5  A    between atoms: N4_17  and  C9_20
REMARK    6  A    between atoms: C9_20  and  C10_21
REMARK    7  A    between atoms: C10_21  and  N5_22
REMARK    8  A    between atoms: N5_22  and  C11_24
REMARK    9  A    between atoms: C11_24  and  C12_25
REMARK   10  A    between atoms: C12_25  and  N6_26
REMARK   11  A    between atoms: N6_26  and  C13_29
REMARK   12  A    between atoms: C13_29  and  C14_30
REMARK   13  A    between atoms: C14_30  and  C15_31
REMARK   14  A    between atoms: C15_31  and  N7_32
REMARK   15  A    between atoms: N7_32  and  C16_34
ROOT
HETATM    1  N3  UNL     1       0.866  19.660  -5.017  1.00  0.00    -0.312 N
ATOM      2  H3  UNL     1       1.814  19.344  -4.816  1.00  0.00     0.170 HD
HETATM    3  C7  UNL     1      -0.119  18.712  -4.873  1.00  0.00     0.248 C
HETATM    4  O1  UNL     1      -1.339  18.943  -4.525  1.00  0.00    -0.271 OA
ENDROOT
BRANCH   3   5
HETATM    5  C8  UNL     1       0.239  17.266  -5.147  1.00  0.00     0.335 C
BRANCH   5   6
HETATM    6  N4  UNL     1       0.351  17.083  -6.562  1.00  0.00    -0.065 N
ATOM      7  H42 UNL     1      -0.393  16.482  -6.918  1.00  0.00     0.277 HD
ATOM      8  H41 UNL     1       0.121  17.939  -7.066  1.00  0.00     0.277 HD
BRANCH   6   9
HETATM    9  C9  UNL     1       1.653  16.586  -6.940  1.00  0.00     0.252 C
BRANCH   9  10
HETATM   10  C10 UNL     1       2.382  17.650  -7.730  1.00  0.00     0.141 C
BRANCH  10  11
HETATM   11  N5  UNL     1       1.787  17.875  -8.994  1.00  0.00    -0.418 N
ATOM     12  H5  UNL     1       1.486  18.800  -9.297  1.00  0.00     0.153 HD
BRANCH  11  13
HETATM   13  C11 UNL     1       1.637  16.710  -9.823  1.00  0.00     0.141 C
BRANCH  13  14
HETATM   14  C12 UNL     1       0.428  16.835 -10.734  1.00  0.00     0.251 C
BRANCH  14  15
HETATM   15  N6  UNL     1       0.197  18.165 -11.151  1.00  0.00    -0.074 N
ATOM     16  H62 UNL     1      -0.145  18.732 -10.376  1.00  0.00     0.277 HD
ATOM     17  H61 UNL     1       1.078  18.644 -11.335  1.00  0.00     0.277 HD
BRANCH  15  18
HETATM   18  C13 UNL     1      -0.679  18.267 -12.281  1.00  0.00     0.234 C
BRANCH  18  19
HETATM   19  C14 UNL     1      -2.074  18.611 -11.808  1.00  0.00     0.047 C
BRANCH  19  20
HETATM   20  C15 UNL     1      -2.084  19.715 -10.783  1.00  0.00     0.123 C
BRANCH  20  21
HETATM   21  N7  UNL     1      -2.713  19.283  -9.573  1.00  0.00    -0.368 N
ATOM     22  H7  UNL     1      -3.727  19.185  -9.526  1.00  0.00     0.161 HD
BRANCH  21  23
HETATM   23  C16 UNL     1      -1.909  18.991  -8.439  1.00  0.00     0.348 C
HETATM   24  O2  UNL     1      -0.724  19.441  -8.371  1.00  0.00    -0.284 OA
ENDBRANCH  21  23
ENDBRANCH  20  21
ENDBRANCH  19  20
ENDBRANCH  18  19
ENDBRANCH  15  18
ENDBRANCH  14  15
ENDBRANCH  13  14
ENDBRANCH  11  13
ENDBRANCH  10  11
ENDBRANCH   9  10
ENDBRANCH   6   9
ENDBRANCH   5   6
ENDBRANCH   3   5
BRANCH   1  25
HETATM   25  C6  UNL     1       0.755  20.871  -5.365  1.00  0.00     0.108 A
HETATM   26  N2  UNL     1      -0.144  21.377  -6.221  1.00  0.00    -0.339 N
HETATM   27  C5  UNL     1      -0.236  22.683  -6.572  1.00  0.00     0.087 A
ATOM     28  H2  UNL     1      -0.811  20.729  -6.639  1.00  0.00     0.167 HD
HETATM   29  C4  UNL     1      -1.181  23.167  -7.450  1.00  0.00     0.057 A
HETATM   30  C19 UNL     1       0.685  23.556  -5.993  1.00  0.00     0.061 A
HETATM   31  C3  UNL     1      -1.165  24.549  -7.718  1.00  0.00     0.056 A
HETATM   32  C2  UNL     1      -0.260  25.400  -7.147  1.00  0.00     0.008 A
HETATM   33  C1  UNL     1      -0.260  26.872  -7.450  1.00  0.00     0.068 C
HETATM   34  N8  UNL     1       0.632  24.862  -6.302  1.00  0.00    -0.358 N
ATOM     35  H8  UNL     1       1.314  25.485  -5.867  1.00  0.00     0.166 HD
HETATM   36  C18 UNL     1       1.622  23.066  -5.109  1.00  0.00     0.036 A
HETATM   37  C17 UNL     1       1.696  21.749  -4.769  1.00  0.00     0.051 A
BRANCH  29  38
HETATM   38  N1  UNL     1      -2.042  22.420  -7.980  1.00  0.00    -0.397 N
ATOM     39  H12 UNL     1      -2.971  22.294  -7.578  1.00  0.00     0.156 HD
ATOM     40  H11 UNL     1      -1.839  21.925  -8.849  1.00  0.00     0.156 HD
ENDBRANCH  29  38
ENDBRANCH   1  25
TORSDOF 15
ENDMDL