MODEL 4
REMARK VINA RESULT: -6.511714205      1.638      1.885
REMARK  15 active torsions:
REMARK  status: ('A' for Active; 'I' for Inactive)
REMARK    1  A    between atoms: N1_2  and  C2_4
REMARK    2  A    between atoms: C2_4  and  C3_5
REMARK    3  A    between atoms: C3_5  and  N2_6
REMARK    4  A    between atoms: N2_6  and  C4_9
REMARK    5  A    between atoms: C4_9  and  C5_10
REMARK    6  A    between atoms: C5_10  and  N3_11
REMARK    7  A    between atoms: N3_11  and  C6_13
REMARK    8  A    between atoms: C7_16  and  N5_17
REMARK    9  A    between atoms: N5_17  and  C8_19
REMARK   10  A    between atoms: C8_19  and  C9_20
REMARK   11  A    between atoms: C9_20  and  O1_21
REMARK   12  A    between atoms: O1_21  and  C10_22
REMARK   13  A    between atoms: C11_23  and  N6_24
REMARK       I    between atoms: N6_24  and  C12_26
REMARK   14  A    between atoms: C12_26  and  C13_28
REMARK   15  A    between atoms: C13_28  and  N7_29
ROOT
HETATM    1  C6  UNL     1      -1.071  23.293  -7.457  1.00  0.00     0.129 A
HETATM    2  N4  UNL     1      -2.000  22.500  -8.009  1.00  0.00    -0.175 N
ATOM      3  H4  UNL     1      -2.679  22.891  -8.663  1.00  0.00     0.186 HD
HETATM    4  C7  UNL     1      -2.042  21.224  -7.712  1.00  0.00     0.691 A
HETATM    5  N8  UNL     1      -1.213  20.657  -6.877  1.00  0.00    -0.190 N
ATOM      6  H8  UNL     1      -1.289  19.660  -6.678  1.00  0.00     0.184 HD
HETATM    7  C14 UNL     1      -0.244  21.404  -6.270  1.00  0.00     0.063 A
HETATM    8  C15 UNL     1       0.642  20.751  -5.400  1.00  0.00     0.031 A
HETATM    9  C16 UNL     1       1.665  21.484  -4.800  1.00  0.00     0.002 A
HETATM   10  C17 UNL     1       1.779  22.810  -5.093  1.00  0.00     0.001 A
HETATM   11  C18 UNL     1       0.872  23.447  -5.970  1.00  0.00     0.017 A
HETATM   12  C19 UNL     1      -0.128  22.705  -6.532  1.00  0.00     0.035 A
ENDROOT
BRANCH   4  13
HETATM   13  N5  UNL     1      -2.957  20.395  -8.355  1.00  0.00    -0.158 N
ATOM     14  H5  UNL     1      -3.641  19.824  -7.858  1.00  0.00     0.194 HD
BRANCH  13  15
HETATM   15  C8  UNL     1      -2.848  20.422  -9.702  1.00  0.00    -0.028 C
BRANCH  15  16
HETATM   16  C9  UNL     1      -2.741  20.455 -11.094  1.00  0.00     0.279 C
BRANCH  16  17
HETATM   17  O1  UNL     1      -2.295  21.553 -11.791  1.00  0.00    -0.349 OA
BRANCH  17  18
HETATM   18  C10 UNL     1      -3.075  22.693 -11.557  1.00  0.00     0.152 C
HETATM   19  C11 UNL     1      -3.174  23.632 -12.649  1.00  0.00     0.115 C
BRANCH  19  20
HETATM   20  N6  UNL     1      -3.732  23.387 -13.925  1.00  0.00    -0.334 N
HETATM   21  C12 UNL     1      -3.019  22.805 -14.976  1.00  0.00     0.247 C
HETATM   22  O2  UNL     1      -1.844  22.454 -14.994  1.00  0.00    -0.271 OA
ATOM     23  H6  UNL     1      -4.704  23.649 -14.087  1.00  0.00     0.168 HD
BRANCH  21  24
HETATM   24  C13 UNL     1      -3.838  22.560 -16.295  1.00  0.00     0.332 C
BRANCH  24  25
HETATM   25  N7  UNL     1      -5.198  22.916 -15.973  1.00  0.00    -0.071 N
ATOM     26  H73 UNL     1      -5.863  22.712 -16.718  1.00  0.00     0.274 HD
ATOM     27  H72 UNL     1      -5.623  22.317 -15.265  1.00  0.00     0.274 HD
ATOM     28  H71 UNL     1      -5.164  23.901 -15.711  1.00  0.00     0.274 HD
ENDBRANCH  24  25
ENDBRANCH  21  24
ENDBRANCH  19  20
ENDBRANCH  17  18
ENDBRANCH  16  17
ENDBRANCH  15  16
ENDBRANCH  13  15
ENDBRANCH   4  13
BRANCH   1  29
HETATM   29  N3  UNL     1      -0.912  24.516  -7.604  1.00  0.00    -0.373 N
ATOM     30  H3  UNL     1       0.017  24.732  -7.967  1.00  0.00     0.161 HD
BRANCH  29  31
HETATM   31  C5  UNL     1      -1.675  25.687  -7.401  1.00  0.00     0.148 C
BRANCH  31  32
HETATM   32  C4  UNL     1      -0.766  26.750  -6.714  1.00  0.00     0.251 C
BRANCH  32  33
HETATM   33  N2  UNL     1       0.362  27.000  -7.522  1.00  0.00    -0.072 N
ATOM     34  H22 UNL     1       0.228  26.600  -8.451  1.00  0.00     0.277 HD
ATOM     35  H21 UNL     1       1.155  26.443  -7.204  1.00  0.00     0.277 HD
BRANCH  33  36
HETATM   36  C3  UNL     1       0.721  28.343  -7.621  1.00  0.00     0.251 C
BRANCH  36  37
HETATM   37  C2  UNL     1       0.178  29.062  -8.855  1.00  0.00     0.140 C
BRANCH  37  38
HETATM   38  N1  UNL     1      -0.409  30.333  -8.538  1.00  0.00    -0.424 N
HETATM   39  C1  UNL     1      -0.971  30.561  -7.290  1.00  0.00     0.139 C
ATOM     40  H1  UNL     1      -0.413  31.075  -9.237  1.00  0.00     0.152 HD
ENDBRANCH  37  38
ENDBRANCH  36  37
ENDBRANCH  33  36
ENDBRANCH  32  33
ENDBRANCH  31  32
ENDBRANCH  29  31
ENDBRANCH   1  29
TORSDOF 15
ENDMDL