MODEL 5
REMARK VINA RESULT: -6.725488797     11.759     14.905
REMARK  20 active torsions:
REMARK  status: ('A' for Active; 'I' for Inactive)
REMARK    1  A    between atoms: C2_2  and  C4_4
REMARK    2  A    between atoms: C4_4  and  C5_6
REMARK    3  A    between atoms: C5_6  and  C6_7
REMARK    4  A    between atoms: C5_6  and  N1_11
REMARK    5  A    between atoms: C6_7  and  C7_8
REMARK    6  A    between atoms: N1_11  and  C8_13
REMARK    7  A    between atoms: C8_13  and  O4_14
REMARK    8  A    between atoms: C8_13  and  C9_16
REMARK    9  A    between atoms: C9_16  and  C10_17
REMARK   10  A    between atoms: C10_17  and  C11_18
REMARK   11  A    between atoms: C10_17  and  C18_25
REMARK   12  A    between atoms: C11_18  and  C12_19
REMARK       I    between atoms: C18_25  and  N2_27
REMARK   13  A    between atoms: N2_27  and  C19_29
REMARK   14  A    between atoms: C19_29  and  C21_31
REMARK   15  A    between atoms: C21_31  and  O6_32
REMARK   16  A    between atoms: C22_34  and  N3_35
REMARK   17  A    between atoms: C22_34  and  C30_46
REMARK   18  A    between atoms: N3_35  and  C23_37
REMARK   19  A    between atoms: C30_46  and  C31_48
REMARK   20  A    between atoms: C31_48  and  O8_51
ROOT
HETATM    1  C23 UNL     1       8.711  27.294   3.557  1.00  0.00     0.117 C
HETATM    2  C24 UNL     1       8.762  27.340   5.070  1.00  0.00     0.195 C
HETATM    3  O7  UNL     1       7.851  26.362   5.527  1.00  0.00    -0.369 OA
HETATM    4  C25 UNL     1       7.258  25.760   4.430  1.00  0.00     0.237 C
HETATM    5  C26 UNL     1       6.909  24.360   4.686  1.00  0.00     0.092 C
HETATM    6  N4  UNL     1       6.654  23.250   4.882  1.00  0.00    -0.194 NA
HETATM    7  C27 UNL     1       8.343  25.846   3.378  1.00  0.00     0.014 C
HETATM    8  C28 UNL     1       9.477  24.965   3.929  1.00  0.00     0.020 C
HETATM    9  C29 UNL     1       7.928  25.407   2.039  1.00  0.00     0.020 C
ENDROOT
BRANCH   1  10
HETATM   10  N3  UNL     1       7.975  28.291   3.026  1.00  0.00    -0.378 N
ATOM     11  H3  UNL     1       6.988  28.078   2.881  1.00  0.00     0.160 HD
BRANCH  10  12
HETATM   12  C22 UNL     1       8.371  29.564   2.648  1.00  0.00     0.102 C
HETATM   13  C21 UNL     1       9.001  30.611   3.402  1.00  0.00     0.117 C
BRANCH  13  14
HETATM   14  C19 UNL     1       8.302  31.600   4.243  1.00  0.00     0.043 C
HETATM   15  C20 UNL     1       8.590  33.064   3.964  1.00  0.00     0.071 C
BRANCH  14  16
HETATM   16  N2  UNL     1       8.235  31.367   5.670  1.00  0.00    -0.328 N
HETATM   17  C18 UNL     1       7.372  30.442   6.247  1.00  0.00     0.226 C
HETATM   18  O5  UNL     1       6.608  29.770   5.468  1.00  0.00    -0.273 OA
ATOM     19  H2  UNL     1       8.849  31.906   6.280  1.00  0.00     0.168 HD
BRANCH  17  20
HETATM   20  C10 UNL     1       7.272  30.182   7.673  1.00  0.00     0.082 C
BRANCH  20  21
HETATM   21  C9  UNL     1       8.143  29.111   8.243  1.00  0.00     0.067 C
BRANCH  21  22
HETATM   22  C8  UNL     1       9.039  29.627   9.351  1.00  0.00     0.214 C
BRANCH  22  23
HETATM   23  N1  UNL     1       8.410  29.794  10.585  1.00  0.00    -0.385 N
ATOM     24  H1  UNL     1       8.376  30.703  11.045  1.00  0.00     0.156 HD
BRANCH  23  25
HETATM   25  C5  UNL     1       7.810  28.623  11.182  1.00  0.00     0.159 C
BRANCH  25  26
HETATM   26  C4  UNL     1       8.713  27.818  11.996  1.00  0.00     0.153 C
HETATM   27  O1  UNL     1       8.735  26.597  11.855  1.00  0.00    -0.295 OA
BRANCH  26  28
HETATM   28  C2  UNL     1       9.667  28.290  13.027  1.00  0.00     0.049 C
HETATM   29  C1  UNL     1       9.640  27.608  14.347  1.00  0.00     0.017 C
HETATM   30  C3  UNL     1      11.113  28.204  12.484  1.00  0.00     0.017 C
ENDBRANCH  26  28
ENDBRANCH  25  26
BRANCH  25  31
HETATM   31  C6  UNL     1       6.525  29.050  11.903  1.00  0.00     0.145 C
BRANCH  31  32
HETATM   32  C7  UNL     1       6.576  30.424  12.384  1.00  0.00     0.174 C
HETATM   33  O2  UNL     1       5.689  31.223  11.916  1.00  0.00    -0.648 OA
HETATM   34  O3  UNL     1       7.448  30.986  13.276  1.00  0.00    -0.648 OA
ENDBRANCH  31  32
ENDBRANCH  25  31
ENDBRANCH  23  25
ENDBRANCH  22  23
BRANCH  22  35
HETATM   35  O4  UNL     1       9.460  30.914   8.844  1.00  0.00    -0.377 OA
ATOM     36  H4  UNL     1       9.378  30.925   7.897  1.00  0.00     0.212 HD
ENDBRANCH  22  35
ENDBRANCH  21  22
ENDBRANCH  20  21
BRANCH  20  37
HETATM   37  C11 UNL     1       5.831  30.143   8.154  1.00  0.00     0.018 C
BRANCH  37  38
HETATM   38  C12 UNL     1       5.189  31.520   8.111  1.00  0.00    -0.014 C
HETATM   39  C13 UNL     1       3.886  31.523   8.884  1.00  0.00     0.005 C
HETATM   40  C14 UNL     1       3.479  32.954   9.207  1.00  0.00     0.000 C
HETATM   41  C15 UNL     1       4.170  33.946   8.315  1.00  0.00     0.000 C
HETATM   42  C16 UNL     1       5.667  33.892   8.459  1.00  0.00     0.000 C
HETATM   43  C17 UNL     1       6.097  32.511   8.826  1.00  0.00     0.005 C
ENDBRANCH  37  38
ENDBRANCH  20  37
ENDBRANCH  17  20
ENDBRANCH  14  16
ENDBRANCH  13  14
BRANCH  13  44
HETATM   44  O6  UNL     1      10.255  30.244   3.981  1.00  0.00    -0.357 OA
ATOM     45  H6  UNL     1      10.863  30.973   3.965  1.00  0.00     0.218 HD
ENDBRANCH  13  44
BRANCH  12  46
HETATM   46  C30 UNL     1       8.823  29.424   1.180  1.00  0.00     0.156 C
HETATM   47  F1  UNL     1       9.960  30.065   0.869  1.00  0.00    -0.205 F
BRANCH  46  48
HETATM   48  C31 UNL     1       7.770  29.553   0.154  1.00  0.00     0.106 C
HETATM   49  C32 UNL     1       6.869  30.762   0.387  1.00  0.00     0.053 C
HETATM   50  C33 UNL     1       8.092  29.384  -1.270  1.00  0.00     0.053 C
BRANCH  48  51
HETATM   51  O8  UNL     1       6.867  28.453   0.460  1.00  0.00    -0.383 OA
ATOM     52  H8  UNL     1       6.096  28.654  -0.057  1.00  0.00     0.211 HD
ENDBRANCH  48  51
ENDBRANCH  46  48
ENDBRANCH  12  46
ENDBRANCH  10  12
ENDBRANCH   1  10
TORSDOF 20
ENDMDL