MODEL 4
REMARK VINA RESULT: -8.338157764      6.014     14.046
REMARK  21 active torsions:
REMARK  status: ('A' for Active; 'I' for Inactive)
REMARK    1  A    between atoms: C2_2  and  C4_4
REMARK    2  A    between atoms: C4_4  and  C5_5
REMARK    3  A    between atoms: C5_5  and  N3_11
REMARK    4  A    between atoms: N1_6  and  N2_8
REMARK    5  A    between atoms: N3_11  and  C6_13
REMARK    6  A    between atoms: C6_13  and  N4_14
REMARK    7  A    between atoms: C6_13  and  S2_34
REMARK    8  A    between atoms: N4_14  and  C7_16
REMARK    9  A    between atoms: C7_16  and  C8_17
REMARK   10  A    between atoms: C11_20  and  O1_21
REMARK   11  A    between atoms: C11_20  and  C12_23
REMARK   12  A    between atoms: C12_23  and  N5_24
REMARK   13  A    between atoms: N5_24  and  C13_26
REMARK   14  A    between atoms: S2_34  and  C18_37
REMARK   15  A    between atoms: C18_37  and  C19_38
REMARK   16  A    between atoms: C19_38  and  C20_39
REMARK   17  A    between atoms: C20_39  and  C21_40
REMARK   18  A    between atoms: C21_40  and  N7_41
REMARK       I    between atoms: N7_41  and  C22_43
REMARK       I    between atoms: C22_43  and  N8_45
REMARK   19  A    between atoms: N8_45  and  C23_47
REMARK   20  A    between atoms: C23_47  and  C24_48
REMARK   21  A    between atoms: C24_48  and  C25_49
ROOT
HETATM    1  C6  UNL     1      -3.542  22.085   8.492  1.00  0.00     0.309 C
ENDROOT
BRANCH   1   2
HETATM    2  N3  UNL     1      -3.849  20.630   8.519  1.00  0.00    -0.345 N
ATOM      3  H3  UNL     1      -3.166  19.943   8.839  1.00  0.00     0.163 HD
BRANCH   2   4
HETATM    4  C5  UNL     1      -5.175  20.235   8.065  1.00  0.00     0.093 C
HETATM    5  N1  UNL     1      -5.354  20.105   6.822  1.00  0.00    -0.296 N
ATOM      6  H1  UNL     1      -4.514  20.283   6.272  1.00  0.00     0.187 HD
BRANCH   4   7
HETATM    7  C4  UNL     1      -6.211  20.037   9.080  1.00  0.00     0.081 C
BRANCH   7   8
HETATM    8  C2  UNL     1      -6.090  18.751   9.840  1.00  0.00    -0.016 C
HETATM    9  C1  UNL     1      -5.632  18.994  11.267  1.00  0.00     0.010 C
HETATM   10  C3  UNL     1      -7.517  18.164   9.951  1.00  0.00     0.010 C
ENDBRANCH   7   8
ENDBRANCH   4   7
BRANCH   5  11
HETATM   11  N2  UNL     1      -6.426  19.780   6.069  1.00  0.00    -0.344 N
ATOM     12  H22 UNL     1      -6.680  20.527   5.423  1.00  0.00     0.176 HD
ATOM     13  H21 UNL     1      -7.022  18.953   6.017  1.00  0.00     0.176 HD
ENDBRANCH   5  11
ENDBRANCH   2   4
ENDBRANCH   1   2
BRANCH   1  14
HETATM   14  N4  UNL     1      -4.781  22.828   8.372  1.00  0.00    -0.358 N
ATOM     15  H4  UNL     1      -5.398  22.834   7.559  1.00  0.00     0.162 HD
BRANCH  14  16
HETATM   16  C7  UNL     1      -4.999  23.581   9.644  1.00  0.00     0.042 C
HETATM   17  C11 UNL     1      -4.381  24.858   9.627  1.00  0.00     0.083 C
BRANCH  16  18
HETATM   18  C8  UNL     1      -6.358  23.261  10.118  1.00  0.00     0.030 C
HETATM   19  C9  UNL     1      -7.431  24.291   9.848  1.00  0.00     0.016 C
HETATM   20  C10 UNL     1      -6.448  22.727  11.509  1.00  0.00     0.016 C
ENDBRANCH  16  18
BRANCH  17  21
HETATM   21  O1  UNL     1      -4.514  25.548  10.874  1.00  0.00    -0.361 OA
ATOM     22  H1  UNL     1      -3.821  26.182  11.014  1.00  0.00     0.217 HD
ENDBRANCH  17  21
BRANCH  17  23
HETATM   23  C12 UNL     1      -4.503  25.891   8.589  1.00  0.00     0.188 C
BRANCH  23  24
HETATM   24  N5  UNL     1      -3.216  26.392   8.152  1.00  0.00    -0.364 N
ATOM     25  H5  UNL     1      -2.557  25.712   7.775  1.00  0.00     0.162 HD
BRANCH  24  26
HETATM   26  C13 UNL     1      -2.796  27.727   8.202  1.00  0.00     0.141 C
HETATM   27  N6  UNL     1      -3.218  28.655   8.943  1.00  0.00    -0.349 N
HETATM   28  C14 UNL     1      -2.658  29.943   8.838  1.00  0.00     0.083 C
ATOM     29  H6  UNL     1      -3.963  28.474   9.616  1.00  0.00     0.167 HD
HETATM   30  C15 UNL     1      -2.097  30.191   7.455  1.00  0.00     0.040 C
HETATM   31  C16 UNL     1      -3.160  30.535   6.444  1.00  0.00     0.032 C
HETATM   32  C17 UNL     1      -0.935  31.128   7.423  1.00  0.00     0.032 C
HETATM   33  S1  UNL     1      -1.534  28.453   7.161  1.00  0.00    -0.079 SA
ENDBRANCH  24  26
ENDBRANCH  23  24
ENDBRANCH  17  23
ENDBRANCH  14  16
ENDBRANCH   1  14
BRANCH   1  34
HETATM   34  S2  UNL     1      -2.372  22.362   7.256  1.00  0.00     0.184 S
HETATM   35  O2  UNL     1      -2.787  23.650   6.517  1.00  0.00    -0.224 OA
HETATM   36  O3  UNL     1      -2.458  21.276   6.193  1.00  0.00    -0.224 OA
BRANCH  34  37
HETATM   37  C18 UNL     1      -0.690  22.642   7.711  1.00  0.00     0.144 C
BRANCH  37  38
HETATM   38  C19 UNL     1       0.010  21.379   8.002  1.00  0.00     0.017 C
BRANCH  38  39
HETATM   39  C20 UNL     1       1.465  21.300   7.724  1.00  0.00     0.021 C
BRANCH  39  40
HETATM   40  C21 UNL     1       1.985  22.229   6.708  1.00  0.00     0.124 C
BRANCH  40  41
HETATM   41  N7  UNL     1       3.375  22.490   6.750  1.00  0.00    -0.343 N
HETATM   42  C22 UNL     1       4.056  23.207   5.697  1.00  0.00     0.316 C
HETATM   43  O4  UNL     1       3.316  23.611   4.760  1.00  0.00    -0.247 OA
HETATM   44  N8  UNL     1       5.422  23.448   5.684  1.00  0.00    -0.343 N
ATOM     45  H8  UNL     1       5.988  23.098   6.457  1.00  0.00     0.164 HD
ATOM     46  H7  UNL     1       3.913  22.161   7.552  1.00  0.00     0.164 HD
BRANCH  44  47
HETATM   47  C23 UNL     1       6.070  24.171   4.630  1.00  0.00     0.129 C
BRANCH  47  48
HETATM   48  C24 UNL     1       7.571  24.229   4.726  1.00  0.00     0.061 C
BRANCH  48  49
HETATM   49  C25 UNL     1       8.161  25.449   4.143  1.00  0.00    -0.018 A
HETATM   50  C26 UNL     1       8.415  26.529   4.959  1.00  0.00     0.010 A
HETATM   51  C27 UNL     1       8.966  27.708   4.465  1.00  0.00     0.001 A
HETATM   52  C28 UNL     1       9.257  27.766   3.115  1.00  0.00     0.003 A
HETATM   53  C29 UNL     1       9.001  26.687   2.313  1.00  0.00     0.043 A
HETATM   54  C30 UNL     1       8.448  25.510   2.814  1.00  0.00     0.122 A
HETATM   55  F1  UNL     1       8.231  24.492   1.944  1.00  0.00    -0.206 F
ENDBRANCH  48  49
ENDBRANCH  47  48
ENDBRANCH  44  47
ENDBRANCH  40  41
ENDBRANCH  39  40
ENDBRANCH  38  39
ENDBRANCH  37  38
ENDBRANCH  34  37
ENDBRANCH   1  34
TORSDOF 21
ENDMDL