MODEL 3
REMARK VINA RESULT: -8.883265440      0.945      1.048
REMARK  22 active torsions:
REMARK  status: ('A' for Active; 'I' for Inactive)
REMARK    1  A    between atoms: N1_13  and  C13_14
REMARK    2  A    between atoms: C13_14  and  C14_15
REMARK    3  A    between atoms: C14_15  and  C15_16
REMARK    4  A    between atoms: C15_16  and  C16_17
REMARK    5  A    between atoms: C16_17  and  C17_18
REMARK    6  A    between atoms: C17_18  and  C18_19
REMARK    7  A    between atoms: C18_19  and  N2_20
REMARK    8  A    between atoms: N2_20  and  C19_22
REMARK    9  A    between atoms: C19_22  and  C20_23
REMARK   10  A    between atoms: C20_23  and  C21_24
REMARK   11  A    between atoms: C21_24  and  N3_25
REMARK   12  A    between atoms: C24_28  and  N4_29
REMARK       I    between atoms: N4_29  and  C25_31
REMARK   13  A    between atoms: C25_31  and  C26_33
REMARK   14  A    between atoms: C26_33  and  N5_34
REMARK   15  A    between atoms: C26_33  and  C27_38
REMARK   16  A    between atoms: C27_38  and  C28_39
REMARK   17  A    between atoms: C28_39  and  C29_40
REMARK   18  A    between atoms: C29_40  and  C30_41
REMARK   19  A    between atoms: C30_41  and  N6_42
REMARK   20  A    between atoms: C34_50  and  O2_51
REMARK   21  A    between atoms: C35_53  and  O3_54
REMARK   22  A    between atoms: C36_56  and  O4_57
ROOT
HETATM    1  C18 UNL     1       0.782  22.398   6.940  1.00  0.00     0.060 C
ENDROOT
BRANCH   1   2
HETATM    2  C17 UNL     1       0.419  21.264   7.790  1.00  0.00     0.044 C
BRANCH   2   3
HETATM    3  C16 UNL     1      -0.965  21.168   8.253  1.00  0.00     0.005 C
BRANCH   3   4
HETATM    4  C15 UNL     1      -2.146  21.221   7.390  1.00  0.00     0.005 C
BRANCH   4   5
HETATM    5  C14 UNL     1      -3.395  20.640   7.934  1.00  0.00     0.044 C
BRANCH   5   6
HETATM    6  C13 UNL     1      -4.491  21.666   8.208  1.00  0.00     0.064 C
BRANCH   6   7
HETATM    7  N1  UNL     1      -5.768  21.184   8.523  1.00  0.00    -0.360 N
HETATM    8  C12 UNL     1      -6.122  21.015   9.859  1.00  0.00     0.033 C
HETATM    9  C2  UNL     1      -7.202  20.033  10.172  1.00  0.00     0.028 C
HETATM   10  C11 UNL     1      -6.238  22.192  10.736  1.00  0.00    -0.006 A
HETATM   11  C1  UNL     1      -6.642  18.619  10.376  1.00  0.00     0.025 C
HETATM   12  C3  UNL     1      -8.088  20.411  11.329  1.00  0.00     0.018 C
HETATM   13  C36 UNL     1      -8.186  19.857   9.000  1.00  0.00     0.163 C
HETATM   14  C4  UNL     1      -7.545  20.179  12.693  1.00  0.00     0.006 C
HETATM   15  C5  UNL     1      -6.262  20.926  12.971  1.00  0.00     0.039 C
HETATM   16  C6  UNL     1      -6.286  22.181  12.137  1.00  0.00    -0.046 A
HETATM   17  C7  UNL     1      -6.377  23.328  12.879  1.00  0.00     0.008 A
HETATM   18  C8  UNL     1      -6.430  24.562  12.284  1.00  0.00     0.001 A
HETATM   19  C9  UNL     1      -6.386  24.602  10.912  1.00  0.00     0.001 A
HETATM   20  C10 UNL     1      -6.291  23.422  10.165  1.00  0.00     0.014 A
HETATM   21  C35 UNL     1      -7.579  19.170   7.825  1.00  0.00     0.178 C
HETATM   22  C34 UNL     1      -7.254  20.229   6.799  1.00  0.00     0.167 C
HETATM   23  C33 UNL     1      -6.759  21.436   7.552  1.00  0.00     0.162 C
BRANCH  13  24
HETATM   24  O4  UNL     1      -9.134  18.929   9.513  1.00  0.00    -0.392 OA
ATOM     25  H4  UNL     1      -8.769  18.089   9.258  1.00  0.00     0.210 HD
ENDBRANCH  13  24
BRANCH  21  26
HETATM   26  O3  UNL     1      -8.465  18.264   7.223  1.00  0.00    -0.390 OA
ATOM     27  H3  UNL     1      -8.900  17.787   7.920  1.00  0.00     0.210 HD
ENDBRANCH  21  26
BRANCH  22  28
HETATM   28  O2  UNL     1      -6.328  19.776   5.870  1.00  0.00    -0.391 OA
ATOM     29  H2  UNL     1      -6.603  18.966   5.457  1.00  0.00     0.210 HD
ENDBRANCH  22  28
ENDBRANCH   6   7
ENDBRANCH   5   6
ENDBRANCH   4   5
ENDBRANCH   3   4
ENDBRANCH   2   3
ENDBRANCH   1   2
BRANCH   1  30
HETATM   30  N2  UNL     1       2.092  22.900   6.944  1.00  0.00    -0.382 N
ATOM     31  H2  UNL     1       2.236  23.801   6.487  1.00  0.00     0.163 HD
BRANCH  30  32
HETATM   32  C19 UNL     1       3.198  22.306   7.497  1.00  0.00     0.062 C
BRANCH  32  33
HETATM   33  C20 UNL     1       4.369  22.033   6.595  1.00  0.00     0.074 C
BRANCH  33  34
HETATM   34  C21 UNL     1       4.512  23.030   5.503  1.00  0.00     0.277 C
BRANCH  34  35
HETATM   35  N3  UNL     1       5.756  23.804   5.592  1.00  0.00     0.091 N
HETATM   36  C22 UNL     1       5.602  24.924   4.659  1.00  0.00     0.274 C
HETATM   37  C23 UNL     1       6.754  25.876   4.672  1.00  0.00     0.058 C
HETATM   38  C24 UNL     1       8.049  25.082   4.427  1.00  0.00     0.121 C
HETATM   39  C31 UNL     1       8.139  23.928   5.371  1.00  0.00     0.221 C
HETATM   40  F1  UNL     1       9.223  23.135   5.192  1.00  0.00    -0.245 F
HETATM   41  C32 UNL     1       6.908  23.046   5.151  1.00  0.00     0.311 C
BRANCH  38  42
HETATM   42  N4  UNL     1       8.183  24.766   3.052  1.00  0.00    -0.352 N
HETATM   43  C25 UNL     1       8.726  25.540   2.018  1.00  0.00     0.248 C
HETATM   44  O1  UNL     1       9.176  26.685   2.275  1.00  0.00    -0.271 OA
ATOM     45  H4  UNL     1       7.836  23.847   2.777  1.00  0.00     0.163 HD
BRANCH  43  46
HETATM   46  C26 UNL     1       8.806  25.089   0.605  1.00  0.00     0.274 C
BRANCH  46  47
HETATM   47  N5  UNL     1       9.352  23.741   0.496  1.00  0.00    -0.067 N
ATOM     48  H53 UNL     1       9.171  23.198   1.340  1.00  0.00     0.275 HD
ATOM     49  H52 UNL     1       8.824  23.179  -0.171  1.00  0.00     0.275 HD
ATOM     50  H51 UNL     1      10.346  23.752   0.268  1.00  0.00     0.275 HD
ENDBRANCH  46  47
BRANCH  46  51
HETATM   51  C27 UNL     1       9.620  26.014  -0.239  1.00  0.00     0.042 C
BRANCH  51  52
HETATM   52  C28 UNL     1      10.584  25.344  -1.158  1.00  0.00     0.004 C
BRANCH  52  53
HETATM   53  C29 UNL     1      10.847  26.162  -2.388  1.00  0.00     0.027 C
BRANCH  53  54
HETATM   54  C30 UNL     1      10.460  27.601  -2.140  1.00  0.00     0.229 C
BRANCH  54  55
HETATM   55  N6  UNL     1       9.637  28.085  -3.269  1.00  0.00    -0.079 N
ATOM     56  H63 UNL     1       9.890  27.639  -4.151  1.00  0.00     0.274 HD
ATOM     57  H62 UNL     1       8.673  27.758  -3.213  1.00  0.00     0.274 HD
ATOM     58  H61 UNL     1       9.699  29.102  -3.317  1.00  0.00     0.274 HD
ENDBRANCH  54  55
ENDBRANCH  53  54
ENDBRANCH  52  53
ENDBRANCH  51  52
ENDBRANCH  46  51
ENDBRANCH  43  46
ENDBRANCH  38  42
ENDBRANCH  34  35
ENDBRANCH  33  34
ENDBRANCH  32  33
ENDBRANCH  30  32
ENDBRANCH   1  30
TORSDOF 22
ENDMDL