MODEL 3
REMARK VINA RESULT: -7.883964531      8.011     16.802
REMARK  21 active torsions:
REMARK  status: ('A' for Active; 'I' for Inactive)
REMARK    1  A    between atoms: C2_2  and  C3_3
REMARK    2  A    between atoms: C3_3  and  C4_4
REMARK    3  A    between atoms: C4_4  and  C5_5
REMARK    4  A    between atoms: C5_5  and  C6_6
REMARK    5  A    between atoms: C6_6  and  C7_7
REMARK    6  A    between atoms: C7_7  and  C8_8
REMARK    7  A    between atoms: C8_8  and  C9_9
REMARK    8  A    between atoms: C9_9  and  C10_10
REMARK    9  A    between atoms: C10_10  and  C11_11
REMARK   10  A    between atoms: C11_11  and  C12_12
REMARK   11  A    between atoms: C12_12  and  S1_13
REMARK   12  A    between atoms: S1_13  and  N1_16
REMARK   13  A    between atoms: N1_16  and  C13_18
REMARK   14  A    between atoms: C13_18  and  C14_19
REMARK   15  A    between atoms: C16_21  and  N2_22
REMARK       I    between atoms: N2_22  and  C17_23
REMARK   16  A    between atoms: C17_23  and  C18_25
REMARK   17  A    between atoms: C19_26  and  N3_27
REMARK       I    between atoms: N3_27  and  C20_29
REMARK   18  A    between atoms: C20_29  and  O5_31
REMARK   19  A    between atoms: O5_31  and  C21_32
REMARK   20  A    between atoms: C27_44  and  O8_45
REMARK   21  A    between atoms: C28_47  and  O9_48
ROOT
HETATM    1  C14 UNL     1       0.408  21.854   7.197  1.00  0.00     0.072 C
HETATM    2  C15 UNL     1      -0.325  21.106   8.419  1.00  0.00     0.137 C
HETATM    3  C16 UNL     1      -1.630  21.909   8.547  1.00  0.00     0.106 C
HETATM    4  C27 UNL     1      -1.238  23.358   8.366  1.00  0.00     0.233 C
HETATM    5  C28 UNL     1      -1.118  23.459   6.905  1.00  0.00     0.298 C
HETATM    6  O10 UNL     1      -0.227  22.507   6.401  1.00  0.00    -0.320 OA
ENDROOT
BRANCH   3   7
HETATM    7  N2  UNL     1      -2.673  21.408   8.130  1.00  0.00    -0.372 NA
HETATM    8  C17 UNL     1      -4.006  20.741   7.569  1.00  0.00     0.335 C
HETATM    9  O3  UNL     1      -4.007  20.072   6.913  1.00  0.00    -0.251 OA
BRANCH   8  10
HETATM   10  C18 UNL     1      -4.811  21.620   8.622  1.00  0.00     0.158 A
HETATM   11  C19 UNL     1      -5.256  21.015   9.741  1.00  0.00     0.136 A
HETATM   12  N4  UNL     1      -5.725  21.746  10.678  1.00  0.00    -0.293 N
HETATM   13  C25 UNL     1      -5.848  23.089  10.566  1.00  0.00     0.328 A
ATOM     14  H4  UNL     1      -6.020  21.299  11.546  1.00  0.00     0.172 HD
HETATM   15  O6  UNL     1      -6.337  23.790  11.538  1.00  0.00    -0.247 OA
HETATM   16  N5  UNL     1      -5.461  23.709   9.439  1.00  0.00    -0.274 N
HETATM   17  C26 UNL     1      -4.942  23.016   8.465  1.00  0.00     0.270 A
ATOM     18  H5  UNL     1      -5.574  24.718   9.346  1.00  0.00     0.173 HD
HETATM   19  O7  UNL     1      -4.549  23.483   7.318  1.00  0.00    -0.267 OA
BRANCH  11  20
HETATM   20  N3  UNL     1      -5.170  19.533   9.601  1.00  0.00    -0.287 N
HETATM   21  C20 UNL     1      -6.572  19.124   9.346  1.00  0.00     0.367 C
HETATM   22  O4  UNL     1      -6.851  17.956   9.209  1.00  0.00    -0.238 OA
ATOM     23  H3  UNL     1      -4.342  18.940   9.665  1.00  0.00     0.172 HD
BRANCH  21  24
HETATM   24  O5  UNL     1      -7.473  20.166   9.164  1.00  0.00    -0.294 OA
BRANCH  24  25
HETATM   25  C21 UNL     1      -8.191  20.512   8.026  1.00  0.00     0.061 C
HETATM   26  C22 UNL     1      -8.628  21.993   8.410  1.00  0.00     0.046 C
HETATM   27  C23 UNL     1      -7.691  20.541   6.670  1.00  0.00     0.046 C
HETATM   28  C24 UNL     1      -9.467  19.703   8.068  1.00  0.00     0.046 C
ENDBRANCH  24  25
ENDBRANCH  21  24
ENDBRANCH  11  20
ENDBRANCH   8  10
ENDBRANCH   3   7
BRANCH   4  29
HETATM   29  O8  UNL     1      -2.226  24.172   8.898  1.00  0.00    -0.384 OA
ATOM     30  H8  UNL     1      -2.142  25.046   8.537  1.00  0.00     0.210 HD
ENDBRANCH   4  29
BRANCH   1  31
HETATM   31  C13 UNL     1       1.783  21.909   7.774  1.00  0.00     0.132 C
BRANCH  31  32
HETATM   32  N1  UNL     1       2.455  23.074   7.375  1.00  0.00    -0.293 N
ATOM     33  H1  UNL     1       2.306  24.036   7.680  1.00  0.00     0.177 HD
BRANCH  32  34
HETATM   34  S1  UNL     1       3.569  22.477   6.263  1.00  0.00     0.230 S
HETATM   35  O1  UNL     1       3.088  21.179   5.625  1.00  0.00    -0.206 OA
HETATM   36  O2  UNL     1       4.679  21.916   7.347  1.00  0.00    -0.206 OA
BRANCH  34  37
HETATM   37  C12 UNL     1       4.453  23.565   5.294  1.00  0.00     0.163 C
BRANCH  37  38
HETATM   38  C11 UNL     1       5.924  23.137   5.570  1.00  0.00     0.017 C
BRANCH  38  39
HETATM   39  C10 UNL     1       6.754  24.317   5.252  1.00  0.00     0.001 C
BRANCH  39  40
HETATM   40  C9  UNL     1       8.173  23.970   5.178  1.00  0.00     0.000 C
BRANCH  40  41
HETATM   41  C8  UNL     1       9.097  24.780   4.321  1.00  0.00     0.000 C
BRANCH  41  42
HETATM   42  C7  UNL     1       8.703  25.283   3.016  1.00  0.00     0.000 C
BRANCH  42  43
HETATM   43  C6  UNL     1       8.855  26.824   2.892  1.00  0.00     0.000 C
BRANCH  43  44
HETATM   44  C5  UNL     1       9.314  27.516   4.090  1.00  0.00     0.000 C
BRANCH  44  45
HETATM   45  C4  UNL     1       8.581  28.490   4.863  1.00  0.00     0.000 C
BRANCH  45  46
HETATM   46  C3  UNL     1       7.534  28.044   5.808  1.00  0.00    -0.000 C
BRANCH  46  47
HETATM   47  C2  UNL     1       7.005  29.247   6.594  1.00  0.00    -0.005 C
HETATM   48  C1  UNL     1       7.454  29.032   8.055  1.00  0.00     0.005 C
ENDBRANCH  46  47
ENDBRANCH  45  46
ENDBRANCH  44  45
ENDBRANCH  43  44
ENDBRANCH  42  43
ENDBRANCH  41  42
ENDBRANCH  40  41
ENDBRANCH  39  40
ENDBRANCH  38  39
ENDBRANCH  37  38
ENDBRANCH  34  37
ENDBRANCH  32  34
ENDBRANCH  31  32
ENDBRANCH   1  31
BRANCH   5  49
HETATM   49  O9  UNL     1      -0.656  24.718   6.462  1.00  0.00    -0.368 OA
ATOM     50  H9  UNL     1      -0.352  24.716   5.562  1.00  0.00     0.212 HD
ENDBRANCH   5  49
TORSDOF 21
ENDMDL