MODEL 1
REMARK VINA RESULT: -8.504048776      0.000      0.000
REMARK  18 active torsions:
REMARK  status: ('A' for Active; 'I' for Inactive)
REMARK    1  A    between atoms: O1_2  and  C2_3
REMARK    2  A    between atoms: C2_3  and  C3_4
REMARK    3  A    between atoms: C3_4  and  N1_5
REMARK    4  A    between atoms: N1_5  and  C4_8
REMARK    5  A    between atoms: C4_8  and  C5_9
REMARK    6  A    between atoms: C5_9  and  C6_10
REMARK    7  A    between atoms: C6_10  and  C7_11
REMARK    8  A    between atoms: C7_11  and  C8_12
REMARK    9  A    between atoms: C8_12  and  C9_13
REMARK   10  A    between atoms: C9_13  and  O2_14
REMARK   11  A    between atoms: O2_14  and  C10_15
REMARK   12  A    between atoms: C11_16  and  O3_17
REMARK   13  A    between atoms: C15_21  and  N2_22
REMARK   14  A    between atoms: N2_22  and  C16_23
REMARK   15  A    between atoms: C16_23  and  C17_24
REMARK   16  A    between atoms: C23_32  and  N4_33
REMARK   17  A    between atoms: C25_35  and  N5_36
REMARK       I    between atoms: N5_36  and  C26_38
REMARK   18  A    between atoms: C28_44  and  N8_45
REMARK       I    between atoms: N8_45  and  C29_47
ROOT
HETATM    1  C10 UNL     1      -1.024  22.911   6.862  1.00  0.00     0.143 A
HETATM    2  C11 UNL     1      -2.063  22.031   6.998  1.00  0.00     0.105 A
HETATM    3  C13 UNL     1      -3.249  22.547   7.491  1.00  0.00     0.058 A
HETATM    4  C14 UNL     1      -3.423  23.866   7.837  1.00  0.00     0.056 A
HETATM    5  C15 UNL     1      -4.646  24.346   8.321  1.00  0.00     0.205 A
HETATM    6  N3  UNL     1      -4.755  25.694   8.631  1.00  0.00    -0.163 N
ATOM      7  H3  UNL     1      -5.635  26.071   8.986  1.00  0.00     0.187 HD
HETATM    8  C23 UNL     1      -3.704  26.493   8.464  1.00  0.00     0.683 A
HETATM    9  N10 UNL     1      -2.540  26.056   8.012  1.00  0.00    -0.188 N
ATOM     10  H10 UNL     1      -1.761  26.706   7.902  1.00  0.00     0.184 HD
HETATM   11  C31 UNL     1      -2.382  24.747   7.695  1.00  0.00     0.105 A
HETATM   12  C32 UNL     1      -1.182  24.261   7.208  1.00  0.00     0.180 A
HETATM   13  F1  UNL     1      -0.138  25.096   7.062  1.00  0.00    -0.201 F
ENDROOT
BRANCH   8  14
HETATM   14  N4  UNL     1      -3.859  27.919   8.780  1.00  0.00    -0.214 N
HETATM   15  C24 UNL     1      -4.394  28.228  10.077  1.00  0.00     0.166 C
HETATM   16  C25 UNL     1      -3.978  29.536  10.623  1.00  0.00     0.104 C
HETATM   17  C27 UNL     1      -3.855  30.614   9.562  1.00  0.00     0.053 C
HETATM   18  C28 UNL     1      -2.988  30.178   8.452  1.00  0.00     0.106 C
HETATM   19  C30 UNL     1      -3.497  28.905   7.838  1.00  0.00     0.166 C
BRANCH  16  20
HETATM   20  N5  UNL     1      -4.928  30.039  11.588  1.00  0.00    -0.359 N
HETATM   21  C26 UNL     1      -4.527  30.220  12.918  1.00  0.00     0.182 C
HETATM   22  N6  UNL     1      -4.489  31.394  13.465  1.00  0.00    -0.374 N
HETATM   23  N7  UNL     1      -4.147  29.105  13.691  1.00  0.00    -0.064 NA
ATOM     24  H62 UNL     1      -4.764  32.201  12.906  1.00  0.00     0.158 HD
ATOM     25  H61 UNL     1      -4.197  31.526  14.433  1.00  0.00     0.158 HD
ATOM     26  H5  UNL     1      -5.882  30.261  11.304  1.00  0.00     0.162 HD
ENDBRANCH  16  20
BRANCH  18  27
HETATM   27  N8  UNL     1      -1.587  29.977   8.793  1.00  0.00    -0.339 N
HETATM   28  C29 UNL     1      -0.530  30.360   7.930  1.00  0.00     0.329 C
HETATM   29  N9  UNL     1       0.803  30.155   8.319  1.00  0.00    -0.040 NA
HETATM   30  O4  UNL     1      -0.832  30.888   6.824  1.00  0.00    -0.251 OA
ATOM     31  H8  UNL     1      -1.357  29.544   9.687  1.00  0.00     0.164 HD
ENDBRANCH  18  27
ENDBRANCH   8  14
BRANCH   5  32
HETATM   32  N2  UNL     1      -5.551  23.653   8.538  1.00  0.00    -0.398 NA
BRANCH  32  33
HETATM   33  C16 UNL     1      -6.584  22.854   8.793  1.00  0.00     0.196 C
BRANCH  33  34
HETATM   34  C17 UNL     1      -6.222  21.568   9.514  1.00  0.00    -0.007 A
HETATM   35  C18 UNL     1      -6.406  21.487  10.874  1.00  0.00     0.014 A
HETATM   36  C19 UNL     1      -6.106  20.332  11.561  1.00  0.00     0.001 A
HETATM   37  C20 UNL     1      -5.605  19.214  10.893  1.00  0.00     0.000 A
HETATM   38  C21 UNL     1      -5.437  19.343   9.531  1.00  0.00     0.001 A
HETATM   39  C22 UNL     1      -5.740  20.512   8.825  1.00  0.00     0.014 A
ENDBRANCH  33  34
ENDBRANCH  32  33
ENDBRANCH   5  32
BRANCH   1  40
HETATM   40  O2  UNL     1       0.194  22.488   6.381  1.00  0.00    -0.345 OA
BRANCH  40  41
HETATM   41  C9  UNL     1       1.279  21.966   7.053  1.00  0.00     0.176 C
BRANCH  41  42
HETATM   42  C8  UNL     1       2.422  22.984   6.911  1.00  0.00     0.027 C
BRANCH  42  43
HETATM   43  C7  UNL     1       3.370  22.474   5.879  1.00  0.00     0.002 C
BRANCH  43  44
HETATM   44  C6  UNL     1       4.809  22.463   6.342  1.00  0.00     0.002 C
BRANCH  44  45
HETATM   45  C5  UNL     1       5.698  23.429   5.677  1.00  0.00     0.027 C
BRANCH  45  46
HETATM   46  C4  UNL     1       5.115  24.286   4.642  1.00  0.00     0.232 C
BRANCH  46  47
HETATM   47  N1  UNL     1       5.935  25.115   3.833  1.00  0.00    -0.073 N
ATOM     48  H12 UNL     1       5.918  26.079   4.165  1.00  0.00     0.277 HD
ATOM     49  H11 UNL     1       5.519  25.249   2.911  1.00  0.00     0.277 HD
BRANCH  47  50
HETATM   50  C3  UNL     1       7.262  24.643   3.724  1.00  0.00     0.258 C
BRANCH  50  51
HETATM   51  C2  UNL     1       8.038  25.430   2.702  1.00  0.00     0.194 C
BRANCH  51  52
HETATM   52  O1  UNL     1       7.910  24.985   1.425  1.00  0.00    -0.394 OA
HETATM   53  C1  UNL     1       8.958  25.150   0.576  1.00  0.00     0.201 C
ENDBRANCH  51  52
ENDBRANCH  50  51
ENDBRANCH  47  50
ENDBRANCH  46  47
ENDBRANCH  45  46
ENDBRANCH  44  45
ENDBRANCH  43  44
ENDBRANCH  42  43
ENDBRANCH  41  42
ENDBRANCH  40  41
ENDBRANCH   1  40
BRANCH   2  54
HETATM   54  O3  UNL     1      -1.941  20.688   6.661  1.00  0.00    -0.353 OA
HETATM   55  C12 UNL     1      -3.095  19.975   6.248  1.00  0.00     0.210 C
ENDBRANCH   2  54
TORSDOF 18
ENDMDL