MODEL 5
REMARK VINA RESULT: -5.784591682      4.178      7.993
REMARK  24 active torsions:
REMARK  status: ('A' for Active; 'I' for Inactive)
REMARK    1  A    between atoms: C2_2  and  C3_3
REMARK    2  A    between atoms: C3_3  and  C4_4
REMARK    3  A    between atoms: C4_4  and  C5_5
REMARK       I    between atoms: C5_5  and  N1_7
REMARK    4  A    between atoms: N1_7  and  C6_8
REMARK    5  A    between atoms: C6_8  and  C7_9
REMARK    6  A    between atoms: C6_8  and  C14_17
REMARK    7  A    between atoms: C7_9  and  C8_10
REMARK    8  A    between atoms: C8_10  and  C9_11
REMARK    9  A    between atoms: C9_11  and  C10_12
REMARK   10  A    between atoms: C10_12  and  C11_13
REMARK   11  A    between atoms: C11_13  and  C12_14
REMARK   12  A    between atoms: C12_14  and  O2_15
REMARK   13  A    between atoms: C14_17  and  C15_19
REMARK   14  A    between atoms: C15_19  and  C16_20
REMARK   15  A    between atoms: C16_20  and  O4_21
REMARK   16  A    between atoms: C16_20  and  C17_23
REMARK   17  A    between atoms: C17_23  and  C18_24
REMARK   18  A    between atoms: C18_24  and  C19_25
REMARK   19  A    between atoms: C19_25  and  C20_26
REMARK   20  A    between atoms: C22_29  and  O5_30
REMARK   21  A    between atoms: C25_34  and  O6_35
REMARK   22  A    between atoms: C26_37  and  O7_38
REMARK   23  A    between atoms: C27_40  and  O8_41
REMARK   24  A    between atoms: C28_43  and  O9_44
ROOT
HETATM    1  C15 UNL     1       8.845  29.864   1.115  1.00  0.00     0.084 C
HETATM    2  C22 UNL     1       7.980  29.169   0.143  1.00  0.00     0.138 C
HETATM    3  C23 UNL     1       7.988  29.516  -1.289  1.00  0.00     0.041 C
HETATM    4  C24 UNL     1       9.106  30.293  -1.846  1.00  0.00     0.031 C
HETATM    5  C25 UNL     1       8.733  30.838  -3.195  1.00  0.00     0.154 C
HETATM    6  C26 UNL     1       8.064  32.151  -3.249  1.00  0.00     0.178 C
HETATM    7  C27 UNL     1       8.743  33.073  -2.286  1.00  0.00     0.178 C
HETATM    8  C28 UNL     1       8.668  32.423  -0.895  1.00  0.00     0.159 C
HETATM    9  C29 UNL     1       9.547  31.301  -0.852  1.00  0.00     0.004 C
HETATM   10  C30 UNL     1      10.907  31.854  -0.778  1.00  0.00     0.018 C
HETATM   11  C31 UNL     1      10.747  31.599   0.762  1.00  0.00    -0.007 C
HETATM   12  C32 UNL     1      12.138  31.585   1.238  1.00  0.00     0.011 C
HETATM   13  C33 UNL     1       9.975  30.450   0.329  1.00  0.00    -0.011 C
HETATM   14  C34 UNL     1      10.861  29.323  -0.114  1.00  0.00     0.018 C
ENDROOT
BRANCH   1  15
HETATM   15  C14 UNL     1       9.150  28.865   2.178  1.00  0.00     0.176 C
HETATM   16  O3  UNL     1      10.042  29.067   2.971  1.00  0.00    -0.293 OA
BRANCH  15  17
HETATM   17  C6  UNL     1       8.596  27.564   2.484  1.00  0.00     0.237 C
BRANCH  17  18
HETATM   18  N1  UNL     1       8.708  26.494   1.625  1.00  0.00    -0.402 NA
HETATM   19  C5  UNL     1       8.811  25.406   0.780  1.00  0.00     0.287 C
HETATM   20  O1  UNL     1       8.561  24.234   0.854  1.00  0.00    -0.258 OA
BRANCH  19  21
HETATM   21  C4  UNL     1       9.420  26.086  -0.522  1.00  0.00     0.119 C
BRANCH  21  22
HETATM   22  C3  UNL     1      10.448  25.231  -1.122  1.00  0.00     0.010 C
BRANCH  22  23
HETATM   23  C2  UNL     1      11.197  26.153  -2.122  1.00  0.00    -0.004 C
HETATM   24  C1  UNL     1      10.228  26.930  -2.959  1.00  0.00     0.005 C
ENDBRANCH  22  23
ENDBRANCH  21  22
ENDBRANCH  19  21
ENDBRANCH  17  18
BRANCH  17  25
HETATM   25  C7  UNL     1       9.243  27.157   3.799  1.00  0.00     0.047 C
BRANCH  25  26
HETATM   26  C8  UNL     1       8.293  26.374   4.692  1.00  0.00     0.004 C
BRANCH  26  27
HETATM   27  C9  UNL     1       8.840  24.940   4.631  1.00  0.00     0.000 C
BRANCH  27  28
HETATM   28  C10 UNL     1       7.755  23.905   4.607  1.00  0.00     0.002 C
BRANCH  28  29
HETATM   29  C11 UNL     1       6.405  24.561   4.318  1.00  0.00     0.026 C
BRANCH  29  30
HETATM   30  C12 UNL     1       5.286  23.897   5.078  1.00  0.00     0.167 C
BRANCH  30  31
HETATM   31  O2  UNL     1       4.026  24.190   4.543  1.00  0.00    -0.396 OA
HETATM   32  C13 UNL     1       3.027  23.584   5.291  1.00  0.00     0.201 C
ENDBRANCH  30  31
ENDBRANCH  29  30
ENDBRANCH  28  29
ENDBRANCH  27  28
ENDBRANCH  26  27
ENDBRANCH  25  26
ENDBRANCH  17  25
ENDBRANCH  15  17
ENDBRANCH   1  15
BRANCH   1  33
HETATM   33  C16 UNL     1       8.273  30.941   2.020  1.00  0.00     0.137 C
BRANCH  33  34
HETATM   34  O4  UNL     1       9.317  31.160   2.980  1.00  0.00    -0.394 OA
ATOM     35  H4  UNL     1       8.847  31.270   3.798  1.00  0.00     0.210 HD
ENDBRANCH  33  34
BRANCH  33  36
HETATM   36  C17 UNL     1       7.039  30.714   2.753  1.00  0.00     0.033 C
BRANCH  36  37
HETATM   37  C18 UNL     1       7.101  31.132   4.247  1.00  0.00     0.004 C
BRANCH  37  38
HETATM   38  C19 UNL     1       7.009  29.858   5.087  1.00  0.00     0.020 C
BRANCH  38  39
HETATM   39  C20 UNL     1       8.001  29.775   6.171  1.00  0.00     0.078 C
HETATM   40  C21 UNL     1       7.372  28.980   7.330  1.00  0.00     0.026 C
HETATM   41 CL1  UNL     1       8.428  31.379   6.768  1.00  0.00    -0.125 Cl
ENDBRANCH  38  39
ENDBRANCH  37  38
ENDBRANCH  36  37
ENDBRANCH  33  36
ENDBRANCH   1  33
BRANCH   2  42
HETATM   42  O5  UNL     1       6.684  28.838   0.533  1.00  0.00    -0.394 OA
ATOM     43  H5  UNL     1       6.006  29.496   0.442  1.00  0.00     0.210 HD
ENDBRANCH   2  42
BRANCH   8  44
HETATM   44  O9  UNL     1       7.279  32.285  -0.869  1.00  0.00    -0.392 OA
ATOM     45  H9  UNL     1       7.098  33.148  -0.515  1.00  0.00     0.210 HD
ENDBRANCH   8  44
BRANCH   5  46
HETATM   46  O6  UNL     1       9.871  30.884  -4.047  1.00  0.00    -0.393 OA
ATOM     47  H6  UNL     1      10.102  30.011  -4.342  1.00  0.00     0.210 HD
ENDBRANCH   5  46
BRANCH   7  48
HETATM   48  O8  UNL     1       9.954  33.427  -2.755  1.00  0.00    -0.390 OA
ATOM     49  H8  UNL     1      10.627  33.221  -2.117  1.00  0.00     0.210 HD
ENDBRANCH   7  48
BRANCH   6  50
HETATM   50  O7  UNL     1       6.708  32.145  -3.169  1.00  0.00    -0.390 OA
ATOM     51  H7  UNL     1       6.234  32.021  -3.983  1.00  0.00     0.210 HD
ENDBRANCH   6  50
TORSDOF 24
ENDMDL