MODEL 1
REMARK VINA RESULT: -8.914190209      0.000      0.000
REMARK  21 active torsions:
REMARK  status: ('A' for Active; 'I' for Inactive)
REMARK    1  A    between atoms: C2_2  and  C3_3
REMARK    2  A    between atoms: C3_3  and  N1_4
REMARK       I    between atoms: N1_4  and  C4_6
REMARK    3  A    between atoms: C4_6  and  C5_8
REMARK    4  A    between atoms: C5_8  and  C6_9
REMARK    5  A    between atoms: C5_8  and  C13_16
REMARK    6  A    between atoms: C6_9  and  C7_10
REMARK    7  A    between atoms: C13_16  and  C14_17
REMARK    8  A    between atoms: C14_17  and  O2_18
REMARK    9  A    between atoms: C14_17  and  C15_20
REMARK   10  A    between atoms: C15_20  and  O3_21
REMARK   11  A    between atoms: C15_20  and  C16_23
REMARK   12  A    between atoms: C16_23  and  O4_24
REMARK   13  A    between atoms: C16_23  and  C17_26
REMARK   14  A    between atoms: C17_26  and  O5_27
REMARK   15  A    between atoms: C17_26  and  C18_29
REMARK   16  A    between atoms: C20_34  and  N3_35
REMARK   17  A    between atoms: N3_35  and  C21_37
REMARK   18  A    between atoms: C21_37  and  C22_38
REMARK   19  A    between atoms: C21_37  and  C26_42
REMARK   20  A    between atoms: C22_38  and  C23_39
REMARK   21  A    between atoms: C27_44  and  S1_45
ROOT
HETATM    1  C16 UNL     1       6.346  24.431   5.291  1.00  0.00     0.181 C
ENDROOT
BRANCH   1   2
HETATM    2  C15 UNL     1       7.353  24.871   4.299  1.00  0.00     0.178 C
BRANCH   2   3
HETATM    3  C14 UNL     1       8.756  24.947   4.895  1.00  0.00     0.150 C
BRANCH   3   4
HETATM    4  C13 UNL     1       9.640  25.844   4.062  1.00  0.00     0.048 C
BRANCH   4   5
HETATM    5  C5  UNL     1       8.964  27.003   3.447  1.00  0.00     0.081 C
BRANCH   5   6
HETATM    6  C4  UNL     1       9.076  26.901   1.964  1.00  0.00     0.222 C
HETATM    7  N1  UNL     1       9.272  25.704   1.272  1.00  0.00    -0.357 N
ATOM      8  H1  UNL     1       9.337  24.827   1.788  1.00  0.00     0.162 HD
HETATM    9  O1  UNL     1       8.991  27.973   1.313  1.00  0.00    -0.273 OA
BRANCH   7  10
HETATM   10  C3  UNL     1       9.382  25.696  -0.165  1.00  0.00     0.149 C
BRANCH  10  11
HETATM   11  C2  UNL     1       9.703  24.310  -0.641  1.00  0.00    -0.018 C
HETATM   12  C1  UNL     1      10.073  24.137  -1.908  1.00  0.00     0.008 C
ENDBRANCH  10  11
ENDBRANCH   7  10
ENDBRANCH   5   6
BRANCH   5  13
HETATM   13  C6  UNL     1       9.159  28.348   3.985  1.00  0.00     0.018 C
BRANCH  13  14
HETATM   14  C7  UNL     1       8.094  29.092   4.671  1.00  0.00    -0.014 C
HETATM   15  C8  UNL     1       7.975  28.473   6.071  1.00  0.00     0.005 C
HETATM   16  C9  UNL     1       6.937  29.173   6.893  1.00  0.00     0.000 C
HETATM   17  C10 UNL     1       7.370  30.613   7.059  1.00  0.00     0.000 C
HETATM   18  C11 UNL     1       7.302  31.231   5.685  1.00  0.00     0.000 C
HETATM   19  C12 UNL     1       8.286  30.548   4.734  1.00  0.00     0.005 C
ENDBRANCH  13  14
ENDBRANCH   5  13
ENDBRANCH   4   5
ENDBRANCH   3   4
BRANCH   3  20
HETATM   20  O2  UNL     1       9.334  23.658   4.782  1.00  0.00    -0.393 OA
ATOM     21  H2  UNL     1       8.889  23.132   5.436  1.00  0.00     0.210 HD
ENDBRANCH   3  20
ENDBRANCH   2   3
BRANCH   2  22
HETATM   22  O3  UNL     1       7.423  24.170   3.125  1.00  0.00    -0.390 OA
ATOM     23  H3  UNL     1       6.553  24.143   2.742  1.00  0.00     0.210 HD
ENDBRANCH   2  22
ENDBRANCH   1   2
BRANCH   1  24
HETATM   24  O4  UNL     1       6.937  23.547   6.193  1.00  0.00    -0.390 OA
ATOM     25  H4  UNL     1       7.077  23.988   7.023  1.00  0.00     0.210 HD
ENDBRANCH   1  24
BRANCH   1  26
HETATM   26  C17 UNL     1       5.127  23.847   4.677  1.00  0.00     0.182 C
BRANCH  26  27
HETATM   27  O5  UNL     1       4.657  24.678   3.657  1.00  0.00    -0.390 OA
ATOM     28  H5  UNL     1       3.749  24.477   3.464  1.00  0.00     0.210 HD
ENDBRANCH  26  27
BRANCH  26  29
HETATM   29  C18 UNL     1       3.966  23.794   5.680  1.00  0.00     0.178 C
HETATM   30  N2  UNL     1       2.760  24.053   4.917  1.00  0.00    -0.343 N
HETATM   31  C19 UNL     1       1.434  24.013   5.359  1.00  0.00     0.248 C
ATOM     32  H2  UNL     1       2.896  24.294   3.934  1.00  0.00     0.163 HD
HETATM   33  O6  UNL     1       0.609  24.133   4.381  1.00  0.00    -0.271 OA
HETATM   34  C20 UNL     1       0.853  23.862   6.720  1.00  0.00     0.245 C
HETATM   35  C29 UNL     1       1.295  22.570   7.333  1.00  0.00     0.167 C
HETATM   36  O7  UNL     1       0.495  21.673   7.470  1.00  0.00    -0.294 OA
HETATM   37  C30 UNL     1       2.663  22.250   7.810  1.00  0.00     0.157 C
HETATM   38  S2  UNL     1       3.823  22.138   6.397  1.00  0.00    -0.134 SA
BRANCH  34  39
HETATM   39  N3  UNL     1      -0.565  23.938   6.586  1.00  0.00    -0.372 N
ATOM     40  H3  UNL     1      -1.092  23.237   6.063  1.00  0.00     0.160 HD
BRANCH  39  41
HETATM   41  C21 UNL     1      -1.214  25.047   7.221  1.00  0.00     0.045 C
BRANCH  41  42
HETATM   42  C22 UNL     1      -1.210  26.323   6.482  1.00  0.00     0.064 C
BRANCH  42  43
HETATM   43  C23 UNL     1      -1.568  27.576   7.140  1.00  0.00    -0.017 C
HETATM   44  C24 UNL     1      -2.587  28.456   6.465  1.00  0.00     0.010 C
HETATM   45  C25 UNL     1      -0.440  28.474   7.588  1.00  0.00     0.010 C
ENDBRANCH  42  43
ENDBRANCH  41  42
BRANCH  41  46
HETATM   46  C26 UNL     1      -2.472  24.626   7.849  1.00  0.00     0.144 C
HETATM   47  F1  UNL     1      -2.789  25.231   9.049  1.00  0.00    -0.204 F
HETATM   48  C27 UNL     1      -3.347  23.766   7.374  1.00  0.00     0.088 C
BRANCH  48  49
HETATM   49  S1  UNL     1      -4.823  23.393   8.303  1.00  0.00    -0.143 SA
HETATM   50  C28 UNL     1      -4.932  21.597   8.606  1.00  0.00     0.095 C
ENDBRANCH  48  49
ENDBRANCH  41  46
ENDBRANCH  39  41
ENDBRANCH  34  39
ENDBRANCH  26  29
ENDBRANCH   1  26
TORSDOF 21
ENDMDL