MODEL 5
REMARK VINA RESULT: -7.377106474      1.925      3.675
REMARK  22 active torsions:
REMARK  status: ('A' for Active; 'I' for Inactive)
REMARK       I    between atoms: C2_2  and  N1_4
REMARK    1  A    between atoms: N1_4  and  C3_6
REMARK    2  A    between atoms: C3_6  and  C4_7
REMARK    3  A    between atoms: C4_7  and  N2_8
REMARK    4  A    between atoms: N2_8  and  C5_9
REMARK    5  A    between atoms: N2_8  and  C17_25
REMARK    6  A    between atoms: C5_9  and  C6_10
REMARK    7  A    between atoms: C6_10  and  N3_11
REMARK       I    between atoms: N3_11  and  C7_13
REMARK    8  A    between atoms: C7_13  and  C8_15
REMARK    9  A    between atoms: C8_15  and  C9_16
REMARK   10  A    between atoms: C9_16  and  C10_17
REMARK   11  A    between atoms: C10_17  and  C11_18
REMARK   12  A    between atoms: C11_18  and  C12_19
REMARK   13  A    between atoms: C12_19  and  C13_20
REMARK   14  A    between atoms: C13_20  and  C14_21
REMARK   15  A    between atoms: C14_21  and  C15_22
REMARK   16  A    between atoms: C15_22  and  C16_23
REMARK   17  A    between atoms: C17_25  and  C18_26
REMARK   18  A    between atoms: C19_28  and  O4_29
REMARK   19  A    between atoms: C23_34  and  O5_35
REMARK   20  A    between atoms: C30_43  and  O6_44
REMARK   21  A    between atoms: C31_46  and  O7_47
REMARK   22  A    between atoms: C33_50  and  O8_51
ROOT
HETATM    1  C18 UNL     1      -5.615  22.962   8.705  1.00  0.00     0.152 C
HETATM    2  O3  UNL     1      -5.111  21.750   8.526  1.00  0.00    -0.353 OA
HETATM    3  C19 UNL     1      -5.763  20.649   8.272  1.00  0.00     0.272 C
HETATM    4  C20 UNL     1      -7.284  20.731   8.025  1.00  0.00     0.062 C
HETATM    5  C21 UNL     1      -7.412  20.696   6.571  1.00  0.00     0.028 C
HETATM    6  C22 UNL     1      -7.866  19.726   8.907  1.00  0.00    -0.003 A
HETATM    7  C23 UNL     1      -8.573  18.808   8.238  1.00  0.00     0.073 A
HETATM    8  C24 UNL     1      -9.204  17.767   8.911  1.00  0.00     0.037 A
HETATM    9  C25 UNL     1      -9.117  17.658  10.268  1.00  0.00     0.003 A
HETATM   10  C26 UNL     1      -8.386  18.610  10.933  1.00  0.00     0.008 A
HETATM   11  C27 UNL     1      -7.730  19.676  10.321  1.00  0.00    -0.042 A
HETATM   12  C28 UNL     1      -7.156  20.308  11.477  1.00  0.00     0.046 C
HETATM   13  C29 UNL     1      -6.166  19.299  12.090  1.00  0.00     0.017 C
HETATM   14  C30 UNL     1      -6.493  21.608  11.455  1.00  0.00     0.155 C
HETATM   15  C31 UNL     1      -7.102  22.733  10.772  1.00  0.00     0.156 C
HETATM   16  C32 UNL     1      -6.960  22.909   9.312  1.00  0.00     0.077 C
HETATM   17  C33 UNL     1      -7.856  22.056   8.481  1.00  0.00     0.145 C
ENDROOT
BRANCH   1  18
HETATM   18  C17 UNL     1      -4.756  23.944   9.407  1.00  0.00     0.159 C
BRANCH  18  19
HETATM   19  N2  UNL     1      -3.572  24.426   8.784  1.00  0.00    -0.368 N
BRANCH  19  20
HETATM   20  C4  UNL     1      -3.091  25.683   9.105  1.00  0.00     0.082 C
BRANCH  20  21
HETATM   21  C3  UNL     1      -3.718  26.934   8.641  1.00  0.00     0.167 C
BRANCH  21  22
HETATM   22  N1  UNL     1      -2.888  28.058   8.358  1.00  0.00    -0.357 N
HETATM   23  C2  UNL     1      -1.876  28.217   7.413  1.00  0.00     0.213 C
HETATM   24  C1  UNL     1      -1.147  29.529   7.324  1.00  0.00     0.117 C
HETATM   25  O1  UNL     1      -1.527  27.327   6.622  1.00  0.00    -0.274 OA
ATOM     26  H1  UNL     1      -3.064  28.876   8.940  1.00  0.00     0.162 HD
ENDBRANCH  21  22
ENDBRANCH  20  21
ENDBRANCH  19  20
BRANCH  19  27
HETATM   27  C5  UNL     1      -3.616  24.031   7.423  1.00  0.00     0.082 C
BRANCH  27  28
HETATM   28  C6  UNL     1      -2.469  23.860   6.565  1.00  0.00     0.167 C
BRANCH  28  29
HETATM   29  N3  UNL     1      -1.560  22.889   7.210  1.00  0.00    -0.356 N
HETATM   30  C7  UNL     1      -1.684  21.493   7.033  1.00  0.00     0.217 C
HETATM   31  O2  UNL     1      -2.535  20.950   6.323  1.00  0.00    -0.274 OA
ATOM     32  H3  UNL     1      -0.813  23.241   7.809  1.00  0.00     0.162 HD
BRANCH  30  33
HETATM   33  C8  UNL     1      -0.704  20.614   7.769  1.00  0.00     0.103 C
BRANCH  33  34
HETATM   34  C9  UNL     1       0.393  21.503   8.285  1.00  0.00     0.009 C
BRANCH  34  35
HETATM   35  C10 UNL     1       1.699  21.132   7.659  1.00  0.00     0.000 C
BRANCH  35  36
HETATM   36  C11 UNL     1       2.660  22.267   7.729  1.00  0.00     0.000 C
BRANCH  36  37
HETATM   37  C12 UNL     1       3.656  22.166   6.601  1.00  0.00     0.000 C
BRANCH  37  38
HETATM   38  C13 UNL     1       3.466  23.283   5.628  1.00  0.00     0.000 C
BRANCH  38  39
HETATM   39  C14 UNL     1       4.828  23.729   5.124  1.00  0.00     0.001 C
BRANCH  39  40
HETATM   40  C15 UNL     1       5.926  23.019   5.841  1.00  0.00     0.015 C
BRANCH  40  41
HETATM   41  C16 UNL     1       7.219  23.835   5.833  1.00  0.00     0.114 C
HETATM   42 CL1  UNL     1       6.866  25.432   5.181  1.00  0.00    -0.130 Cl
ENDBRANCH  40  41
ENDBRANCH  39  40
ENDBRANCH  38  39
ENDBRANCH  37  38
ENDBRANCH  36  37
ENDBRANCH  35  36
ENDBRANCH  34  35
ENDBRANCH  33  34
ENDBRANCH  30  33
ENDBRANCH  28  29
ENDBRANCH  27  28
ENDBRANCH  19  27
ENDBRANCH  18  19
ENDBRANCH   1  18
BRANCH   3  43
HETATM   43  O4  UNL     1      -5.129  20.029   7.154  1.00  0.00    -0.370 OA
ATOM     44  H4  UNL     1      -5.811  19.620   6.634  1.00  0.00     0.212 HD
ENDBRANCH   3  43
BRANCH  15  45
HETATM   45  O7  UNL     1      -6.776  23.939  11.399  1.00  0.00    -0.392 OA
ATOM     46  H7  UNL     1      -6.524  24.599  10.764  1.00  0.00     0.210 HD
ENDBRANCH  15  45
BRANCH  17  47
HETATM   47  O8  UNL     1      -9.012  21.875   9.282  1.00  0.00    -0.394 OA
ATOM     48  H8  UNL     1      -8.786  21.764  10.198  1.00  0.00     0.210 HD
ENDBRANCH  17  47
BRANCH  14  49
HETATM   49  O6  UNL     1      -6.446  21.991  12.844  1.00  0.00    -0.392 OA
ATOM     50  H6  UNL     1      -7.343  21.889  13.137  1.00  0.00     0.210 HD
ENDBRANCH  14  49
BRANCH   7  51
HETATM   51  O5  UNL     1      -8.672  18.901   6.876  1.00  0.00    -0.360 OA
ATOM     52  H5  UNL     1      -9.140  18.228   6.397  1.00  0.00     0.217 HD
ENDBRANCH   7  51
TORSDOF 22
ENDMDL