MODEL 2
REMARK VINA RESULT: -7.371552352      1.414      1.583
REMARK  19 active torsions:
REMARK  status: ('A' for Active; 'I' for Inactive)
REMARK    1  A    between atoms: C2_2  and  C3_3
REMARK    2  A    between atoms: C3_3  and  C4_4
REMARK    3  A    between atoms: C4_4  and  C5_5
REMARK    4  A    between atoms: C5_5  and  N1_6
REMARK    5  A    between atoms: N1_6  and  C6_8
REMARK    6  A    between atoms: C6_8  and  C7_9
REMARK    7  A    between atoms: C7_9  and  C8_10
REMARK    8  A    between atoms: C8_10  and  C9_11
REMARK    9  A    between atoms: C10_12  and  C11_13
REMARK   10  A    between atoms: C10_12  and  N3_16
REMARK   11  A    between atoms: C13_18  and  N4_19
REMARK       I    between atoms: N4_19  and  C14_21
REMARK   12  A    between atoms: C14_21  and  C15_23
REMARK   13  A    between atoms: C15_23  and  C17_25
REMARK   14  A    between atoms: C17_25  and  C18_26
REMARK   15  A    between atoms: C18_26  and  C19_27
REMARK   16  A    between atoms: C19_27  and  C20_28
REMARK   17  A    between atoms: C27_40  and  O5_41
REMARK   18  A    between atoms: C28_43  and  O6_44
REMARK   19  A    between atoms: C29_46  and  O7_47
ROOT
HETATM    1  N3  UNL     1       8.787  27.549   2.031  1.00  0.00    -0.311 N
HETATM    2  C12 UNL     1       8.302  27.826   0.672  1.00  0.00     0.157 C
HETATM    3  C13 UNL     1       9.370  27.751  -0.383  1.00  0.00     0.102 C
HETATM    4  C21 UNL     1       9.570  29.110  -1.021  1.00  0.00     0.027 C
HETATM    5  C22 UNL     1       8.312  29.786  -1.440  1.00  0.00     0.004 C
HETATM    6  C23 UNL     1       8.695  30.867  -2.462  1.00  0.00     0.020 C
HETATM    7  C24 UNL     1       9.054  32.119  -1.670  1.00  0.00     0.125 C
HETATM    8  N5  UNL     1       8.132  33.167  -2.042  1.00  0.00    -0.337 N
ATOM      9  H5  UNL     1       7.649  33.096  -2.938  1.00  0.00     0.164 HD
HETATM   10  C25 UNL     1       7.864  34.301  -1.208  1.00  0.00     0.360 C
HETATM   11  O3  UNL     1       7.675  35.424  -1.795  1.00  0.00    -0.239 OA
HETATM   12  O4  UNL     1       7.808  34.215   0.167  1.00  0.00    -0.301 OA
HETATM   13  C26 UNL     1       7.042  33.285   0.904  1.00  0.00     0.215 C
HETATM   14  C27 UNL     1       7.739  32.931   2.215  1.00  0.00     0.173 C
HETATM   15  C28 UNL     1       7.066  31.777   2.899  1.00  0.00     0.178 C
HETATM   16  C29 UNL     1       8.066  30.877   3.626  1.00  0.00     0.162 C
HETATM   17  C30 UNL     1       8.886  30.058   2.626  1.00  0.00     0.105 C
HETATM   18  C31 UNL     1      10.337  30.466   2.779  1.00  0.00     0.022 C
HETATM   19  C32 UNL     1       8.804  28.614   2.934  1.00  0.00     0.231 C
HETATM   20  O8  UNL     1       8.747  28.383   4.162  1.00  0.00    -0.273 OA
ENDROOT
BRANCH   1  21
HETATM   21  C10 UNL     1       9.170  26.178   2.263  1.00  0.00     0.102 C
HETATM   22  C9  UNL     1       9.501  25.762   3.609  1.00  0.00     0.031 C
BRANCH  22  23
HETATM   23  C8  UNL     1       8.513  25.560   4.677  1.00  0.00    -0.023 C
BRANCH  23  24
HETATM   24  C7  UNL     1       8.212  24.240   5.232  1.00  0.00     0.046 C
BRANCH  24  25
HETATM   25  C6  UNL     1       6.961  23.562   4.733  1.00  0.00     0.117 C
BRANCH  25  26
HETATM   26  N1  UNL     1       5.990  24.569   4.379  1.00  0.00    -0.421 N
ATOM     27  H1  UNL     1       6.247  25.439   3.913  1.00  0.00     0.153 HD
BRANCH  26  28
HETATM   28  C5  UNL     1       4.640  24.258   4.731  1.00  0.00     0.113 C
BRANCH  28  29
HETATM   29  C4  UNL     1       4.699  23.111   5.728  1.00  0.00     0.019 C
BRANCH  29  30
HETATM   30  C3  UNL     1       3.369  22.478   5.966  1.00  0.00     0.001 C
BRANCH  30  31
HETATM   31  C2  UNL     1       3.238  21.947   7.355  1.00  0.00    -0.004 C
HETATM   32  C1  UNL     1       1.798  21.501   7.542  1.00  0.00     0.005 C
ENDBRANCH  30  31
ENDBRANCH  29  30
ENDBRANCH  28  29
ENDBRANCH  26  28
ENDBRANCH  25  26
ENDBRANCH  24  25
ENDBRANCH  23  24
ENDBRANCH  22  23
BRANCH  21  33
HETATM   33  C11 UNL     1       8.299  25.252   1.519  1.00  0.00     0.281 C
HETATM   34  N2  UNL     1       8.709  24.208   0.654  1.00  0.00    -0.056 NA
HETATM   35  O1  UNL     1       7.016  25.326   1.609  1.00  0.00    -0.269 OA
ENDBRANCH  21  33
ENDBRANCH   1  21
BRANCH   3  36
HETATM   36  N4  UNL     1       9.116  26.734  -1.377  1.00  0.00    -0.355 N
HETATM   37  C14 UNL     1      10.044  25.822  -1.908  1.00  0.00     0.221 C
HETATM   38  O2  UNL     1      11.222  25.841  -1.527  1.00  0.00    -0.273 OA
ATOM     39  H4  UNL     1       8.161  26.670  -1.730  1.00  0.00     0.162 HD
BRANCH  37  40
HETATM   40  C15 UNL     1       9.604  24.851  -2.916  1.00  0.00     0.074 C
HETATM   41  C16 UNL     1      10.474  23.602  -2.811  1.00  0.00     0.020 C
BRANCH  40  42
HETATM   42  C17 UNL     1       9.410  25.310  -4.295  1.00  0.00     0.013 C
BRANCH  42  43
HETATM   43  C18 UNL     1      10.226  26.430  -4.810  1.00  0.00     0.003 C
BRANCH  43  44
HETATM   44  C19 UNL     1       9.440  27.732  -4.908  1.00  0.00     0.031 C
BRANCH  44  45
HETATM   45  C20 UNL     1       7.965  27.482  -5.098  1.00  0.00     0.222 C
HETATM   46  F1  UNL     1       7.298  28.418  -4.320  1.00  0.00    -0.255 F
ENDBRANCH  44  45
ENDBRANCH  43  44
ENDBRANCH  42  43
ENDBRANCH  40  42
ENDBRANCH  37  40
ENDBRANCH   3  36
BRANCH  16  47
HETATM   47  O7  UNL     1       8.862  31.693   4.406  1.00  0.00    -0.392 OA
ATOM     48  H7  UNL     1       9.563  32.016   3.853  1.00  0.00     0.210 HD
ENDBRANCH  16  47
BRANCH  15  49
HETATM   49  O6  UNL     1       6.400  31.026   1.935  1.00  0.00    -0.390 OA
ATOM     50  H6  UNL     1       5.961  31.625   1.342  1.00  0.00     0.210 HD
ENDBRANCH  15  49
BRANCH  14  51
HETATM   51  O5  UNL     1       7.680  34.016   3.105  1.00  0.00    -0.391 OA
ATOM     52  H5  UNL     1       7.859  33.723   3.992  1.00  0.00     0.210 HD
ENDBRANCH  14  51
TORSDOF 19
ENDMDL