MODEL 5
REMARK VINA RESULT: -8.709726229      2.013      2.908
REMARK  25 active torsions:
REMARK  status: ('A' for Active; 'I' for Inactive)
REMARK    1  A    between atoms: C2_2  and  C4_4
REMARK       I    between atoms: C4_4  and  N1_6
REMARK    2  A    between atoms: N1_6  and  C5_8
REMARK    3  A    between atoms: C6_11  and  C7_12
REMARK    4  A    between atoms: C8_13  and  C9_14
REMARK    5  A    between atoms: C9_14  and  C10_15
REMARK    6  A    between atoms: C10_15  and  C11_16
REMARK    7  A    between atoms: C11_16  and  C12_17
REMARK    8  A    between atoms: C15_20  and  O2_21
REMARK    9  A    between atoms: O2_21  and  C16_22
REMARK       I    between atoms: C16_22  and  N3_24
REMARK   10  A    between atoms: N3_24  and  C17_26
REMARK   11  A    between atoms: C17_26  and  C18_27
REMARK   12  A    between atoms: C18_27  and  C19_28
REMARK   13  A    between atoms: C19_28  and  N4_29
REMARK   14  A    between atoms: N4_29  and  C20_31
REMARK   15  A    between atoms: C20_31  and  C21_32
REMARK   16  A    between atoms: C21_32  and  C22_33
REMARK   17  A    between atoms: C22_33  and  C23_34
REMARK   18  A    between atoms: C23_34  and  N5_35
REMARK   19  A    between atoms: N5_35  and  C24_37
REMARK   20  A    between atoms: C24_37  and  C25_38
REMARK   21  A    between atoms: C25_38  and  N6_39
REMARK   22  A    between atoms: C26_43  and  O4_44
REMARK   23  A    between atoms: C27_48  and  N8_49
REMARK   24  A    between atoms: N8_49  and  C28_51
REMARK   25  A    between atoms: C28_51  and  C29_52
ROOT
HETATM    1  C10 UNL     1       2.804  22.037   6.209  1.00  0.00     0.012 C
ENDROOT
BRANCH   1   2
HETATM    2  C9  UNL     1       2.400  21.898   7.667  1.00  0.00     0.094 C
BRANCH   2   3
HETATM    3  C8  UNL     1       0.923  21.996   7.674  1.00  0.00    -0.098 C
HETATM    4  C7  UNL     1      -0.280  22.062   7.703  1.00  0.00    -0.029 C
BRANCH   4   5
HETATM    5  C6  UNL     1      -1.722  22.132   7.764  1.00  0.00     0.191 A
HETATM    6  N2  UNL     1      -2.369  23.307   7.696  1.00  0.00    -0.167 N
HETATM    7  C5  UNL     1      -3.720  23.332   7.762  1.00  0.00     0.701 A
ATOM      8  H2  UNL     1      -1.845  24.176   7.595  1.00  0.00     0.186 HD
HETATM    9  N9  UNL     1      -4.402  22.176   7.894  1.00  0.00    -0.022 N
HETATM   10  C27 UNL     1      -3.792  20.985   7.965  1.00  0.00     0.695 A
ATOM     11  H9  UNL     1      -5.420  22.209   7.940  1.00  0.00     0.203 HD
HETATM   12  N7  UNL     1      -2.450  20.997   7.897  1.00  0.00    -0.168 N
ATOM     13  H7  UNL     1      -1.954  20.107   7.947  1.00  0.00     0.186 HD
BRANCH   7  14
HETATM   14  N1  UNL     1      -4.401  24.424   7.704  1.00  0.00    -0.159 N
HETATM   15  C4  UNL     1      -4.614  25.246   8.851  1.00  0.00     0.239 C
HETATM   16  O1  UNL     1      -5.826  25.278   9.260  1.00  0.00    -0.272 OA
ATOM     17  H1  UNL     1      -4.801  24.709   6.810  1.00  0.00     0.187 HD
BRANCH  15  18
HETATM   18  C2  UNL     1      -3.564  26.010   9.538  1.00  0.00     0.070 C
HETATM   19  C1  UNL     1      -3.911  26.085  11.014  1.00  0.00     0.019 C
HETATM   20  C3  UNL     1      -3.451  27.428   8.991  1.00  0.00     0.019 C
ENDBRANCH  15  18
ENDBRANCH   7  14
BRANCH  10  21
HETATM   21  N8  UNL     1      -4.440  19.857   8.092  1.00  0.00    -0.221 N
ATOM     22  H8  UNL     1      -3.979  18.992   7.812  1.00  0.00     0.178 HD
BRANCH  21  23
HETATM   23  C28 UNL     1      -5.772  19.792   8.612  1.00  0.00     0.176 C
BRANCH  23  24
HETATM   24  C29 UNL     1      -5.819  19.810  10.088  1.00  0.00    -0.040 A
HETATM   25  C30 UNL     1      -5.338  18.756  10.829  1.00  0.00     0.012 A
HETATM   26  C31 UNL     1      -5.388  18.789  12.228  1.00  0.00     0.043 A
HETATM   27  C32 UNL     1      -5.925  19.894  12.862  1.00  0.00     0.116 A
HETATM   28  F1  UNL     1      -5.960  19.898  14.233  1.00  0.00    -0.206 F
HETATM   29  C33 UNL     1      -6.402  20.940  12.127  1.00  0.00     0.043 A
HETATM   30  C34 UNL     1      -6.344  20.890  10.747  1.00  0.00     0.012 A
ENDBRANCH  23  24
ENDBRANCH  21  23
ENDBRANCH  10  21
ENDBRANCH   4   5
ENDBRANCH   2   3
ENDBRANCH   1   2
BRANCH   1  31
HETATM   31  C11 UNL     1       3.510  23.350   6.080  1.00  0.00     0.008 C
BRANCH  31  32
HETATM   32  C12 UNL     1       4.797  23.179   5.343  1.00  0.00     0.017 C
HETATM   33  C13 UNL     1       5.822  22.483   6.169  1.00  0.00     0.010 C
HETATM   34  C14 UNL     1       7.047  23.367   6.176  1.00  0.00     0.036 C
HETATM   35  C15 UNL     1       6.853  24.329   4.991  1.00  0.00     0.162 C
HETATM   36  C26 UNL     1       5.387  24.531   4.917  1.00  0.00     0.151 C
BRANCH  35  37
HETATM   37  O2  UNL     1       7.647  25.431   5.252  1.00  0.00    -0.296 OA
BRANCH  37  38
HETATM   38  C16 UNL     1       8.531  25.950   4.314  1.00  0.00     0.360 C
HETATM   39  O3  UNL     1       9.681  25.433   4.345  1.00  0.00    -0.239 OA
HETATM   40  N3  UNL     1       8.157  26.976   3.404  1.00  0.00    -0.337 N
ATOM     41  H3  UNL     1       7.200  27.323   3.454  1.00  0.00     0.164 HD
BRANCH  40  42
HETATM   42  C17 UNL     1       9.018  27.556   2.428  1.00  0.00     0.126 C
BRANCH  42  43
HETATM   43  C18 UNL     1       9.275  29.038   2.688  1.00  0.00     0.039 C
BRANCH  43  44
HETATM   44  C19 UNL     1       8.038  29.839   2.339  1.00  0.00     0.115 C
BRANCH  44  45
HETATM   45  N4  UNL     1       7.333  29.391   1.196  1.00  0.00    -0.421 N
ATOM     46  H4  UNL     1       6.733  28.567   1.234  1.00  0.00     0.153 HD
BRANCH  45  47
HETATM   47  C20 UNL     1       7.491  30.132  -0.005  1.00  0.00     0.113 C
BRANCH  47  48
HETATM   48  C21 UNL     1       7.974  29.337  -1.172  1.00  0.00     0.021 C
BRANCH  48  49
HETATM   49  C22 UNL     1       9.394  28.891  -1.059  1.00  0.00     0.021 C
BRANCH  49  50
HETATM   50  C23 UNL     1       9.613  27.843  -2.194  1.00  0.00     0.119 C
BRANCH  50  51
HETATM   51  N5  UNL     1      10.188  26.666  -1.683  1.00  0.00    -0.401 N
ATOM     52  H5  UNL     1      11.167  26.427  -1.842  1.00  0.00     0.158 HD
BRANCH  51  53
HETATM   53  C24 UNL     1       9.334  25.842  -0.940  1.00  0.00     0.082 C
BRANCH  53  54
HETATM   54  C25 UNL     1       9.784  24.441  -0.747  1.00  0.00     0.273 C
BRANCH  54  55
HETATM   55  N6  UNL     1       9.458  23.817   0.486  1.00  0.00    -0.075 N
ATOM     56  H63 UNL     1       8.597  24.222   0.853  1.00  0.00     0.274 HD
ATOM     57  H62 UNL     1       9.157  22.859   0.310  1.00  0.00     0.274 HD
ATOM     58  H61 UNL     1      10.172  23.820   1.214  1.00  0.00     0.274 HD
ENDBRANCH  54  55
ENDBRANCH  53  54
ENDBRANCH  51  53
ENDBRANCH  50  51
ENDBRANCH  49  50
ENDBRANCH  48  49
ENDBRANCH  47  48
ENDBRANCH  45  47
ENDBRANCH  44  45
ENDBRANCH  43  44
ENDBRANCH  42  43
ENDBRANCH  40  42
ENDBRANCH  37  38
ENDBRANCH  35  37
BRANCH  36  59
HETATM   59  O4  UNL     1       4.935  24.737   3.609  1.00  0.00    -0.393 OA
ATOM     60  H4  UNL     1       4.082  25.146   3.698  1.00  0.00     0.210 HD
ENDBRANCH  36  59
ENDBRANCH  31  32
ENDBRANCH   1  31
TORSDOF 25
ENDMDL