MODEL 1
REMARK VINA RESULT: -8.118342270      0.000      0.000
REMARK  9 active torsions:
REMARK  status: ('A' for Active; 'I' for Inactive)
REMARK    1  A    between atoms: C1_2  and  C2_4
REMARK    2  A    between atoms: C2_4  and  N1_5
REMARK    3  A    between atoms: N1_5  and  C3_7
REMARK    4  A    between atoms: C3_7  and  C4_8
REMARK    5  A    between atoms: C3_7  and  C16_23
REMARK    6  A    between atoms: C4_8  and  C5_9
REMARK    7  A    between atoms: C5_9  and  O3_10
REMARK    8  A    between atoms: C6_12  and  C7_13
REMARK       I    between atoms: C16_23  and  N2_25
REMARK    9  A    between atoms: C19_28  and  C20_29
ROOT
HETATM    1  C3  UNL     1       4.956  58.002  22.016  1.00  0.00     0.179 C
ENDROOT
BRANCH   1   2
HETATM    2  N1  UNL     1       4.785  56.980  21.145  1.00  0.00    -0.380 N
ATOM      3  H1  UNL     1       5.292  56.122  21.363  1.00  0.00     0.160 HD
BRANCH   2   4
HETATM    4  C2  UNL     1       4.005  56.947  19.986  1.00  0.00     0.169 C
BRANCH   4   5
HETATM    5  C1  UNL     1       3.715  55.484  19.734  1.00  0.00     0.214 C
HETATM    6  O1  UNL     1       4.224  54.638  20.467  1.00  0.00    -0.644 OA
HETATM    7  O2  UNL     1       2.891  55.145  18.688  1.00  0.00    -0.644 OA
ENDBRANCH   4   5
ENDBRANCH   2   4
ENDBRANCH   1   2
BRANCH   1   8
HETATM    8  C4  UNL     1       4.249  57.945  23.391  1.00  0.00     0.099 C
BRANCH   8   9
HETATM    9  C5  UNL     1       5.036  57.511  24.525  1.00  0.00     0.048 C
HETATM   10  C6  UNL     1       4.978  57.574  25.932  1.00  0.00     0.064 C
BRANCH   9  11
HETATM   11  O3  UNL     1       5.881  56.385  24.086  1.00  0.00    -0.365 OA
ATOM     12  H3  UNL     1       6.788  56.666  24.128  1.00  0.00     0.217 HD
ENDBRANCH   9  11
BRANCH  10  13
HETATM   13  C7  UNL     1       4.994  58.806  26.731  1.00  0.00     0.050 C
HETATM   14  C8  UNL     1       6.251  59.282  27.249  1.00  0.00     0.065 C
HETATM   15  C9  UNL     1       6.254  60.719  27.742  1.00  0.00     0.009 C
HETATM   16  C10 UNL     1       5.189  61.578  27.158  1.00  0.00     0.039 C
HETATM   17  C11 UNL     1       4.392  60.981  26.053  1.00  0.00     0.067 C
HETATM   18  C12 UNL     1       5.051  61.264  24.735  1.00  0.00     0.038 C
HETATM   19  C15 UNL     1       3.048  61.747  25.992  1.00  0.00     0.038 C
HETATM   20  O4  UNL     1       4.058  59.683  26.229  1.00  0.00    -0.344 OA
HETATM   21  C13 UNL     1       4.259  62.391  24.095  1.00  0.00     0.003 C
HETATM   22  C14 UNL     1       2.853  62.116  24.537  1.00  0.00     0.003 C
ENDBRANCH  10  13
ENDBRANCH   8   9
ENDBRANCH   1   8
BRANCH   1  23
HETATM   23  C16 UNL     1       4.751  59.375  21.467  1.00  0.00     0.242 C
HETATM   24  O5  UNL     1       3.632  59.917  21.611  1.00  0.00    -0.271 OA
HETATM   25  N2  UNL     1       5.854  59.984  20.795  1.00  0.00    -0.350 N
HETATM   26  C17 UNL     1       6.892  59.122  20.275  1.00  0.00     0.127 C
HETATM   27  C22 UNL     1       5.915  61.422  20.728  1.00  0.00     0.127 C
HETATM   28  C18 UNL     1       7.750  59.731  19.204  1.00  0.00     0.035 C
HETATM   29  C19 UNL     1       7.354  61.134  18.818  1.00  0.00     0.090 C
HETATM   30  C21 UNL     1       7.256  61.874  20.167  1.00  0.00     0.035 C
BRANCH  29  31
HETATM   31  C20 UNL     1       8.381  61.691  17.950  1.00  0.00     0.177 C
HETATM   32  O6  UNL     1       8.529  62.946  17.831  1.00  0.00    -0.648 OA
HETATM   33  O7  UNL     1       9.236  60.886  17.222  1.00  0.00    -0.648 OA
ENDBRANCH  29  31
ENDBRANCH   1  23
TORSDOF 9
ENDMDL