MODEL 1
REMARK VINA RESULT: -7.420568565      0.000      0.000
REMARK  12 active torsions:
REMARK  status: ('A' for Active; 'I' for Inactive)
REMARK    1  A    between atoms: C2_2  and  O1_4
REMARK    2  A    between atoms: O1_4  and  C4_5
REMARK    3  A    between atoms: C5_6  and  O2_7
REMARK    4  A    between atoms: C6_9  and  O3_10
REMARK    5  A    between atoms: C7_12  and  O4_13
REMARK    6  A    between atoms: N1_16  and  C9_17
REMARK    7  A    between atoms: N1_16  and  C18_26
REMARK    8  A    between atoms: C9_17  and  C10_18
REMARK    9  A    between atoms: C10_18  and  C11_19
REMARK   10  A    between atoms: C11_19  and  C12_20
REMARK   11  A    between atoms: C18_26  and  C19_27
REMARK   12  A    between atoms: C25_33  and  O5_34
ROOT
HETATM    1  C4  UNL     1       4.416  61.998  26.107  1.00  0.00     0.187 C
HETATM    2  C5  UNL     1       3.202  61.474  26.790  1.00  0.00     0.181 C
HETATM    3  C6  UNL     1       2.067  61.107  25.867  1.00  0.00     0.183 C
HETATM    4  C7  UNL     1       2.574  59.987  24.937  1.00  0.00     0.197 C
HETATM    5  C8  UNL     1       3.963  60.078  24.548  1.00  0.00     0.051 C
HETATM    6  N1  UNL     1       4.647  59.402  23.587  1.00  0.00    -0.358 N
HETATM    7  C25 UNL     1       4.461  61.517  24.644  1.00  0.00     0.198 C
ENDROOT
BRANCH   4   8
HETATM    8  O4  UNL     1       1.646  59.797  23.907  1.00  0.00    -0.387 OA
ATOM      9  H4  UNL     1       1.115  59.035  24.106  1.00  0.00     0.210 HD
ENDBRANCH   4   8
BRANCH   6  10
HETATM   10  C9  UNL     1       4.844  57.990  23.917  1.00  0.00     0.128 C
BRANCH  10  11
HETATM   11  C10 UNL     1       3.887  57.007  23.429  1.00  0.00     0.025 C
BRANCH  11  12
HETATM   12  C11 UNL     1       4.587  56.004  22.484  1.00  0.00     0.040 C
BRANCH  12  13
HETATM   13  C12 UNL     1       3.786  55.720  21.277  1.00  0.00    -0.058 A
HETATM   14  C13 UNL     1       3.948  56.362  20.066  1.00  0.00     0.007 A
HETATM   15  C14 UNL     1       3.160  56.042  18.982  1.00  0.00     0.001 A
HETATM   16  C15 UNL     1       2.180  55.087  19.029  1.00  0.00     0.000 A
HETATM   17  C16 UNL     1       2.002  54.433  20.231  1.00  0.00     0.001 A
HETATM   18  C17 UNL     1       2.782  54.742  21.321  1.00  0.00     0.007 A
ENDBRANCH  12  13
ENDBRANCH  11  12
ENDBRANCH  10  11
ENDBRANCH   6  10
BRANCH   6  19
HETATM   19  C18 UNL     1       4.430  59.412  22.204  1.00  0.00     0.102 C
BRANCH  19  20
HETATM   20  C19 UNL     1       5.472  59.894  21.314  1.00  0.00    -0.021 A
HETATM   21  C20 UNL     1       6.325  59.005  20.634  1.00  0.00     0.013 A
HETATM   22  C21 UNL     1       7.339  59.400  19.817  1.00  0.00     0.001 A
HETATM   23  C22 UNL     1       7.586  60.729  19.607  1.00  0.00     0.000 A
HETATM   24  C23 UNL     1       6.783  61.648  20.247  1.00  0.00     0.001 A
HETATM   25  C24 UNL     1       5.763  61.230  21.069  1.00  0.00     0.013 A
ENDBRANCH  19  20
ENDBRANCH   6  19
BRANCH   7  26
HETATM   26  O5  UNL     1       3.599  62.378  23.984  1.00  0.00    -0.387 OA
ATOM     27  H5  UNL     1       4.169  62.879  23.414  1.00  0.00     0.210 HD
ENDBRANCH   7  26
BRANCH   3  28
HETATM   28  O3  UNL     1       1.021  60.565  26.659  1.00  0.00    -0.390 OA
ATOM     29  H3  UNL     1       0.769  59.732  26.278  1.00  0.00     0.210 HD
ENDBRANCH   3  28
BRANCH   1  30
HETATM   30  O1  UNL     1       5.610  61.727  26.701  1.00  0.00    -0.376 OA
BRANCH  30  31
HETATM   31  C2  UNL     1       5.594  60.924  27.798  1.00  0.00     0.114 C
HETATM   32  C1  UNL     1       6.361  61.437  28.981  1.00  0.00     0.039 C
HETATM   33  C3  UNL     1       6.247  59.594  27.404  1.00  0.00     0.039 C
ENDBRANCH  30  31
ENDBRANCH   1  30
BRANCH   2  34
HETATM   34  O2  UNL     1       2.681  62.458  27.665  1.00  0.00    -0.390 OA
ATOM     35  H2  UNL     1       3.137  62.422  28.497  1.00  0.00     0.210 HD
ENDBRANCH   2  34
TORSDOF 12
ENDMDL