MODEL 4
REMARK VINA RESULT: -7.761507500      4.534     10.295
REMARK  13 active torsions:
REMARK  status: ('A' for Active; 'I' for Inactive)
REMARK    1  A    between atoms: C2_2  and  C4_4
REMARK    2  A    between atoms: C4_4  and  C5_5
REMARK    3  A    between atoms: C4_4  and  O2_8
REMARK    4  A    between atoms: C5_5  and  O1_6
REMARK    5  A    between atoms: O2_8  and  C6_9
REMARK    6  A    between atoms: C9_12  and  C10_13
REMARK    7  A    between atoms: C10_13  and  O3_14
REMARK    8  A    between atoms: O3_14  and  C11_15
REMARK    9  A    between atoms: C11_15  and  C12_16
REMARK   10  A    between atoms: C11_15  and  C18_22
REMARK   11  A    between atoms: C24_28  and  O4_29
REMARK   12  A    between atoms: C25_31  and  O5_32
REMARK   13  A    between atoms: C26_34  and  O6_35
ROOT
HETATM    1  C6  UNL     1       2.924  63.186  25.998  1.00  0.00     0.176 C
HETATM    2  C7  UNL     1       3.169  62.955  24.552  1.00  0.00     0.004 C
HETATM    3  C8  UNL     1       3.991  62.172  23.853  1.00  0.00    -0.019 C
HETATM    4  C9  UNL     1       4.963  61.243  24.386  1.00  0.00     0.063 C
HETATM    5  C24 UNL     1       4.634  60.842  25.832  1.00  0.00     0.159 C
HETATM    6  C25 UNL     1       3.169  60.699  26.077  1.00  0.00     0.179 C
HETATM    7  C26 UNL     1       2.610  61.943  26.752  1.00  0.00     0.182 C
ENDROOT
BRANCH   4   8
HETATM    8  C10 UNL     1       5.264  59.964  23.696  1.00  0.00     0.180 C
BRANCH   8   9
HETATM    9  O3  UNL     1       4.398  59.222  23.050  1.00  0.00    -0.376 OA
BRANCH   9  10
HETATM   10  C11 UNL     1       4.291  59.144  21.714  1.00  0.00     0.187 C
BRANCH  10  11
HETATM   11  C12 UNL     1       5.435  59.779  20.983  1.00  0.00    -0.025 A
HETATM   12  C13 UNL     1       6.558  59.104  20.571  1.00  0.00     0.010 A
HETATM   13  C14 UNL     1       7.594  59.730  19.898  1.00  0.00     0.001 A
HETATM   14  C15 UNL     1       7.522  61.077  19.618  1.00  0.00     0.000 A
HETATM   15  C16 UNL     1       6.409  61.772  20.022  1.00  0.00     0.001 A
HETATM   16  C17 UNL     1       5.378  61.124  20.698  1.00  0.00     0.010 A
ENDBRANCH  10  11
BRANCH  10  17
HETATM   17  C18 UNL     1       4.152  57.716  21.243  1.00  0.00    -0.025 A
HETATM   18  C19 UNL     1       4.325  56.721  22.170  1.00  0.00     0.010 A
HETATM   19  C20 UNL     1       4.207  55.382  21.790  1.00  0.00     0.001 A
HETATM   20  C21 UNL     1       3.918  55.083  20.482  1.00  0.00     0.000 A
HETATM   21  C22 UNL     1       3.743  56.070  19.551  1.00  0.00     0.001 A
HETATM   22  C23 UNL     1       3.865  57.377  19.954  1.00  0.00     0.010 A
ENDBRANCH  10  17
ENDBRANCH   9  10
ENDBRANCH   8   9
ENDBRANCH   4   8
BRANCH   5  23
HETATM   23  O4  UNL     1       5.284  59.675  26.209  1.00  0.00    -0.392 OA
ATOM     24  H4  UNL     1       4.707  58.921  26.181  1.00  0.00     0.210 HD
ENDBRANCH   5  23
BRANCH   6  25
HETATM   25  O5  UNL     1       2.418  60.377  24.956  1.00  0.00    -0.390 OA
ATOM     26  H5  UNL     1       1.476  60.409  25.081  1.00  0.00     0.210 HD
ENDBRANCH   6  25
BRANCH   1  27
HETATM   27  O2  UNL     1       3.985  63.868  26.591  1.00  0.00    -0.372 OA
BRANCH  27  28
HETATM   28  C4  UNL     1       3.575  64.910  27.427  1.00  0.00     0.149 C
BRANCH  28  29
HETATM   29  C2  UNL     1       4.360  65.006  28.687  1.00  0.00     0.009 C
HETATM   30  C1  UNL     1       3.639  65.797  29.727  1.00  0.00     0.012 C
HETATM   31  C3  UNL     1       4.710  63.672  29.301  1.00  0.00     0.012 C
ENDBRANCH  28  29
BRANCH  28  32
HETATM   32  C5  UNL     1       3.834  66.177  26.598  1.00  0.00     0.196 C
BRANCH  32  33
HETATM   33  O1  UNL     1       5.166  66.481  26.471  1.00  0.00    -0.398 OA
ATOM     34  H1  UNL     1       5.341  67.415  26.468  1.00  0.00     0.209 HD
ENDBRANCH  32  33
ENDBRANCH  28  32
ENDBRANCH  27  28
ENDBRANCH   1  27
BRANCH   7  35
HETATM   35  O6  UNL     1       1.212  61.763  26.780  1.00  0.00    -0.390 OA
ATOM     36  H6  UNL     1       0.806  62.545  27.136  1.00  0.00     0.210 HD
ENDBRANCH   7  35
TORSDOF 13
ENDMDL