MODEL 5
REMARK VINA RESULT: -8.184567865      0.830      1.225
REMARK  10 active torsions:
REMARK  status: ('A' for Active; 'I' for Inactive)
REMARK    1  A    between atoms: C3_6  and  N2_7
REMARK    2  A    between atoms: N2_7  and  C4_9
REMARK    3  A    between atoms: C4_9  and  C5_10
REMARK    4  A    between atoms: C5_10  and  O1_11
REMARK    5  A    between atoms: C5_10  and  C6_13
REMARK    6  A    between atoms: C6_13  and  O2_14
REMARK    7  A    between atoms: O2_14  and  C7_15
REMARK    8  A    between atoms: C10_18  and  C11_19
REMARK    9  A    between atoms: C14_22  and  C15_23
REMARK   10  A    between atoms: C15_23  and  N3_24
ROOT
HETATM    1  C7  UNL     1       5.244  59.809  22.346  1.00  0.00     0.069 A
HETATM    2  C8  UNL     1       5.397  59.009  21.177  1.00  0.00     0.037 A
HETATM    3  C9  UNL     1       4.871  57.752  21.187  1.00  0.00     0.015 A
HETATM    4  C10 UNL     1       4.202  57.203  22.248  1.00  0.00    -0.026 A
HETATM    5  C22 UNL     1       4.045  57.960  23.386  1.00  0.00     0.015 A
HETATM    6  C23 UNL     1       4.570  59.236  23.394  1.00  0.00     0.037 A
ENDROOT
BRANCH   1   7
HETATM    7  O2  UNL     1       5.779  61.039  22.279  1.00  0.00    -0.345 OA
BRANCH   7   8
HETATM    8  C6  UNL     1       5.788  62.098  21.440  1.00  0.00     0.241 C
BRANCH   8   9
HETATM    9  C5  UNL     1       6.909  62.272  20.467  1.00  0.00     0.082 C
BRANCH   9  10
HETATM   10  C4  UNL     1       6.881  61.295  19.335  1.00  0.00     0.117 C
BRANCH  10  11
HETATM   11  N2  UNL     1       7.636  61.561  18.195  1.00  0.00    -0.392 N
ATOM     12  H2  UNL     1       7.452  62.423  17.681  1.00  0.00     0.159 HD
BRANCH  11  13
HETATM   13  C3  UNL     1       8.636  60.701  17.719  1.00  0.00     0.089 C
HETATM   14  C2  UNL     1       9.088  61.233  16.356  1.00  0.00     0.100 C
HETATM   15  C1  UNL     1       7.812  61.289  15.554  1.00  0.00     0.072 C
HETATM   16  N1  UNL     1       7.515  62.311  14.849  1.00  0.00    -0.389 N
HETATM   17  N4  UNL     1       7.001  60.129  15.656  1.00  0.00    -0.380 N
ATOM     18  H12 UNL     1       8.099  63.145  14.776  1.00  0.00     0.157 HD
ATOM     19  H11 UNL     1       6.652  62.349  14.307  1.00  0.00     0.157 HD
HETATM   20  C25 UNL     1       7.643  58.944  16.190  1.00  0.00     0.123 C
ATOM     21  H4  UNL     1       6.021  60.129  15.370  1.00  0.00     0.160 HD
HETATM   22  C24 UNL     1       8.133  59.269  17.579  1.00  0.00     0.045 C
ENDBRANCH  11  13
ENDBRANCH  10  11
ENDBRANCH   9  10
BRANCH   9  23
HETATM   23  O1  UNL     1       7.222  63.547  20.105  1.00  0.00    -0.361 OA
ATOM     24  H1  UNL     1       8.008  63.624  19.576  1.00  0.00     0.217 HD
ENDBRANCH   9  23
ENDBRANCH   8   9
ENDBRANCH   7   8
ENDBRANCH   1   7
BRANCH   4  25
HETATM   25  C11 UNL     1       3.676  55.851  22.134  1.00  0.00    -0.026 A
HETATM   26  C12 UNL     1       2.744  55.379  23.060  1.00  0.00     0.013 A
HETATM   27  C13 UNL     1       2.199  54.121  22.982  1.00  0.00     0.010 A
HETATM   28  C14 UNL     1       2.560  53.247  21.960  1.00  0.00    -0.030 A
HETATM   29  C20 UNL     1       3.479  53.703  21.044  1.00  0.00     0.010 A
HETATM   30  C21 UNL     1       4.013  54.969  21.141  1.00  0.00     0.013 A
BRANCH  28  31
HETATM   31  C15 UNL     1       1.967  51.891  21.867  1.00  0.00     0.311 C
BRANCH  31  32
HETATM   32  N3  UNL     1       3.047  50.925  21.777  1.00  0.00     0.096 N
HETATM   33  C16 UNL     1       3.153  50.262  20.524  1.00  0.00     0.299 C
HETATM   34  C17 UNL     1       2.199  49.060  20.588  1.00  0.00     0.198 C
HETATM   35  O3  UNL     1       2.681  48.152  21.494  1.00  0.00    -0.388 OA
HETATM   36  C18 UNL     1       3.482  48.665  22.486  1.00  0.00     0.198 C
HETATM   37  C19 UNL     1       3.054  50.042  22.918  1.00  0.00     0.299 C
ENDBRANCH  31  32
ENDBRANCH  28  31
ENDBRANCH   4  25
TORSDOF 10
ENDMDL