MODEL 4
REMARK VINA RESULT: -6.733736827      4.639      7.509
REMARK  11 active torsions:
REMARK  status: ('A' for Active; 'I' for Inactive)
REMARK    1  A    between atoms: C2_2  and  C3_3
REMARK    2  A    between atoms: C3_3  and  N1_4
REMARK    3  A    between atoms: N1_4  and  C4_7
REMARK    4  A    between atoms: C6_9  and  C7_10
REMARK    5  A    between atoms: C7_10  and  C8_11
REMARK    6  A    between atoms: C8_11  and  C9_13
REMARK    7  A    between atoms: N2_15  and  C11_16
REMARK    8  A    between atoms: C11_16  and  C12_17
REMARK    9  A    between atoms: C12_17  and  C13_18
REMARK   10  A    between atoms: C13_18  and  N3_19
REMARK   11  A    between atoms: C18_26  and  N5_27
ROOT
HETATM    1  C9  UNL     1       4.596  60.547  22.647  1.00  0.00     0.111 A
HETATM    2  C10 UNL     1       5.777  60.533  21.914  1.00  0.00     0.142 A
HETATM    3  N2  UNL     1       5.779  59.535  21.049  1.00  0.00    -0.191 N
HETATM    4  C18 UNL     1       4.589  58.882  21.210  1.00  0.00     0.678 A
HETATM    5  N6  UNL     1       3.895  59.506  22.175  1.00  0.00    -0.187 N
ATOM      6  H6  UNL     1       2.968  59.229  22.501  1.00  0.00     0.184 HD
ENDROOT
BRANCH   1   7
HETATM    7  C8  UNL     1       4.154  61.491  23.660  1.00  0.00     0.178 C
HETATM    8  O1  UNL     1       4.333  62.717  23.401  1.00  0.00    -0.291 OA
BRANCH   7   9
HETATM    9  C7  UNL     1       3.548  61.062  24.888  1.00  0.00     0.095 C
BRANCH   9  10
HETATM   10  C6  UNL     1       4.487  60.697  25.978  1.00  0.00    -0.031 C
HETATM   11  C5  UNL     1       5.371  59.540  25.506  1.00  0.00     0.043 C
HETATM   12  C4  UNL     1       5.944  58.910  26.763  1.00  0.00     0.191 C
HETATM   13  C24 UNL     1       5.921  59.787  27.950  1.00  0.00     0.024 C
HETATM   14  C20 UNL     1       4.514  60.123  28.414  1.00  0.00    -0.007 C
HETATM   15  C22 UNL     1       6.100  61.250  27.726  1.00  0.00    -0.007 C
HETATM   16  C19 UNL     1       3.667  60.240  27.200  1.00  0.00     0.015 C
HETATM   17  C21 UNL     1       5.085  61.478  28.831  1.00  0.00     0.010 C
HETATM   18  C23 UNL     1       5.417  61.766  26.458  1.00  0.00     0.015 C
BRANCH  12  19
HETATM   19  N1  UNL     1       5.111  57.747  27.044  1.00  0.00    -0.070 N
ATOM     20  H12 UNL     1       4.228  58.024  27.475  1.00  0.00     0.277 HD
ATOM     21  H11 UNL     1       5.501  57.194  27.808  1.00  0.00     0.277 HD
BRANCH  19  22
HETATM   22  C3  UNL     1       4.882  56.924  25.870  1.00  0.00     0.232 C
BRANCH  22  23
HETATM   23  C2  UNL     1       3.426  56.493  25.957  1.00  0.00     0.023 C
HETATM   24  C1  UNL     1       2.728  57.126  24.754  1.00  0.00     0.007 C
ENDBRANCH  22  23
ENDBRANCH  19  22
ENDBRANCH  12  19
ENDBRANCH   9  10
ENDBRANCH   7   9
ENDBRANCH   1   7
BRANCH   3  25
HETATM   25  C11 UNL     1       6.799  59.177  20.102  1.00  0.00     0.149 C
BRANCH  25  26
HETATM   26  C12 UNL     1       7.752  60.311  19.807  1.00  0.00     0.051 C
BRANCH  26  27
HETATM   27  C13 UNL     1       7.605  60.822  18.390  1.00  0.00     0.274 C
BRANCH  27  28
HETATM   28  N3  UNL     1       8.650  60.366  17.537  1.00  0.00     0.091 N
HETATM   29  C14 UNL     1       8.191  59.283  16.695  1.00  0.00     0.291 C
HETATM   30  C15 UNL     1       7.121  59.742  15.728  1.00  0.00     0.144 C
HETATM   31  N4  UNL     1       7.114  61.135  15.452  1.00  0.00    -0.418 N
HETATM   32  C16 UNL     1       8.328  61.850  15.609  1.00  0.00     0.144 C
ATOM     33  H4  UNL     1       6.261  61.607  15.149  1.00  0.00     0.153 HD
HETATM   34  C17 UNL     1       9.237  61.378  16.699  1.00  0.00     0.291 C
ENDBRANCH  27  28
ENDBRANCH  26  27
ENDBRANCH  25  26
ENDBRANCH   3  25
BRANCH   4  35
HETATM   35  N5  UNL     1       4.212  57.842  20.546  1.00  0.00    -0.234 N
ATOM     36  H52 UNL     1       4.394  57.655  19.561  1.00  0.00     0.174 HD
ATOM     37  H51 UNL     1       3.672  57.064  20.924  1.00  0.00     0.174 HD
ENDBRANCH   4  35
TORSDOF 11
ENDMDL