MODEL 3
REMARK VINA RESULT: -7.510988977      4.255      9.594
REMARK  12 active torsions:
REMARK  status: ('A' for Active; 'I' for Inactive)
REMARK    1  A    between atoms: C2_2  and  C4_4
REMARK    2  A    between atoms: C5_5  and  C6_6
REMARK    3  A    between atoms: C6_6  and  C7_7
REMARK    4  A    between atoms: C7_7  and  O1_8
REMARK    5  A    between atoms: C7_7  and  C8_10
REMARK    6  A    between atoms: C9_11  and  C10_12
REMARK    7  A    between atoms: C13_15  and  N1_16
REMARK    8  A    between atoms: C15_18  and  C16_19
REMARK    9  A    between atoms: C17_20  and  C18_21
REMARK   10  A    between atoms: C18_21  and  C19_22
REMARK   11  A    between atoms: C24_31  and  O4_32
REMARK   12  A    between atoms: C25_34  and  O5_35
ROOT
HETATM    1  C10 UNL     1       3.580  56.598  20.222  1.00  0.00     0.061 C
HETATM    2  C11 UNL     1       4.247  55.439  20.923  1.00  0.00    -0.018 C
HETATM    3  C12 UNL     1       3.491  54.342  21.021  1.00  0.00    -0.002 C
HETATM    4  C13 UNL     1       2.125  54.421  20.436  1.00  0.00     0.147 C
HETATM    5  C24 UNL     1       2.106  55.048  19.063  1.00  0.00     0.174 C
HETATM    6  C25 UNL     1       3.177  56.100  18.875  1.00  0.00     0.160 C
ENDROOT
BRANCH   4   7
HETATM    7  N1  UNL     1       1.624  53.063  20.348  1.00  0.00    -0.298 N
HETATM    8  C14 UNL     1       1.954  52.336  19.276  1.00  0.00     0.113 A
HETATM    9  C15 UNL     1       1.511  51.002  19.104  1.00  0.00     0.047 A
HETATM   10  C22 UNL     1       0.729  50.534  20.116  1.00  0.00     0.261 A
HETATM   11  O2  UNL     1       0.231  49.390  20.156  1.00  0.00    -0.267 OA
HETATM   12  N2  UNL     1       0.408  51.311  21.208  1.00  0.00    -0.275 N
HETATM   13  C23 UNL     1       0.850  52.550  21.316  1.00  0.00     0.330 A
ATOM     14  H2  UNL     1      -0.180  50.923  21.945  1.00  0.00     0.173 HD
HETATM   15  O3  UNL     1       0.580  53.298  22.303  1.00  0.00    -0.246 OA
BRANCH   9  16
HETATM   16  C16 UNL     1       1.827  50.277  17.924  1.00  0.00     0.014 C
HETATM   17  C17 UNL     1       1.418  50.079  16.744  1.00  0.00    -0.025 C
BRANCH  17  18
HETATM   18  C18 UNL     1       0.324  50.512  15.910  1.00  0.00     0.031 C
BRANCH  18  19
HETATM   19  C19 UNL     1       0.127  52.019  15.900  1.00  0.00    -0.011 A
HETATM   20  C20 UNL     1      -0.864  52.680  16.784  1.00  0.00     0.005 A
HETATM   21  C21 UNL     1      -1.171  52.481  15.308  1.00  0.00     0.005 A
ENDBRANCH  18  19
ENDBRANCH  17  18
ENDBRANCH   9  16
ENDBRANCH   4   7
BRANCH   5  22
HETATM   22  O4  UNL     1       0.851  55.643  18.817  1.00  0.00    -0.391 OA
ATOM     23  H4  UNL     1       0.909  56.234  18.074  1.00  0.00     0.210 HD
ENDBRANCH   5  22
BRANCH   6  24
HETATM   24  O5  UNL     1       4.303  55.468  18.313  1.00  0.00    -0.392 OA
ATOM     25  H5  UNL     1       4.079  55.241  17.418  1.00  0.00     0.210 HD
ENDBRANCH   6  24
BRANCH   1  26
HETATM   26  C9  UNL     1       4.474  57.765  20.202  1.00  0.00    -0.017 C
HETATM   27  C8  UNL     1       5.042  58.233  21.294  1.00  0.00     0.001 C
BRANCH  27  28
HETATM   28  C7  UNL     1       5.934  59.412  21.229  1.00  0.00     0.144 C
BRANCH  28  29
HETATM   29  C6  UNL     1       6.934  59.161  20.093  1.00  0.00     0.062 C
BRANCH  29  30
HETATM   30  C5  UNL     1       7.655  60.376  19.723  1.00  0.00    -0.027 C
HETATM   31  C4  UNL     1       8.017  60.874  18.585  1.00  0.00    -0.027 C
BRANCH  31  32
HETATM   32  C2  UNL     1       7.887  60.492  17.199  1.00  0.00    -0.001 C
HETATM   33  C1  UNL     1       8.299  59.149  16.744  1.00  0.00     0.013 C
HETATM   34  C3  UNL     1       8.711  61.497  16.357  1.00  0.00     0.013 C
ENDBRANCH  31  32
ENDBRANCH  29  30
ENDBRANCH  28  29
BRANCH  28  35
HETATM   35  O1  UNL     1       5.174  60.514  20.844  1.00  0.00    -0.391 OA
ATOM     36  H1  UNL     1       4.561  60.676  21.551  1.00  0.00     0.210 HD
ENDBRANCH  28  35
ENDBRANCH  27  28
ENDBRANCH   1  26
TORSDOF 12
ENDMDL