MODEL 4
REMARK VINA RESULT: -6.136950021      3.171      8.539
REMARK  12 active torsions:
REMARK  status: ('A' for Active; 'I' for Inactive)
REMARK    1  A    between atoms: C2_2  and  C4_4
REMARK    2  A    between atoms: C4_4  and  C7_7
REMARK    3  A    between atoms: C7_7  and  C8_8
REMARK    4  A    between atoms: C8_8  and  O1_9
REMARK    5  A    between atoms: C8_8  and  C9_11
REMARK    6  A    between atoms: C9_11  and  C10_12
REMARK    7  A    between atoms: C9_11  and  C23_31
REMARK       I    between atoms: C10_12  and  N1_14
REMARK    8  A    between atoms: C15_19  and  C16_20
REMARK       I    between atoms: C16_20  and  N2_22
REMARK    9  A    between atoms: N2_22  and  C17_24
REMARK   10  A    between atoms: C17_24  and  C18_25
REMARK   11  A    between atoms: C17_24  and  C20_28
REMARK   12  A    between atoms: C23_31  and  O5_33
ROOT
HETATM    1  C10 UNL     1       4.881  57.914  24.946  1.00  0.00     0.229 C
HETATM    2  O2  UNL     1       5.185  56.697  25.227  1.00  0.00    -0.273 OA
HETATM    3  N1  UNL     1       4.790  58.201  23.584  1.00  0.00    -0.338 N
HETATM    4  C11 UNL     1       4.412  59.545  23.201  1.00  0.00     0.127 C
HETATM    5  C12 UNL     1       3.871  59.638  21.803  1.00  0.00     0.020 C
HETATM    6  C13 UNL     1       4.518  58.820  20.765  1.00  0.00     0.004 C
HETATM    7  C14 UNL     1       5.581  57.955  21.320  1.00  0.00     0.035 C
HETATM    8  C15 UNL     1       5.085  57.197  22.582  1.00  0.00     0.179 C
ENDROOT
BRANCH   1   9
HETATM    9  C9  UNL     1       4.685  58.799  26.080  1.00  0.00     0.135 C
BRANCH   9  10
HETATM   10  C8  UNL     1       3.347  58.606  26.751  1.00  0.00     0.134 C
BRANCH  10  11
HETATM   11  C7  UNL     1       2.863  59.870  27.401  1.00  0.00     0.046 C
BRANCH  11  12
HETATM   12  C4  UNL     1       2.127  60.787  26.448  1.00  0.00    -0.023 C
HETATM   13  C5  UNL     1       0.928  61.300  27.279  1.00  0.00     0.019 C
HETATM   14  C6  UNL     1       1.508  60.055  25.296  1.00  0.00     0.019 C
BRANCH  12  15
HETATM   15  C2  UNL     1       2.882  61.999  26.079  1.00  0.00    -0.085 C
HETATM   16  C1  UNL     1       2.952  62.417  24.840  1.00  0.00     0.014 C
HETATM   17  C3  UNL     1       3.572  62.765  27.145  1.00  0.00     0.043 C
ENDBRANCH  12  15
ENDBRANCH  11  12
ENDBRANCH  10  11
BRANCH  10  18
HETATM   18  O1  UNL     1       3.461  57.678  27.803  1.00  0.00    -0.395 OA
ATOM     19  H1  UNL     1       3.938  56.945  27.432  1.00  0.00     0.210 HD
ENDBRANCH  10  18
ENDBRANCH   9  10
BRANCH   9  20
HETATM   20  C23 UNL     1       5.794  58.741  27.110  1.00  0.00     0.129 C
HETATM   21  C24 UNL     1       6.165  60.101  27.655  1.00  0.00     0.040 C
BRANCH  20  22
HETATM   22  O5  UNL     1       6.976  58.279  26.479  1.00  0.00    -0.395 OA
ATOM     23  H5  UNL     1       7.714  58.772  26.817  1.00  0.00     0.210 HD
ENDBRANCH  20  22
ENDBRANCH   9  20
ENDBRANCH   1   9
BRANCH   8  24
HETATM   24  C16 UNL     1       3.984  56.306  22.222  1.00  0.00     0.241 C
HETATM   25  O3  UNL     1       2.972  56.357  23.014  1.00  0.00    -0.271 OA
HETATM   26  N2  UNL     1       3.855  55.416  21.168  1.00  0.00    -0.348 N
ATOM     27  H2  UNL     1       4.634  55.348  20.513  1.00  0.00     0.163 HD
BRANCH  26  28
HETATM   28  C17 UNL     1       2.691  54.567  20.919  1.00  0.00     0.157 C
BRANCH  28  29
HETATM   29  C18 UNL     1       3.023  53.160  21.346  1.00  0.00     0.145 C
HETATM   30  C19 UNL     1       2.313  52.387  22.382  1.00  0.00     0.093 C
HETATM   31  O4  UNL     1       3.971  52.573  20.801  1.00  0.00    -0.296 OA
ENDBRANCH  28  29
BRANCH  28  32
HETATM   32  C20 UNL     1       2.145  54.697  19.561  1.00  0.00     0.007 C
HETATM   33  C21 UNL     1       0.675  54.630  19.397  1.00  0.00     0.012 C
HETATM   34  C22 UNL     1       2.719  55.883  18.849  1.00  0.00     0.012 C
ENDBRANCH  28  32
ENDBRANCH  26  28
ENDBRANCH   8  24
TORSDOF 12
ENDMDL