MODEL 1
REMARK VINA RESULT: -7.261046572      0.000      0.000
REMARK  11 active torsions:
REMARK  status: ('A' for Active; 'I' for Inactive)
REMARK    1  A    between atoms: C6_6  and  C7_7
REMARK    2  A    between atoms: C7_7  and  N1_8
REMARK    3  A    between atoms: C9_14  and  O1_15
REMARK    4  A    between atoms: O1_15  and  C10_16
REMARK    5  A    between atoms: C10_16  and  C11_17
REMARK    6  A    between atoms: C11_17  and  O2_18
REMARK    7  A    between atoms: C11_17  and  C12_20
REMARK    8  A    between atoms: C12_20  and  N2_21
REMARK    9  A    between atoms: N2_21  and  C13_23
REMARK   10  A    between atoms: N3_26  and  C16_27
REMARK   11  A    between atoms: C16_27  and  C17_28
ROOT
HETATM    1  C1  UNL     1       2.226  59.373  24.040  1.00  0.00     0.018 C
HETATM    2  C2  UNL     1       3.137  59.820  23.370  1.00  0.00    -0.075 C
HETATM    3  C3  UNL     1       4.238  60.332  22.589  1.00  0.00     0.050 A
HETATM    4  C4  UNL     1       4.729  61.556  22.937  1.00  0.00     0.024 A
HETATM    5  C5  UNL     1       5.793  62.069  22.213  1.00  0.00     0.012 A
HETATM    6  C6  UNL     1       6.359  61.385  21.163  1.00  0.00    -0.015 A
HETATM    7  C8  UNL     1       5.840  60.149  20.833  1.00  0.00     0.048 A
HETATM    8  C9  UNL     1       4.775  59.585  21.525  1.00  0.00     0.088 A
ENDROOT
BRANCH   8   9
HETATM    9  O1  UNL     1       4.197  58.405  21.280  1.00  0.00    -0.347 OA
BRANCH   9  10
HETATM   10  C10 UNL     1       4.319  57.250  20.638  1.00  0.00     0.213 C
BRANCH  10  11
HETATM   11  C11 UNL     1       3.828  55.950  21.246  1.00  0.00     0.180 C
BRANCH  11  12
HETATM   12  O2  UNL     1       4.353  54.804  20.752  1.00  0.00    -0.388 OA
ATOM     13  H2  UNL     1       4.868  54.273  21.349  1.00  0.00     0.210 HD
ENDBRANCH  11  12
BRANCH  11  14
HETATM   14  C12 UNL     1       3.832  55.994  22.734  1.00  0.00     0.089 C
BRANCH  14  15
HETATM   15  N2  UNL     1       4.931  56.431  23.466  1.00  0.00    -0.394 N
ATOM     16  H2  UNL     1       5.857  56.249  23.078  1.00  0.00     0.159 HD
BRANCH  15  17
HETATM   17  C13 UNL     1       4.865  57.107  24.707  1.00  0.00     0.091 C
HETATM   18  C14 UNL     1       4.050  56.440  25.727  1.00  0.00     0.069 C
HETATM   19  C15 UNL     1       4.410  56.658  27.143  1.00  0.00     0.061 C
HETATM   20  N3  UNL     1       5.496  57.465  27.494  1.00  0.00    -0.384 N
HETATM   21  C23 UNL     1       6.490  57.726  26.550  1.00  0.00     0.090 A
HETATM   22  C24 UNL     1       7.068  56.434  25.893  1.00  0.00     0.034 A
HETATM   23  C25 UNL     1       6.270  57.413  25.164  1.00  0.00     0.033 A
BRANCH  20  24
HETATM   24  C16 UNL     1       5.135  58.489  28.411  1.00  0.00     0.160 C
BRANCH  24  25
HETATM   25  C17 UNL     1       5.221  59.864  27.901  1.00  0.00    -0.040 A
HETATM   26  C18 UNL     1       6.207  60.700  28.384  1.00  0.00     0.009 A
HETATM   27  C19 UNL     1       6.332  62.012  27.932  1.00  0.00     0.001 A
HETATM   28  C20 UNL     1       5.460  62.492  26.986  1.00  0.00     0.000 A
HETATM   29  C21 UNL     1       4.478  61.633  26.517  1.00  0.00     0.001 A
HETATM   30  C22 UNL     1       4.359  60.340  26.966  1.00  0.00     0.009 A
ENDBRANCH  24  25
ENDBRANCH  20  24
ENDBRANCH  15  17
ENDBRANCH  14  15
ENDBRANCH  11  14
ENDBRANCH  10  11
ENDBRANCH   9  10
ENDBRANCH   8   9
BRANCH   6  31
HETATM   31  C7  UNL     1       7.491  61.930  20.357  1.00  0.00     0.288 C
HETATM   32  S1  UNL     1       7.662  60.971  18.824  1.00  0.00    -0.057 SA
BRANCH  31  33
HETATM   33  N1  UNL     1       7.281  63.337  20.038  1.00  0.00    -0.061 N
ATOM     34  H13 UNL     1       6.411  63.479  19.525  1.00  0.00     0.276 HD
ATOM     35  H12 UNL     1       7.063  63.883  20.871  1.00  0.00     0.276 HD
ATOM     36  H11 UNL     1       8.080  63.723  19.534  1.00  0.00     0.276 HD
ENDBRANCH  31  33
ENDBRANCH   6  31
TORSDOF 11
ENDMDL