MODEL 5
REMARK VINA RESULT: -6.285523906      2.783      5.034
REMARK  12 active torsions:
REMARK  status: ('A' for Active; 'I' for Inactive)
REMARK    1  A    between atoms: C2_2  and  C3_3
REMARK    2  A    between atoms: C3_3  and  C4_4
REMARK    3  A    between atoms: C3_3  and  C5_7
REMARK    4  A    between atoms: C4_4  and  O1_5
REMARK    5  A    between atoms: C7_9  and  O2_10
REMARK    6  A    between atoms: C13_20  and  C14_21
REMARK    7  A    between atoms: C14_21  and  C15_22
REMARK    8  A    between atoms: C15_22  and  O6_23
REMARK    9  A    between atoms: C15_22  and  C16_25
REMARK   10  A    between atoms: C16_25  and  C17_26
REMARK       I    between atoms: C17_26  and  N1_28
REMARK   11  A    between atoms: N1_28  and  C18_30
REMARK   12  A    between atoms: C18_30  and  C19_31
ROOT
HETATM    1  C5  UNL     1       5.325  59.468  26.965  1.00  0.00     0.123 C
HETATM    2  C6  UNL     1       4.689  58.577  28.027  1.00  0.00     0.080 C
HETATM    3  C7  UNL     1       5.494  57.321  27.949  1.00  0.00     0.153 C
HETATM    4  C8  UNL     1       6.472  57.701  26.866  1.00  0.00     0.184 C
HETATM    5  O3  UNL     1       6.640  59.060  27.091  1.00  0.00    -0.362 OA
HETATM    6  C9  UNL     1       5.672  57.664  25.553  1.00  0.00     0.194 C
HETATM    7  O4  UNL     1       4.666  56.720  25.639  1.00  0.00    -0.345 OA
HETATM    8  C10 UNL     1       3.522  57.305  25.222  1.00  0.00     0.158 C
HETATM    9  C11 UNL     1       3.277  56.887  23.782  1.00  0.00     0.078 C
HETATM   10  C12 UNL     1       2.278  56.743  25.957  1.00  0.00     0.078 C
HETATM   11  O5  UNL     1       3.654  58.639  25.438  1.00  0.00    -0.339 OA
HETATM   12  C13 UNL     1       5.002  58.981  25.581  1.00  0.00     0.131 C
ENDROOT
BRANCH  12  13
HETATM   13  C14 UNL     1       5.429  60.024  24.644  1.00  0.00     0.076 C
BRANCH  13  14
HETATM   14  C15 UNL     1       4.599  60.690  23.655  1.00  0.00     0.130 C
BRANCH  14  15
HETATM   15  O6  UNL     1       5.256  61.948  23.345  1.00  0.00    -0.395 OA
ATOM     16  H6  UNL     1       4.582  62.617  23.368  1.00  0.00     0.210 HD
ENDBRANCH  14  15
BRANCH  14  17
HETATM   17  C16 UNL     1       4.517  60.061  22.288  1.00  0.00     0.134 C
BRANCH  17  18
HETATM   18  C17 UNL     1       5.233  60.950  21.275  1.00  0.00     0.220 C
HETATM   19  O7  UNL     1       4.512  61.808  20.717  1.00  0.00    -0.274 OA
HETATM   20  N1  UNL     1       6.600  60.795  21.007  1.00  0.00    -0.361 N
ATOM     21  H1  UNL     1       7.145  60.080  21.489  1.00  0.00     0.162 HD
BRANCH  20  22
HETATM   22  C18 UNL     1       7.219  61.658  20.045  1.00  0.00     0.127 C
BRANCH  22  23
HETATM   23  C19 UNL     1       7.350  61.032  18.681  1.00  0.00     0.003 C
HETATM   24  C20 UNL     1       7.691  59.581  18.723  1.00  0.00     0.006 C
HETATM   25  C21 UNL     1       8.167  59.294  17.321  1.00  0.00     0.000 C
HETATM   26  C22 UNL     1       8.582  60.615  16.728  1.00  0.00     0.000 C
HETATM   27  C23 UNL     1       8.477  61.626  17.875  1.00  0.00     0.006 C
ENDBRANCH  22  23
ENDBRANCH  20  22
ENDBRANCH  17  18
ENDBRANCH  14  17
ENDBRANCH  13  14
ENDBRANCH  12  13
BRANCH   1  28
HETATM   28  C3  UNL     1       5.115  60.856  27.369  1.00  0.00    -0.020 C
BRANCH  28  29
HETATM   29  C2  UNL     1       6.249  61.601  27.937  1.00  0.00    -0.002 C
HETATM   30  C1  UNL     1       6.269  61.975  29.207  1.00  0.00     0.011 C
ENDBRANCH  28  29
BRANCH  28  31
HETATM   31  C4  UNL     1       3.746  61.281  27.833  1.00  0.00     0.201 C
BRANCH  31  32
HETATM   32  O1  UNL     1       2.859  61.366  26.723  1.00  0.00    -0.397 OA
ATOM     33  H1  UNL     1       2.055  60.895  26.911  1.00  0.00     0.209 HD
ENDBRANCH  31  32
ENDBRANCH  28  31
ENDBRANCH   1  28
BRANCH   3  34
HETATM   34  O2  UNL     1       6.176  57.031  29.138  1.00  0.00    -0.393 OA
ATOM     35  H2  UNL     1       7.033  57.438  29.183  1.00  0.00     0.210 HD
ENDBRANCH   3  34
TORSDOF 12
ENDMDL