MODEL 3
REMARK VINA RESULT: -7.978181831      1.743      5.311
REMARK  11 active torsions:
REMARK  status: ('A' for Active; 'I' for Inactive)
REMARK    1  A    between atoms: N1_1  and  C1_4
REMARK    2  A    between atoms: N4_13  and  C6_14
REMARK    3  A    between atoms: C6_14  and  O1_15
REMARK    4  A    between atoms: C6_14  and  C7_17
REMARK    5  A    between atoms: C7_17  and  C8_18
REMARK    6  A    between atoms: C8_18  and  N5_19
REMARK    7  A    between atoms: N5_19  and  C9_20
REMARK    8  A    between atoms: N5_19  and  C18_31
REMARK    9  A    between atoms: C9_20  and  C10_21
REMARK       I    between atoms: C10_21  and  N6_23
REMARK   10  A    between atoms: N6_23  and  C11_24
REMARK   11  A    between atoms: C18_31  and  C19_32
ROOT
HETATM    1  C8  UNL     1       3.931  59.976  22.658  1.00  0.00     0.304 C
ENDROOT
BRANCH   1   2
HETATM    2  C7  UNL     1       5.161  60.146  21.886  1.00  0.00     0.059 C
BRANCH   2   3
HETATM    3  C6  UNL     1       5.760  61.405  21.482  1.00  0.00     0.140 C
BRANCH   3   4
HETATM    4  N4  UNL     1       6.526  61.600  20.335  1.00  0.00    -0.332 N
HETATM    5  C5  UNL     1       6.966  60.255  19.815  1.00  0.00     0.175 C
HETATM    6  C4  UNL     1       7.658  60.545  18.586  1.00  0.00     0.032 A
HETATM    7  C1  UNL     1       8.027  59.780  17.526  1.00  0.00     0.110 A
HETATM    8  C3  UNL     1       7.899  61.926  18.514  1.00  0.00     0.060 A
HETATM    9  N2  UNL     1       8.599  60.333  16.431  1.00  0.00    -0.338 N
HETATM   10  C2  UNL     1       8.826  61.666  16.352  1.00  0.00     0.182 A
ATOM     11  H2  UNL     1       8.865  59.733  15.650  1.00  0.00     0.168 HD
HETATM   12  N3  UNL     1       8.448  62.411  17.418  1.00  0.00    -0.351 N
ATOM     13  H3  UNL     1       8.598  63.419  17.368  1.00  0.00     0.166 HD
HETATM   14  C23 UNL     1       7.469  62.428  19.890  1.00  0.00     0.123 C
BRANCH   7  15
HETATM   15  N1  UNL     1       7.973  58.466  17.564  1.00  0.00    -0.385 N
ATOM     16  H12 UNL     1       7.098  57.959  17.432  1.00  0.00     0.157 HD
ATOM     17  H11 UNL     1       8.827  57.980  17.837  1.00  0.00     0.157 HD
ENDBRANCH   7  15
ENDBRANCH   3   4
BRANCH   3  18
HETATM   18  O1  UNL     1       6.110  62.268  22.552  1.00  0.00    -0.346 OA
ATOM     19  H1  UNL     1       6.832  61.946  23.079  1.00  0.00     0.219 HD
ENDBRANCH   3  18
ENDBRANCH   2   3
ENDBRANCH   1   2
BRANCH   1  20
HETATM   20  N5  UNL     1       3.996  59.245  23.910  1.00  0.00     0.104 N
BRANCH  20  21
HETATM   21  C9  UNL     1       3.501  60.229  24.926  1.00  0.00     0.390 C
BRANCH  21  22
HETATM   22  C10 UNL     1       4.731  60.872  25.472  1.00  0.00     0.315 C
HETATM   23  O2  UNL     1       5.093  61.974  25.182  1.00  0.00    -0.256 OA
HETATM   24  N6  UNL     1       5.406  60.070  26.398  1.00  0.00    -0.408 NA
BRANCH  24  25
HETATM   25  C11 UNL     1       6.069  59.328  27.279  1.00  0.00     0.167 C
HETATM   26  C12 UNL     1       6.411  58.041  26.228  1.00  0.00     0.039 C
HETATM   27  C13 UNL     1       7.338  57.214  26.944  1.00  0.00     0.003 C
HETATM   28  C14 UNL     1       6.641  56.172  27.823  1.00  0.00     0.000 C
HETATM   29  C15 UNL     1       5.130  56.261  27.692  1.00  0.00     0.000 C
HETATM   30  C16 UNL     1       4.533  57.570  28.062  1.00  0.00     0.003 C
HETATM   31  C17 UNL     1       5.509  58.655  28.420  1.00  0.00     0.039 C
ENDBRANCH  24  25
ENDBRANCH  21  22
ENDBRANCH  20  21
BRANCH  20  32
HETATM   32  C18 UNL     1       3.436  58.069  24.165  1.00  0.00     0.305 C
BRANCH  32  33
HETATM   33  C19 UNL     1       3.347  56.893  23.289  1.00  0.00     0.149 C
HETATM   34  C20 UNL     1       4.599  56.385  22.645  1.00  0.00     0.036 C
HETATM   35  C21 UNL     1       3.996  55.216  21.830  1.00  0.00     0.029 C
HETATM   36  C22 UNL     1       2.703  54.987  22.543  1.00  0.00     0.168 C
HETATM   37  O3  UNL     1       2.720  55.770  23.722  1.00  0.00    -0.384 OA
ENDBRANCH  32  33
ENDBRANCH  20  32
ENDBRANCH   1  20
TORSDOF 11
ENDMDL