MODEL 1
REMARK VINA RESULT: -7.289828646      0.000      0.000
REMARK  9 active torsions:
REMARK  status: ('A' for Active; 'I' for Inactive)
REMARK    1  A    between atoms: O1_1  and  C1_3
REMARK    2  A    between atoms: C1_3  and  C2_4
REMARK    3  A    between atoms: C1_3  and  C21_27
REMARK    4  A    between atoms: C2_4  and  N1_5
REMARK    5  A    between atoms: N1_5  and  C3_8
REMARK    6  A    between atoms: C3_8  and  C4_9
REMARK    7  A    between atoms: C4_9  and  C5_10
REMARK    8  A    between atoms: N2_14  and  C9_15
REMARK    9  A    between atoms: C21_27  and  N3_28
ROOT
HETATM    1  C5  UNL     1       3.471  57.320  23.897  1.00  0.00     0.015 C
HETATM    2  C6  UNL     1       4.924  56.848  24.088  1.00  0.00     0.008 C
HETATM    3  C7  UNL     1       5.609  57.730  25.126  1.00  0.00     0.031 C
HETATM    4  C8  UNL     1       5.497  59.184  24.739  1.00  0.00     0.273 C
HETATM    5  N2  UNL     1       4.910  59.215  23.401  1.00  0.00     0.097 N
HETATM    6  C20 UNL     1       3.520  58.778  23.626  1.00  0.00     0.278 C
ENDROOT
BRANCH   1   7
HETATM    7  C4  UNL     1       2.730  56.858  25.082  1.00  0.00     0.034 C
BRANCH   7   8
HETATM    8  C3  UNL     1       2.289  55.421  25.090  1.00  0.00     0.232 C
BRANCH   8   9
HETATM    9  N1  UNL     1       1.838  55.140  23.742  1.00  0.00    -0.073 N
ATOM     10  H12 UNL     1       2.527  55.458  23.060  1.00  0.00     0.277 HD
ATOM     11  H11 UNL     1       1.056  55.744  23.492  1.00  0.00     0.277 HD
BRANCH   9  12
HETATM   12  C2  UNL     1       1.502  53.756  23.512  1.00  0.00     0.265 C
BRANCH  12  13
HETATM   13  C1  UNL     1       1.301  53.640  21.995  1.00  0.00     0.172 C
BRANCH  13  14
HETATM   14  O1  UNL     1       2.170  52.640  21.522  1.00  0.00    -0.392 OA
ATOM     15  H1  UNL     1       3.037  53.021  21.447  1.00  0.00     0.210 HD
ENDBRANCH  13  14
BRANCH  13  16
HETATM   16  C21 UNL     1       1.545  54.932  21.276  1.00  0.00     0.305 C
BRANCH  16  17
HETATM   17  N3  UNL     1       2.628  54.876  20.315  1.00  0.00     0.090 N
HETATM   18  C22 UNL     1       3.816  55.571  20.755  1.00  0.00     0.272 C
HETATM   19  C23 UNL     1       3.861  56.872  20.022  1.00  0.00     0.032 C
HETATM   20  C24 UNL     1       2.663  56.871  19.134  1.00  0.00     0.032 C
HETATM   21  C25 UNL     1       2.260  55.438  19.048  1.00  0.00     0.272 C
ENDBRANCH  16  17
ENDBRANCH  13  16
ENDBRANCH  12  13
ENDBRANCH   9  12
ENDBRANCH   8   9
ENDBRANCH   7   8
ENDBRANCH   1   7
BRANCH   5  22
HETATM   22  C9  UNL     1       4.910  60.491  22.796  1.00  0.00     0.256 C
HETATM   23  C10 UNL     1       3.519  60.890  22.347  1.00  0.00     0.041 C
HETATM   24  C11 UNL     1       3.572  61.781  21.124  1.00  0.00     0.003 C
HETATM   25  C12 UNL     1       4.063  63.175  21.411  1.00  0.00     0.005 C
HETATM   26  C13 UNL     1       5.599  63.210  21.431  1.00  0.00     0.039 C
HETATM   27  C14 UNL     1       6.114  61.840  21.040  1.00  0.00    -0.050 A
HETATM   28  C15 UNL     1       6.963  61.901  19.962  1.00  0.00     0.007 A
HETATM   29  C19 UNL     1       5.810  60.631  21.629  1.00  0.00    -0.019 A
HETATM   30  C16 UNL     1       7.527  60.746  19.449  1.00  0.00     0.001 A
HETATM   31  C17 UNL     1       7.207  59.541  20.058  1.00  0.00     0.001 A
HETATM   32  C18 UNL     1       6.356  59.483  21.137  1.00  0.00     0.010 A
ENDBRANCH   5  22
TORSDOF 9
ENDMDL