MODEL 3
REMARK VINA RESULT: -6.789261034      2.879      4.387
REMARK  9 active torsions:
REMARK  status: ('A' for Active; 'I' for Inactive)
REMARK    1  A    between atoms: N1_7  and  C7_8
REMARK    2  A    between atoms: C7_8  and  C8_9
REMARK    3  A    between atoms: C17_18  and  O1_19
REMARK    4  A    between atoms: N2_22  and  C19_23
REMARK    5  A    between atoms: C19_23  and  C20_24
REMARK    6  A    between atoms: C20_24  and  C21_25
REMARK    7  A    between atoms: C21_25  and  C22_26
REMARK    8  A    between atoms: C22_26  and  C23_27
REMARK    9  A    between atoms: C23_27  and  C24_28
ROOT
HETATM    1  C1  UNL     1       3.119  64.147  25.257  1.00  0.00     0.043 C
HETATM    2  C2  UNL     1       3.273  62.707  25.030  1.00  0.00    -0.084 C
HETATM    3  C3  UNL     1       4.344  62.328  24.300  1.00  0.00     0.001 C
HETATM    4  C4  UNL     1       4.930  61.045  23.805  1.00  0.00     0.110 C
HETATM    5  C5  UNL     1       5.324  60.119  24.936  1.00  0.00     0.069 C
HETATM    6  C6  UNL     1       4.973  60.605  26.286  1.00  0.00     0.282 C
HETATM    7  N1  UNL     1       3.686  60.289  26.801  1.00  0.00     0.094 N
HETATM    8  C13 UNL     1       2.565  60.480  25.933  1.00  0.00     0.232 C
HETATM    9  C14 UNL     1       2.207  61.917  25.656  1.00  0.00     0.069 C
HETATM   10  C15 UNL     1       2.501  59.570  24.754  1.00  0.00     0.039 C
HETATM   11  C16 UNL     1       3.454  58.426  24.993  1.00  0.00     0.040 C
HETATM   12  C17 UNL     1       4.873  58.702  24.735  1.00  0.00     0.126 C
HETATM   13  C18 UNL     1       2.691  60.195  23.404  1.00  0.00     0.124 C
HETATM   14  N2  UNL     1       4.038  60.308  22.972  1.00  0.00    -0.404 N
ENDROOT
BRANCH  14  15
HETATM   15  C19 UNL     1       4.250  60.431  21.580  1.00  0.00     0.117 C
BRANCH  15  16
HETATM   16  C20 UNL     1       5.626  60.942  21.190  1.00  0.00     0.019 C
BRANCH  16  17
HETATM   17  C21 UNL     1       6.352  59.765  20.575  1.00  0.00     0.002 C
BRANCH  17  18
HETATM   18  C22 UNL     1       7.577  60.166  19.806  1.00  0.00     0.010 C
BRANCH  18  19
HETATM   19  C23 UNL     1       7.830  61.642  19.909  1.00  0.00     0.113 C
BRANCH  19  20
HETATM   20  C24 UNL     1       8.326  62.138  18.592  1.00  0.00     0.172 C
HETATM   21  O2  UNL     1       8.851  61.332  17.763  1.00  0.00    -0.648 OA
HETATM   22  O3  UNL     1       8.228  63.472  18.243  1.00  0.00    -0.648 OA
ENDBRANCH  19  20
ENDBRANCH  18  19
ENDBRANCH  17  18
ENDBRANCH  16  17
ENDBRANCH  15  16
ENDBRANCH  14  15
BRANCH  12  23
HETATM   23  O1  UNL     1       5.299  58.215  23.477  1.00  0.00    -0.395 OA
ATOM     24  H1  UNL     1       5.648  57.335  23.558  1.00  0.00     0.210 HD
ENDBRANCH  12  23
BRANCH   7  25
HETATM   25  C7  UNL     1       3.568  60.876  28.090  1.00  0.00     0.277 C
BRANCH  25  26
HETATM   26  C8  UNL     1       4.651  61.787  28.536  1.00  0.00     0.014 C
HETATM   27  C9  UNL     1       5.054  61.300  29.943  1.00  0.00     0.006 C
HETATM   28  C10 UNL     1       4.139  62.125  30.836  1.00  0.00     0.000 C
HETATM   29  C11 UNL     1       4.364  63.508  30.210  1.00  0.00     0.000 C
HETATM   30  C12 UNL     1       4.165  63.212  28.751  1.00  0.00     0.006 C
ENDBRANCH  25  26
ENDBRANCH   7  25
TORSDOF 9
ENDMDL