MODEL 1
REMARK VINA RESULT: -8.597447160      0.000      0.000
REMARK  9 active torsions:
REMARK  status: ('A' for Active; 'I' for Inactive)
REMARK    1  A    between atoms: C4_4  and  C5_5
REMARK    2  A    between atoms: C5_5  and  C6_6
REMARK    3  A    between atoms: C6_6  and  C7_7
REMARK    4  A    between atoms: C9_9  and  C10_10
REMARK    5  A    between atoms: C10_10  and  C11_11
REMARK    6  A    between atoms: C11_11  and  C12_12
REMARK    7  A    between atoms: C14_15  and  C15_16
REMARK       I    between atoms: N2_20  and  C19_21
REMARK    8  A    between atoms: C19_21  and  C20_23
REMARK    9  A    between atoms: C22_25  and  O2_26
ROOT
HETATM    1  C12 UNL     1       4.751  60.591  22.151  1.00  0.00     0.019 C
HETATM    2  C13 UNL     1       3.685  60.635  23.134  1.00  0.00     0.095 C
HETATM    3  N1  UNL     1       2.852  60.672  23.925  1.00  0.00    -0.192 NA
HETATM    4  C14 UNL     1       4.927  59.557  21.381  1.00  0.00    -0.002 C
ENDROOT
BRANCH   1   5
HETATM    5  C11 UNL     1       5.665  61.788  22.036  1.00  0.00     0.053 C
BRANCH   5   6
HETATM    6  C10 UNL     1       5.503  62.406  20.705  1.00  0.00     0.032 C
BRANCH   6   7
HETATM    7  C9  UNL     1       6.673  62.563  19.841  1.00  0.00    -0.024 C
HETATM    8  C7  UNL     1       7.600  61.736  19.481  1.00  0.00    -0.087 C
HETATM    9  C8  UNL     1       7.814  60.322  19.851  1.00  0.00     0.043 C
BRANCH   8  10
HETATM   10  C6  UNL     1       8.665  62.329  18.537  1.00  0.00     0.037 C
BRANCH  10  11
HETATM   11  C5  UNL     1       9.028  61.343  17.474  1.00  0.00     0.031 C
BRANCH  11  12
HETATM   12  C4  UNL     1       7.938  61.265  16.476  1.00  0.00    -0.024 C
HETATM   13  C2  UNL     1       7.459  60.119  16.021  1.00  0.00    -0.091 C
HETATM   14  C1  UNL     1       6.363  60.079  15.020  1.00  0.00     0.042 C
HETATM   15  C3  UNL     1       8.018  58.834  16.512  1.00  0.00     0.042 C
ENDBRANCH  11  12
ENDBRANCH  10  11
ENDBRANCH   8  10
ENDBRANCH   6   7
ENDBRANCH   5   6
ENDBRANCH   1   5
BRANCH   4  16
HETATM   16  C15 UNL     1       3.975  58.389  21.546  1.00  0.00     0.027 C
HETATM   17  C16 UNL     1       4.621  57.512  22.599  1.00  0.00     0.012 C
HETATM   18  C17 UNL     1       4.027  56.148  22.660  1.00  0.00     0.021 C
HETATM   19  C18 UNL     1       4.171  55.482  21.274  1.00  0.00     0.126 C
HETATM   20  N2  UNL     1       3.491  56.326  20.353  1.00  0.00    -0.350 N
HETATM   21  C19 UNL     1       2.440  55.853  19.549  1.00  0.00     0.250 C
HETATM   22  C24 UNL     1       3.894  57.707  20.219  1.00  0.00     0.134 C
HETATM   23  O1  UNL     1       1.811  56.626  18.753  1.00  0.00    -0.271 OA
BRANCH  21  24
HETATM   24  C20 UNL     1       2.054  54.421  19.628  1.00  0.00     0.279 C
HETATM   25  C21 UNL     1       0.936  54.241  18.602  1.00  0.00     0.076 C
HETATM   26  C22 UNL     1      -0.313  54.287  19.448  1.00  0.00     0.146 C
HETATM   27  C23 UNL     1       0.192  53.522  20.680  1.00  0.00     0.264 C
HETATM   28  N3  UNL     1       1.423  54.205  20.919  1.00  0.00    -0.060 N
ATOM     29  H32 UNL     1       2.027  53.720  21.583  1.00  0.00     0.278 HD
ATOM     30  H31 UNL     1       1.304  55.066  21.454  1.00  0.00     0.278 HD
BRANCH  26  31
HETATM   31  O2  UNL     1      -0.621  55.599  19.779  1.00  0.00    -0.394 OA
ATOM     32  H2  UNL     1       0.053  55.964  20.340  1.00  0.00     0.210 HD
ENDBRANCH  26  31
ENDBRANCH  21  24
ENDBRANCH   4  16
TORSDOF 9
ENDMDL