MODEL 3
REMARK VINA RESULT: -8.180061387      0.812      3.319
REMARK  8 active torsions:
REMARK  status: ('A' for Active; 'I' for Inactive)
REMARK    1  A    between atoms: N1_2  and  C2_5
REMARK    2  A    between atoms: C6_10  and  C7_11
REMARK    3  A    between atoms: C7_11  and  O2_12
REMARK    4  A    between atoms: N2_16  and  C10_17
REMARK    5  A    between atoms: C10_17  and  C11_18
REMARK    6  A    between atoms: C11_18  and  C12_19
REMARK    7  A    between atoms: C12_19  and  C13_20
REMARK    8  A    between atoms: C12_19  and  C19_26
ROOT
HETATM    1  C2  UNL     1       1.870  53.872  22.579  1.00  0.00     0.202 C
HETATM    2  C3  UNL     1       0.475  53.385  22.475  1.00  0.00     0.037 C
HETATM    3  C4  UNL     1      -0.000  53.050  21.097  1.00  0.00     0.035 C
HETATM    4  C5  UNL     1       0.605  53.839  19.998  1.00  0.00     0.132 C
HETATM    5  O1  UNL     1       1.676  53.115  19.474  1.00  0.00    -0.377 OA
HETATM    6  C6  UNL     1       2.766  53.335  20.285  1.00  0.00     0.161 C
HETATM    7  C8  UNL     1       2.421  54.374  21.302  1.00  0.00     0.059 C
HETATM    8  C9  UNL     1       3.411  55.487  21.391  1.00  0.00     0.083 C
HETATM    9  N2  UNL     1       3.176  56.240  20.223  1.00  0.00    -0.353 N
HETATM   10  C25 UNL     1       1.999  55.900  19.585  1.00  0.00     0.076 C
HETATM   11  C26 UNL     1       1.253  55.067  20.585  1.00  0.00     0.072 C
ENDROOT
BRANCH   9  12
HETATM   12  C10 UNL     1       4.024  57.256  19.837  1.00  0.00     0.069 C
BRANCH  12  13
HETATM   13  C11 UNL     1       3.999  58.528  20.610  1.00  0.00     0.059 C
BRANCH  13  14
HETATM   14  C12 UNL     1       5.294  58.790  21.341  1.00  0.00     0.056 C
BRANCH  14  15
HETATM   15  C13 UNL     1       5.975  60.005  20.841  1.00  0.00    -0.049 A
HETATM   16  C14 UNL     1       7.187  59.828  20.211  1.00  0.00     0.008 A
HETATM   17  C15 UNL     1       7.849  60.943  19.748  1.00  0.00     0.001 A
HETATM   18  C16 UNL     1       7.344  62.222  19.891  1.00  0.00     0.000 A
HETATM   19  C17 UNL     1       6.135  62.414  20.517  1.00  0.00     0.001 A
HETATM   20  C18 UNL     1       5.476  61.270  20.981  1.00  0.00     0.008 A
ENDBRANCH  14  15
BRANCH  14  21
HETATM   21  C19 UNL     1       5.201  58.743  22.797  1.00  0.00    -0.049 A
HETATM   22  C20 UNL     1       5.176  57.569  23.516  1.00  0.00     0.008 A
HETATM   23  C21 UNL     1       5.091  57.554  24.899  1.00  0.00     0.001 A
HETATM   24  C22 UNL     1       5.030  58.752  25.578  1.00  0.00     0.000 A
HETATM   25  C23 UNL     1       5.053  59.968  24.887  1.00  0.00     0.001 A
HETATM   26  C24 UNL     1       5.139  59.931  23.513  1.00  0.00     0.008 A
ENDBRANCH  14  21
ENDBRANCH  13  14
ENDBRANCH  12  13
ENDBRANCH   9  12
BRANCH   1  27
HETATM   27  N1  UNL     1       1.908  54.983  23.532  1.00  0.00    -0.074 N
HETATM   28  C1  UNL     1       1.564  54.536  24.866  1.00  0.00     0.267 C
ATOM     29  H12 UNL     1       1.316  55.757  23.231  1.00  0.00     0.277 HD
ATOM     30  H11 UNL     1       2.808  55.462  23.517  1.00  0.00     0.277 HD
ENDBRANCH   1  27
BRANCH   6  31
HETATM   31  C7  UNL     1       3.302  52.057  20.859  1.00  0.00     0.197 C
BRANCH  31  32
HETATM   32  O2  UNL     1       4.409  51.582  20.160  1.00  0.00    -0.398 OA
ATOM     33  H2  UNL     1       4.177  50.928  19.511  1.00  0.00     0.209 HD
ENDBRANCH  31  32
ENDBRANCH   6  31
TORSDOF 8
ENDMDL