MODEL 5
REMARK VINA RESULT: -7.079221968      2.336      3.433
REMARK  8 active torsions:
REMARK  status: ('A' for Active; 'I' for Inactive)
REMARK    1  A    between atoms: S1_2  and  C2_3
REMARK    2  A    between atoms: C2_3  and  C3_4
REMARK    3  A    between atoms: C3_4  and  C4_5
REMARK    4  A    between atoms: C5_8  and  C6_9
REMARK       I    between atoms: C6_9  and  N2_11
REMARK    5  A    between atoms: N2_11  and  C7_13
REMARK    6  A    between atoms: C7_13  and  C8_14
REMARK    7  A    between atoms: C8_14  and  C9_15
REMARK    8  A    between atoms: N3_18  and  C12_19
ROOT
HETATM    1  C6  UNL     1       5.026  59.771  25.720  1.00  0.00     0.240 C
HETATM    2  O1  UNL     1       5.677  58.833  25.218  1.00  0.00    -0.271 OA
HETATM    3  N2  UNL     1       3.835  60.217  25.097  1.00  0.00    -0.359 N
ATOM      4  H2  UNL     1       3.297  60.986  25.497  1.00  0.00     0.162 HD
ENDROOT
BRANCH   3   5
HETATM    5  C7  UNL     1       3.395  59.564  23.882  1.00  0.00     0.123 C
BRANCH   5   6
HETATM    6  C8  UNL     1       3.416  60.589  22.767  1.00  0.00     0.024 C
BRANCH   6   7
HETATM    7  C9  UNL     1       4.853  60.829  22.333  1.00  0.00    -0.007 C
HETATM    8  C10 UNL     1       5.351  59.570  21.694  1.00  0.00     0.025 C
HETATM    9  C11 UNL     1       6.393  59.711  20.665  1.00  0.00     0.122 C
HETATM   10  N3  UNL     1       7.068  60.957  20.583  1.00  0.00    -0.389 N
HETATM   11  C18 UNL     1       6.342  62.110  20.933  1.00  0.00     0.059 C
HETATM   12  C19 UNL     1       4.897  61.904  21.271  1.00  0.00     0.049 C
BRANCH  10  13
HETATM   13  C12 UNL     1       7.916  61.132  19.465  1.00  0.00     0.083 C
HETATM   14  C13 UNL     1       7.750  62.464  18.764  1.00  0.00     0.025 C
HETATM   15  C14 UNL     1       8.868  62.568  17.747  1.00  0.00     0.002 C
HETATM   16  C15 UNL     1       8.975  61.376  16.859  1.00  0.00     0.000 C
HETATM   17  C16 UNL     1       7.797  60.446  17.059  1.00  0.00     0.002 C
HETATM   18  C17 UNL     1       7.736  59.977  18.507  1.00  0.00     0.025 C
ENDBRANCH  10  13
ENDBRANCH   6   7
ENDBRANCH   5   6
ENDBRANCH   3   5
BRANCH   1  19
HETATM   19  C5  UNL     1       5.515  60.404  26.971  1.00  0.00     0.170 C
HETATM   20  N1  UNL     1       4.901  59.834  28.093  1.00  0.00    -0.398 N
HETATM   21  C4  UNL     1       5.265  60.342  29.391  1.00  0.00     0.148 C
ATOM     22  H1  UNL     1       4.218  59.083  27.995  1.00  0.00     0.154 HD
HETATM   23  C22 UNL     1       6.096  61.591  29.260  1.00  0.00     0.149 C
HETATM   24  C21 UNL     1       6.156  62.449  28.058  1.00  0.00     0.083 C
HETATM   25  O2  UNL     1       6.771  61.934  30.209  1.00  0.00    -0.296 OA
HETATM   26  C20 UNL     1       5.253  61.905  26.957  1.00  0.00     0.042 C
BRANCH  21  27
HETATM   27  C3  UNL     1       3.988  60.645  30.111  1.00  0.00     0.043 C
BRANCH  27  28
HETATM   28  C2  UNL     1       2.716  60.633  29.364  1.00  0.00     0.076 C
BRANCH  28  29
HETATM   29  S1  UNL     1       2.009  62.213  28.964  1.00  0.00    -0.173 SA
HETATM   30  C1  UNL     1       1.216  62.384  27.392  1.00  0.00     0.089 C
ENDBRANCH  28  29
ENDBRANCH  27  28
ENDBRANCH  21  27
ENDBRANCH   1  19
TORSDOF 8
ENDMDL