MODEL 5
REMARK VINA RESULT: -6.550647961      5.954      9.261
REMARK  9 active torsions:
REMARK  status: ('A' for Active; 'I' for Inactive)
REMARK    1  A    between atoms: C4_4  and  C5_5
REMARK    2  A    between atoms: C5_5  and  C6_6
REMARK    3  A    between atoms: C6_6  and  C7_7
REMARK    4  A    between atoms: C8_8  and  C9_9
REMARK    5  A    between atoms: C10_10  and  C11_11
REMARK    6  A    between atoms: C14_16  and  C15_17
REMARK    7  A    between atoms: C17_19  and  C18_20
REMARK    8  A    between atoms: C19_23  and  C20_24
REMARK    9  A    between atoms: C21_25  and  C22_26
ROOT
HETATM    1  C1  UNL     1       4.025  57.369  24.183  1.00  0.00     0.037 C
HETATM    2  C2  UNL     1       4.130  58.536  24.780  1.00  0.00    -0.004 C
HETATM    3  C3  UNL     1       5.271  59.443  24.520  1.00  0.00     0.062 C
HETATM    4  C4  UNL     1       4.928  60.864  24.699  1.00  0.00     0.018 C
HETATM    5  C17 UNL     1       3.874  61.230  25.683  1.00  0.00     0.118 C
HETATM    6  C19 UNL     1       2.690  60.328  25.787  1.00  0.00     0.119 C
HETATM    7  N1  UNL     1       3.122  58.918  25.686  1.00  0.00    -0.385 N
ATOM      8  H1  UNL     1       2.685  58.213  26.279  1.00  0.00     0.160 HD
ENDROOT
BRANCH   4   9
HETATM    9  C5  UNL     1       4.710  61.544  23.369  1.00  0.00     0.090 C
BRANCH   9  10
HETATM   10  C6  UNL     1       5.459  61.417  22.425  1.00  0.00    -0.155 C
BRANCH  10  11
HETATM   11  C7  UNL     1       6.350  61.266  21.304  1.00  0.00     0.050 C
HETATM   12  C8  UNL     1       6.661  60.022  20.863  1.00  0.00     0.007 C
BRANCH  12  13
HETATM   13  C9  UNL     1       7.556  59.822  19.730  1.00  0.00    -0.003 C
HETATM   14  C10 UNL     1       7.162  59.826  18.492  1.00  0.00    -0.019 C
BRANCH  14  15
HETATM   15  C11 UNL     1       8.035  59.631  17.346  1.00  0.00     0.046 C
HETATM   16  C12 UNL     1       7.417  58.682  16.346  1.00  0.00     0.188 C
HETATM   17  O1  UNL     1       6.379  59.472  15.755  1.00  0.00    -0.320 OA
HETATM   18  C13 UNL     1       6.868  60.765  15.631  1.00  0.00     0.263 C
HETATM   19  O2  UNL     1       6.358  61.666  14.944  1.00  0.00    -0.265 OA
HETATM   20  C14 UNL     1       8.086  60.879  16.451  1.00  0.00     0.095 C
BRANCH  20  21
HETATM   21  C15 UNL     1       8.150  62.152  17.209  1.00  0.00     0.011 C
HETATM   22  C16 UNL     1       9.431  62.269  18.000  1.00  0.00     0.006 C
ENDBRANCH  20  21
ENDBRANCH  14  15
ENDBRANCH  12  13
ENDBRANCH  10  11
ENDBRANCH   9  10
ENDBRANCH   4   9
BRANCH   5  23
HETATM   23  C18 UNL     1       3.622  62.661  25.596  1.00  0.00     0.179 C
HETATM   24  O3  UNL     1       2.710  63.212  24.929  1.00  0.00    -0.648 OA
HETATM   25  O4  UNL     1       4.444  63.532  26.300  1.00  0.00    -0.648 OA
ENDBRANCH   5  23
BRANCH   6  26
HETATM   26  C20 UNL     1       1.648  60.455  24.763  1.00  0.00    -0.001 C
HETATM   27  C21 UNL     1       0.355  60.525  24.899  1.00  0.00    -0.002 C
BRANCH  27  28
HETATM   28  C22 UNL     1      -0.433  60.496  26.102  1.00  0.00    -0.005 C
HETATM   29  C23 UNL     1      -1.045  59.384  26.459  1.00  0.00    -0.031 C
HETATM   30  C24 UNL     1      -1.875  59.249  27.672  1.00  0.00     0.036 C
ENDBRANCH  27  28
ENDBRANCH   6  26
TORSDOF 9
ENDMDL