MODEL 4
REMARK VINA RESULT: -7.789277367      3.628      6.917
REMARK  9 active torsions:
REMARK  status: ('A' for Active; 'I' for Inactive)
REMARK    1  A    between atoms: C1_2  and  C2_4
REMARK    2  A    between atoms: C2_4  and  C3_5
REMARK    3  A    between atoms: N2_11  and  C9_12
REMARK    4  A    between atoms: C9_12  and  C10_13
REMARK    5  A    between atoms: C10_13  and  O2_14
REMARK    6  A    between atoms: O2_14  and  C11_15
REMARK    7  A    between atoms: C11_15  and  O3_16
REMARK    8  A    between atoms: C11_15  and  C12_18
REMARK    9  A    between atoms: C11_15  and  C18_24
ROOT
HETATM    1  O2  UNL     1       4.720  58.496  20.711  1.00  0.00    -0.346 OA
ENDROOT
BRANCH   1   2
HETATM    2  C10 UNL     1       3.586  58.048  20.129  1.00  0.00     0.202 C
BRANCH   2   3
HETATM    3  C9  UNL     1       3.687  57.041  19.037  1.00  0.00     0.298 C
BRANCH   3   4
HETATM    4  N2  UNL     1       3.299  55.722  19.477  1.00  0.00     0.090 N
HETATM    5  C8  UNL     1       1.881  55.490  19.302  1.00  0.00     0.273 C
HETATM    6  C7  UNL     1       1.171  55.236  20.604  1.00  0.00     0.049 C
HETATM    7  C2  UNL     1       1.774  54.053  21.349  1.00  0.00     0.045 C
HETATM    8  C25 UNL     1       3.232  54.009  21.115  1.00  0.00     0.049 C
HETATM    9  C24 UNL     1       3.730  55.408  20.811  1.00  0.00     0.273 C
BRANCH   7  10
HETATM   10  C1  UNL     1       1.177  52.810  20.728  1.00  0.00     0.240 C
HETATM   11  N1  UNL     1       2.039  51.867  20.109  1.00  0.00    -0.061 NA
HETATM   12  O1  UNL     1      -0.056  52.589  20.744  1.00  0.00    -0.276 OA
ENDBRANCH   7  10
BRANCH   7  13
HETATM   13  C3  UNL     1       1.290  54.098  22.741  1.00  0.00     0.003 C
HETATM   14  C4  UNL     1       1.920  54.980  23.747  1.00  0.00     0.006 C
HETATM   15  C5  UNL     1       1.466  53.944  24.794  1.00  0.00     0.001 C
HETATM   16  C6  UNL     1       1.604  52.926  23.647  1.00  0.00     0.006 C
ENDBRANCH   7  13
ENDBRANCH   3   4
ENDBRANCH   2   3
ENDBRANCH   1   2
BRANCH   1  17
HETATM   17  C11 UNL     1       4.729  59.672  21.383  1.00  0.00     0.220 C
BRANCH  17  18
HETATM   18  O3  UNL     1       3.564  60.421  21.308  1.00  0.00    -0.358 OA
ATOM     19  H3  UNL     1       3.189  60.688  22.138  1.00  0.00     0.213 HD
ENDBRANCH  17  18
BRANCH  17  20
HETATM   20  C12 UNL     1       4.978  59.473  22.860  1.00  0.00     0.008 A
HETATM   21  C13 UNL     1       5.216  58.233  23.408  1.00  0.00     0.013 A
HETATM   22  C14 UNL     1       5.447  58.011  24.739  1.00  0.00     0.001 A
HETATM   23  C15 UNL     1       5.438  59.108  25.579  1.00  0.00     0.000 A
HETATM   24  C16 UNL     1       5.205  60.378  25.085  1.00  0.00     0.001 A
HETATM   25  C17 UNL     1       4.978  60.549  23.738  1.00  0.00     0.013 A
ENDBRANCH  17  20
BRANCH  17  26
HETATM   26  C18 UNL     1       5.817  60.573  20.860  1.00  0.00     0.008 A
HETATM   27  C19 UNL     1       6.989  60.052  20.362  1.00  0.00     0.013 A
HETATM   28  C20 UNL     1       8.003  60.862  19.879  1.00  0.00     0.001 A
HETATM   29  C21 UNL     1       7.837  62.238  19.896  1.00  0.00     0.000 A
HETATM   30  C22 UNL     1       6.673  62.780  20.390  1.00  0.00     0.001 A
HETATM   31  C23 UNL     1       5.666  61.938  20.871  1.00  0.00     0.013 A
ENDBRANCH  17  26
ENDBRANCH   1  17
TORSDOF 9
ENDMDL