MODEL 4
REMARK VINA RESULT: -7.472133914      2.001      6.849
REMARK  8 active torsions:
REMARK  status: ('A' for Active; 'I' for Inactive)
REMARK       I    between atoms: C1_2  and  N1_3
REMARK    1  A    between atoms: C1_2  and  C7_10
REMARK    2  A    between atoms: N1_3  and  C2_5
REMARK    3  A    between atoms: C10_13  and  N2_14
REMARK    4  A    between atoms: N2_14  and  C11_17
REMARK    5  A    between atoms: C11_17  and  C12_18
REMARK    6  A    between atoms: C12_18  and  C13_19
REMARK    7  A    between atoms: C13_19  and  N3_20
REMARK    8  A    between atoms: N4_23  and  C16_24
ROOT
HETATM    1  N2  UNL     1       3.099  61.684  24.814  1.00  0.00    -0.071 N
ATOM      2  H21 UNL     1       2.357  60.990  24.727  1.00  0.00     0.277 HD
ATOM      3  H22 UNL     1       2.519  62.521  24.849  1.00  0.00     0.277 HD
ENDROOT
BRANCH   1   4
HETATM    4  C10 UNL     1       3.978  61.682  23.663  1.00  0.00     0.186 C
HETATM    5  C9  UNL     1       4.271  63.090  23.192  1.00  0.00     0.034 C
HETATM    6  C8  UNL     1       4.051  63.252  21.723  1.00  0.00     0.016 C
HETATM    7  C7  UNL     1       4.576  62.110  20.897  1.00  0.00     0.078 C
HETATM    8  C24 UNL     1       4.370  60.751  21.471  1.00  0.00     0.016 C
HETATM    9  C23 UNL     1       3.342  60.858  22.573  1.00  0.00     0.034 C
BRANCH   7  10
HETATM   10  C1  UNL     1       6.056  62.294  20.684  1.00  0.00     0.222 C
HETATM   11  O1  UNL     1       6.780  62.365  21.737  1.00  0.00    -0.273 OA
HETATM   12  N1  UNL     1       6.621  62.382  19.406  1.00  0.00    -0.356 N
ATOM     13  H1  UNL     1       6.020  62.327  18.584  1.00  0.00     0.162 HD
BRANCH  12  14
HETATM   14  C2  UNL     1       8.053  62.550  19.239  1.00  0.00     0.084 C
HETATM   15  C3  UNL     1       8.315  62.932  17.802  1.00  0.00     0.025 C
HETATM   16  C4  UNL     1       7.908  61.662  17.081  1.00  0.00     0.002 C
HETATM   17  C5  UNL     1       8.254  60.538  18.027  1.00  0.00     0.002 C
HETATM   18  C6  UNL     1       8.692  61.191  19.329  1.00  0.00     0.025 C
ENDBRANCH  12  14
ENDBRANCH   7  10
ENDBRANCH   1   4
BRANCH   1  19
HETATM   19  C11 UNL     1       3.869  61.505  26.032  1.00  0.00     0.234 C
BRANCH  19  20
HETATM   20  C12 UNL     1       4.859  60.370  25.829  1.00  0.00     0.057 C
BRANCH  20  21
HETATM   21  C13 UNL     1       4.169  59.107  26.241  1.00  0.00     0.274 C
BRANCH  21  22
HETATM   22  N3  UNL     1       3.932  58.281  25.101  1.00  0.00     0.091 N
HETATM   23  C14 UNL     1       5.087  57.407  24.927  1.00  0.00     0.292 C
HETATM   24  C15 UNL     1       5.117  57.078  23.426  1.00  0.00     0.154 C
HETATM   25  N4  UNL     1       3.785  56.613  23.110  1.00  0.00    -0.364 N
HETATM   26  C21 UNL     1       2.863  56.331  24.183  1.00  0.00     0.154 C
HETATM   27  C22 UNL     1       2.695  57.582  25.055  1.00  0.00     0.292 C
BRANCH  25  28
HETATM   28  C16 UNL     1       3.423  56.454  21.755  1.00  0.00     0.102 A
HETATM   29  C17 UNL     1       4.038  57.203  20.771  1.00  0.00     0.048 A
HETATM   30  C18 UNL     1       3.659  57.018  19.471  1.00  0.00     0.005 A
HETATM   31  C19 UNL     1       2.680  56.103  19.138  1.00  0.00     0.017 A
HETATM   32  C20 UNL     1       2.107  55.388  20.179  1.00  0.00     0.089 A
HETATM   33  N5  UNL     1       2.457  55.545  21.466  1.00  0.00    -0.352 N
ATOM     34  H5  UNL     1       2.010  54.998  22.202  1.00  0.00     0.166 HD
ENDBRANCH  25  28
ENDBRANCH  21  22
ENDBRANCH  20  21
ENDBRANCH  19  20
ENDBRANCH   1  19
TORSDOF 8
ENDMDL