MODEL 1
REMARK VINA RESULT: -7.009965999      0.000      0.000
REMARK  9 active torsions:
REMARK  status: ('A' for Active; 'I' for Inactive)
REMARK    1  A    between atoms: C6_6  and  C7_7
REMARK    2  A    between atoms: C7_7  and  C8_8
REMARK    3  A    between atoms: C8_8  and  N1_9
REMARK    4  A    between atoms: C8_8  and  C9_13
REMARK       I    between atoms: C9_13  and  N2_15
REMARK    5  A    between atoms: N2_15  and  C10_17
REMARK    6  A    between atoms: C10_17  and  C11_18
REMARK    7  A    between atoms: C11_18  and  C12_19
REMARK    8  A    between atoms: C12_19  and  N3_20
REMARK    9  A    between atoms: N4_23  and  C15_24
ROOT
HETATM    1  C9  UNL     1       4.316  61.516  23.163  1.00  0.00     0.248 C
HETATM    2  O1  UNL     1       3.224  60.866  23.277  1.00  0.00    -0.271 OA
HETATM    3  N2  UNL     1       4.968  62.086  24.276  1.00  0.00    -0.359 N
ATOM      4  H2  UNL     1       5.839  62.605  24.167  1.00  0.00     0.162 HD
ENDROOT
BRANCH   3   5
HETATM    5  C10 UNL     1       4.369  61.912  25.562  1.00  0.00     0.124 C
BRANCH   5   6
HETATM    6  C11 UNL     1       5.123  60.877  26.395  1.00  0.00     0.050 C
BRANCH   6   7
HETATM    7  C12 UNL     1       4.170  59.712  26.691  1.00  0.00     0.274 C
BRANCH   7   8
HETATM    8  N3  UNL     1       5.009  58.546  26.919  1.00  0.00     0.094 N
HETATM    9  C13 UNL     1       6.035  58.444  25.880  1.00  0.00     0.292 C
HETATM   10  C14 UNL     1       5.693  57.432  24.820  1.00  0.00     0.152 C
HETATM   11  N4  UNL     1       4.280  57.585  24.564  1.00  0.00    -0.385 N
HETATM   12  C21 UNL     1       3.460  57.119  25.612  1.00  0.00     0.088 C
HETATM   13  C22 UNL     1       4.207  57.326  26.928  1.00  0.00     0.316 C
BRANCH  11  14
HETATM   14  C15 UNL     1       3.883  57.501  23.228  1.00  0.00     0.083 C
HETATM   15  C16 UNL     1       3.212  56.256  22.761  1.00  0.00     0.025 C
HETATM   16  C17 UNL     1       3.854  55.667  21.524  1.00  0.00     0.002 C
HETATM   17  C18 UNL     1       4.000  56.639  20.394  1.00  0.00     0.000 C
HETATM   18  C19 UNL     1       4.157  58.057  20.902  1.00  0.00     0.002 C
HETATM   19  C20 UNL     1       4.957  57.921  22.208  1.00  0.00     0.025 C
ENDBRANCH  11  14
ENDBRANCH   7   8
ENDBRANCH   6   7
ENDBRANCH   5   6
ENDBRANCH   3   5
BRANCH   1  20
HETATM   20  C8  UNL     1       4.860  61.634  21.760  1.00  0.00     0.275 C
BRANCH  20  21
HETATM   21  C7  UNL     1       6.166  62.319  21.824  1.00  0.00     0.047 C
BRANCH  21  22
HETATM   22  C6  UNL     1       7.217  61.980  20.842  1.00  0.00    -0.012 C
HETATM   23  C5  UNL     1       7.572  62.980  19.810  1.00  0.00     0.005 C
HETATM   24  C4  UNL     1       7.360  62.490  18.394  1.00  0.00     0.009 C
HETATM   25  C2  UNL     1       8.137  61.211  18.151  1.00  0.00    -0.048 C
HETATM   26  C1  UNL     1       9.595  61.516  17.835  1.00  0.00     0.015 C
HETATM   27  C3  UNL     1       7.544  60.530  16.944  1.00  0.00     0.015 C
HETATM   28  C24 UNL     1       8.086  60.281  19.317  1.00  0.00     0.009 C
HETATM   29  C23 UNL     1       6.882  60.617  20.159  1.00  0.00     0.005 C
ENDBRANCH  21  22
ENDBRANCH  20  21
BRANCH  20  30
HETATM   30  N1  UNL     1       3.901  62.346  20.981  1.00  0.00    -0.066 N
ATOM     31  H13 UNL     1       3.149  62.707  21.567  1.00  0.00     0.275 HD
ATOM     32  H12 UNL     1       4.287  63.228  20.644  1.00  0.00     0.275 HD
ATOM     33  H11 UNL     1       3.529  61.791  20.210  1.00  0.00     0.275 HD
ENDBRANCH  20  30
ENDBRANCH   1  20
TORSDOF 9
ENDMDL