MODEL 1
REMARK VINA RESULT: -8.337564012      0.000      0.000
REMARK  10 active torsions:
REMARK  status: ('A' for Active; 'I' for Inactive)
REMARK    1  A    between atoms: O1_1  and  C1_3
REMARK    2  A    between atoms: C1_3  and  C2_4
REMARK    3  A    between atoms: C2_4  and  C3_5
REMARK    4  A    between atoms: N1_13  and  C11_14
REMARK    5  A    between atoms: C11_14  and  C12_15
REMARK    6  A    between atoms: C12_15  and  O2_16
REMARK    7  A    between atoms: C12_15  and  C13_18
REMARK    8  A    between atoms: C12_15  and  C20_26
REMARK    9  A    between atoms: C13_18  and  O3_19
REMARK   10  A    between atoms: O3_19  and  C14_20
ROOT
HETATM    1  C12 UNL     1       5.055  60.080  21.618  1.00  0.00     0.133 C
ENDROOT
BRANCH   1   2
HETATM    2  C11 UNL     1       5.088  58.628  21.331  1.00  0.00     0.317 C
BRANCH   2   3
HETATM    3  N1  UNL     1       3.905  57.881  21.345  1.00  0.00     0.094 N
HETATM    4  C10 UNL     1       3.380  57.825  19.984  1.00  0.00     0.275 C
HETATM    5  C9  UNL     1       3.808  56.420  19.558  1.00  0.00     0.070 C
HETATM    6  C1  UNL     1       3.508  55.619  20.767  1.00  0.00     0.089 C
HETATM    7  C26 UNL     1       3.838  56.597  21.895  1.00  0.00     0.310 C
BRANCH   6   8
HETATM    8  O1  UNL     1       4.328  54.482  20.883  1.00  0.00    -0.388 OA
ATOM      9  H1  UNL     1       4.312  54.176  21.782  1.00  0.00     0.210 HD
ENDBRANCH   6   8
BRANCH   6  10
HETATM   10  C2  UNL     1       2.065  55.205  20.884  1.00  0.00     0.078 C
BRANCH  10  11
HETATM   11  C3  UNL     1       1.604  54.291  19.835  1.00  0.00    -0.055 A
HETATM   12  C4  UNL     1       1.866  52.928  19.860  1.00  0.00     0.007 A
HETATM   13  C5  UNL     1       1.429  52.073  18.877  1.00  0.00     0.001 A
HETATM   14  C6  UNL     1       0.693  52.597  17.812  1.00  0.00     0.000 A
HETATM   15  C7  UNL     1       0.411  53.946  17.751  1.00  0.00     0.001 A
HETATM   16  C8  UNL     1       0.869  54.765  18.760  1.00  0.00     0.007 A
ENDBRANCH  10  11
ENDBRANCH   6  10
ENDBRANCH   2   3
ENDBRANCH   1   2
BRANCH   1  17
HETATM   17  O2  UNL     1       3.820  60.642  21.300  1.00  0.00    -0.381 OA
ATOM     18  H2  UNL     1       3.108  60.210  21.757  1.00  0.00     0.211 HD
ENDBRANCH   1  17
BRANCH   1  19
HETATM   19  C13 UNL     1       5.357  60.318  23.073  1.00  0.00     0.220 C
BRANCH  19  20
HETATM   20  O3  UNL     1       4.661  59.431  23.923  1.00  0.00    -0.348 OA
BRANCH  20  21
HETATM   21  C14 UNL     1       5.397  58.889  24.983  1.00  0.00     0.068 A
HETATM   22  C15 UNL     1       5.929  57.621  24.902  1.00  0.00     0.037 A
HETATM   23  C16 UNL     1       6.656  57.063  25.931  1.00  0.00     0.003 A
HETATM   24  C17 UNL     1       6.865  57.782  27.081  1.00  0.00     0.000 A
HETATM   25  C18 UNL     1       6.352  59.049  27.202  1.00  0.00     0.003 A
HETATM   26  C19 UNL     1       5.633  59.577  26.161  1.00  0.00     0.037 A
ENDBRANCH  20  21
ENDBRANCH  19  20
ENDBRANCH   1  19
BRANCH   1  27
HETATM   27  C20 UNL     1       6.086  60.833  20.810  1.00  0.00    -0.020 A
HETATM   28  C21 UNL     1       7.045  60.132  20.100  1.00  0.00     0.010 A
HETATM   29  C22 UNL     1       8.015  60.754  19.344  1.00  0.00     0.001 A
HETATM   30  C23 UNL     1       8.047  62.133  19.278  1.00  0.00     0.000 A
HETATM   31  C24 UNL     1       7.108  62.853  19.970  1.00  0.00     0.001 A
HETATM   32  C25 UNL     1       6.131  62.204  20.735  1.00  0.00     0.010 A
ENDBRANCH   1  27
TORSDOF 10
ENDMDL