MODEL 5
REMARK VINA RESULT: -6.592616674      1.763      5.195
REMARK  11 active torsions:
REMARK  status: ('A' for Active; 'I' for Inactive)
REMARK    1  A    between atoms: C2_2  and  O1_4
REMARK    2  A    between atoms: C2_2  and  C4_6
REMARK    3  A    between atoms: C4_6  and  O2_7
REMARK    4  A    between atoms: C4_6  and  C15_18
REMARK    5  A    between atoms: O2_7  and  C5_8
REMARK    6  A    between atoms: C15_18  and  O3_19
REMARK    7  A    between atoms: C15_18  and  C16_21
REMARK    8  A    between atoms: C16_21  and  N1_22
REMARK    9  A    between atoms: C18_24  and  O4_25
REMARK   10  A    between atoms: C20_28  and  C21_29
REMARK   11  A    between atoms: C21_29  and  C22_30
ROOT
HETATM    1  C15 UNL     1      15.434  -7.308  -8.585  1.00  0.00     0.168 C
ENDROOT
BRANCH   1   2
HETATM    2  C4  UNL     1      16.321  -6.532  -7.643  1.00  0.00     0.192 C
BRANCH   2   3
HETATM    3  C2  UNL     1      16.551  -5.093  -8.037  1.00  0.00     0.080 C
HETATM    4  C1  UNL     1      17.322  -4.383  -6.926  1.00  0.00     0.048 C
HETATM    5  C3  UNL     1      17.496  -5.063  -9.247  1.00  0.00     0.048 C
BRANCH   3   6
HETATM    6  O1  UNL     1      15.464  -4.361  -8.373  1.00  0.00    -0.388 OA
ATOM      7  H1  UNL     1      14.684  -4.767  -8.013  1.00  0.00     0.210 HD
ENDBRANCH   3   6
ENDBRANCH   2   3
BRANCH   2   8
HETATM    8  O2  UNL     1      15.779  -6.568  -6.328  1.00  0.00    -0.340 OA
BRANCH   8   9
HETATM    9  C5  UNL     1      16.289  -7.197  -5.228  1.00  0.00     0.070 A
HETATM   10  C6  UNL     1      15.851  -6.991  -3.951  1.00  0.00     0.037 A
HETATM   11  C7  UNL     1      16.402  -7.658  -2.843  1.00  0.00     0.015 A
HETATM   12  C8  UNL     1      17.422  -8.552  -3.071  1.00  0.00    -0.026 A
HETATM   13  C9  UNL     1      17.998  -9.233  -2.018  1.00  0.00     0.012 A
HETATM   14  C13 UNL     1      17.896  -8.790  -4.342  1.00  0.00    -0.023 A
HETATM   15  C10 UNL     1      19.019 -10.128  -2.242  1.00  0.00     0.001 A
HETATM   16  C11 UNL     1      19.496 -10.371  -3.511  1.00  0.00     0.001 A
HETATM   17  C12 UNL     1      18.935  -9.701  -4.576  1.00  0.00     0.012 A
HETATM   18  C14 UNL     1      17.333  -8.119  -5.401  1.00  0.00     0.049 A
ENDBRANCH   8   9
ENDBRANCH   2   8
ENDBRANCH   1   2
BRANCH   1  19
HETATM   19  O3  UNL     1      16.154  -7.720  -9.686  1.00  0.00    -0.391 OA
ATOM     20  H3  UNL     1      16.438  -6.967 -10.192  1.00  0.00     0.210 HD
ENDBRANCH   1  19
BRANCH   1  21
HETATM   21  C16 UNL     1      14.657  -8.340  -7.872  1.00  0.00     0.151 C
BRANCH  21  22
HETATM   22  N1  UNL     1      14.763  -9.662  -8.393  1.00  0.00    -0.403 N
HETATM   23  C17 UNL     1      13.656 -10.229  -9.035  1.00  0.00     0.149 C
HETATM   24  C18 UNL     1      13.797 -11.745  -8.860  1.00  0.00     0.137 C
HETATM   25  C19 UNL     1      15.144 -11.948  -8.198  1.00  0.00     0.058 C
HETATM   26  C20 UNL     1      15.381 -10.637  -7.535  1.00  0.00     0.086 C
BRANCH  24  27
HETATM   27  O4  UNL     1      12.814 -12.266  -8.043  1.00  0.00    -0.394 OA
ATOM     28  H4  UNL     1      12.353 -12.987  -8.454  1.00  0.00     0.210 HD
ENDBRANCH  24  27
BRANCH  26  29
HETATM   29  C21 UNL     1      14.718 -10.509  -6.193  1.00  0.00     0.063 C
BRANCH  29  30
HETATM   30  C22 UNL     1      15.412 -11.315  -5.172  1.00  0.00    -0.056 A
HETATM   31  C23 UNL     1      15.035 -11.163  -3.838  1.00  0.00     0.007 A
HETATM   32  C24 UNL     1      15.612 -11.888  -2.823  1.00  0.00     0.001 A
HETATM   33  C25 UNL     1      16.593 -12.797  -3.118  1.00  0.00     0.000 A
HETATM   34  C26 UNL     1      17.012 -12.995  -4.439  1.00  0.00     0.001 A
HETATM   35  C27 UNL     1      16.399 -12.238  -5.416  1.00  0.00     0.007 A
ENDBRANCH  29  30
ENDBRANCH  26  29
ENDBRANCH  21  22
ENDBRANCH   1  21
TORSDOF 11
ENDMDL