MODEL 1
REMARK VINA RESULT: -8.221793389      0.000      0.000
REMARK  9 active torsions:
REMARK  status: ('A' for Active; 'I' for Inactive)
REMARK       I    between atoms: C1_2  and  N1_3
REMARK       I    between atoms: C1_2  and  N3_12
REMARK    1  A    between atoms: N1_3  and  C2_5
REMARK    2  A    between atoms: N3_12  and  C7_14
REMARK    3  A    between atoms: N4_17  and  C10_18
REMARK    4  A    between atoms: C10_18  and  C11_19
REMARK    5  A    between atoms: C11_19  and  O2_20
REMARK    6  A    between atoms: C11_19  and  C12_22
REMARK    7  A    between atoms: C12_22  and  O3_23
REMARK    8  A    between atoms: C12_22  and  C19_30
REMARK    9  A    between atoms: O3_23  and  C13_24
ROOT
HETATM    1  C7  UNL     1      15.516 -11.501  -6.568  1.00  0.00     0.126 C
HETATM    2  C8  UNL     1      15.316 -11.771  -5.086  1.00  0.00     0.051 C
HETATM    3  C9  UNL     1      15.756 -10.472  -4.445  1.00  0.00     0.129 C
HETATM    4  N4  UNL     1      16.599  -9.807  -5.374  1.00  0.00    -0.369 N
HETATM    5  C25 UNL     1      16.593 -10.443  -6.626  1.00  0.00     0.088 C
ENDROOT
BRANCH   4   6
HETATM    6  C10 UNL     1      17.778  -9.209  -4.889  1.00  0.00     0.097 C
BRANCH   6   7
HETATM    7  C11 UNL     1      17.604  -8.225  -3.796  1.00  0.00     0.190 C
BRANCH   7   8
HETATM    8  O2  UNL     1      18.765  -7.793  -3.184  1.00  0.00    -0.387 OA
ATOM      9  H2  UNL     1      19.506  -7.644  -3.760  1.00  0.00     0.210 HD
ENDBRANCH   7   8
BRANCH   7  10
HETATM   10  C12 UNL     1      16.844  -6.980  -4.211  1.00  0.00     0.195 C
BRANCH  10  11
HETATM   11  O3  UNL     1      16.836  -6.784  -5.569  1.00  0.00    -0.338 OA
BRANCH  11  12
HETATM   12  C13 UNL     1      16.831  -5.725  -6.380  1.00  0.00     0.069 A
HETATM   13  C14 UNL     1      15.942  -5.706  -7.442  1.00  0.00     0.037 A
HETATM   14  C15 UNL     1      15.865  -4.655  -8.332  1.00  0.00     0.003 A
HETATM   15  C16 UNL     1      16.708  -3.571  -8.161  1.00  0.00     0.000 A
HETATM   16  C17 UNL     1      17.598  -3.599  -7.090  1.00  0.00     0.003 A
HETATM   17  C18 UNL     1      17.670  -4.653  -6.206  1.00  0.00     0.037 A
ENDBRANCH  11  12
ENDBRANCH  10  11
BRANCH  10  18
HETATM   18  C19 UNL     1      15.559  -6.817  -3.517  1.00  0.00    -0.026 A
HETATM   19  C20 UNL     1      15.495  -6.440  -2.191  1.00  0.00     0.010 A
HETATM   20  C21 UNL     1      14.319  -6.272  -1.501  1.00  0.00     0.001 A
HETATM   21  C22 UNL     1      13.105  -6.491  -2.160  1.00  0.00     0.000 A
HETATM   22  C23 UNL     1      13.129  -6.866  -3.474  1.00  0.00     0.001 A
HETATM   23  C24 UNL     1      14.318  -7.024  -4.133  1.00  0.00     0.010 A
ENDBRANCH  10  18
ENDBRANCH   7  10
ENDBRANCH   6   7
ENDBRANCH   4   6
BRANCH   1  24
HETATM   24  N3  UNL     1      14.301 -11.023  -7.144  1.00  0.00    -0.334 N
HETATM   25  C1  UNL     1      13.897 -11.394  -8.492  1.00  0.00     0.321 C
HETATM   26  O1  UNL     1      14.672 -12.150  -9.104  1.00  0.00    -0.247 OA
HETATM   27  N1  UNL     1      12.679 -10.863  -8.953  1.00  0.00    -0.308 N
ATOM     28  H1  UNL     1      12.137 -10.262  -8.333  1.00  0.00     0.170 HD
ATOM     29  H3  UNL     1      13.701 -10.405  -6.598  1.00  0.00     0.165 HD
BRANCH  27  30
HETATM   30  C2  UNL     1      12.180 -11.134 -10.248  1.00  0.00     0.051 A
HETATM   31  C3  UNL     1      12.176 -10.061 -11.132  1.00  0.00     0.032 A
HETATM   32  C4  UNL     1      11.731 -10.244 -12.411  1.00  0.00     0.019 A
HETATM   33  C5  UNL     1      11.289 -11.491 -12.812  1.00  0.00     0.088 A
HETATM   34  N2  UNL     1      11.300 -12.515 -11.948  1.00  0.00    -0.373 N
HETATM   35  C6  UNL     1      11.742 -12.343 -10.669  1.00  0.00     0.117 A
ATOM     36  H2  UNL     1      10.973 -13.433 -12.249  1.00  0.00     0.164 HD
ENDBRANCH  27  30
ENDBRANCH   1  24
TORSDOF 9
ENDMDL