MODEL 5
REMARK VINA RESULT: -7.308332361      3.370      6.025
REMARK  10 active torsions:
REMARK  status: ('A' for Active; 'I' for Inactive)
REMARK    1  A    between atoms: N1_2  and  C3_4
REMARK    2  A    between atoms: C3_4  and  N2_6
REMARK    3  A    between atoms: N2_6  and  C4_8
REMARK    4  A    between atoms: C4_8  and  C5_9
REMARK    5  A    between atoms: C4_8  and  C19_31
REMARK    6  A    between atoms: C5_9  and  N3_10
REMARK    7  A    between atoms: N3_10  and  C6_13
REMARK    8  A    between atoms: C8_15  and  N4_16
REMARK    9  A    between atoms: N4_16  and  C9_19
REMARK   10  A    between atoms: C9_19  and  C10_20
ROOT
HETATM    1  C10 UNL     1      14.016 -11.137  -8.312  1.00  0.00    -0.012 A
HETATM    2  C11 UNL     1      13.380 -12.281  -8.760  1.00  0.00     0.010 A
HETATM    3  C12 UNL     1      12.396 -12.128  -9.697  1.00  0.00     0.001 A
HETATM    4  C13 UNL     1      12.069 -10.873 -10.162  1.00  0.00     0.002 A
HETATM    5  C14 UNL     1      12.718  -9.733  -9.703  1.00  0.00     0.023 A
HETATM    6  C15 UNL     1      13.703  -9.877  -8.766  1.00  0.00     0.052 A
HETATM    7  C16 UNL     1      14.391  -8.720  -8.277  1.00  0.00     0.100 C
HETATM    8  N5  UNL     1      14.926  -7.792  -7.871  1.00  0.00    -0.191 NA
ENDROOT
BRANCH   1   9
HETATM    9  C9  UNL     1      15.102 -11.222  -7.270  1.00  0.00     0.272 C
BRANCH   9  10
HETATM   10  N4  UNL     1      14.554 -11.948  -6.139  1.00  0.00    -0.067 N
ATOM     11  H42 UNL     1      14.608 -12.957  -6.278  1.00  0.00     0.277 HD
ATOM     12  H41 UNL     1      13.539 -11.851  -6.088  1.00  0.00     0.277 HD
BRANCH  10  13
HETATM   13  C8  UNL     1      15.197 -11.541  -4.884  1.00  0.00     0.192 C
HETATM   14  C7  UNL     1      16.518 -12.203  -4.825  1.00  0.00     0.094 C
HETATM   15  C6  UNL     1      17.549 -11.564  -3.960  1.00  0.00     0.322 C
HETATM   16  O1  UNL     1      17.507 -10.207  -3.906  1.00  0.00    -0.359 OA
HETATM   17  C18 UNL     1      16.300  -9.588  -3.808  1.00  0.00     0.172 C
HETATM   18  C17 UNL     1      15.321 -10.055  -4.872  1.00  0.00     0.059 C
BRANCH  15  19
HETATM   19  N3  UNL     1      17.498 -12.181  -2.625  1.00  0.00    -0.047 N
ATOM     20  H32 UNL     1      16.699 -11.837  -2.093  1.00  0.00     0.280 HD
ATOM     21  H31 UNL     1      18.252 -11.835  -2.032  1.00  0.00     0.280 HD
BRANCH  19  22
HETATM   22  C5  UNL     1      17.501 -13.583  -2.682  1.00  0.00     0.265 C
BRANCH  22  23
HETATM   23  C4  UNL     1      16.354 -14.430  -2.348  1.00  0.00     0.143 C
BRANCH  23  24
HETATM   24  N2  UNL     1      15.797 -14.483  -1.061  1.00  0.00    -0.357 N
ATOM     25  H2  UNL     1      15.337 -15.367  -0.843  1.00  0.00     0.162 HD
BRANCH  24  26
HETATM   26  C3  UNL     1      15.755 -13.550  -0.026  1.00  0.00     0.169 C
HETATM   27  S1  UNL     1      16.898 -13.445   1.112  1.00  0.00    -0.041 SA
BRANCH  26  28
HETATM   28  N1  UNL     1      14.649 -12.594   0.042  1.00  0.00    -0.367 N
HETATM   29  C1  UNL     1      14.059 -12.327   1.325  1.00  0.00     0.151 C
HETATM   30  C2  UNL     1      14.151 -11.926  -1.139  1.00  0.00     0.151 C
ENDBRANCH  26  28
ENDBRANCH  24  26
ENDBRANCH  23  24
BRANCH  23  31
HETATM   31  C19 UNL     1      16.737 -15.837  -2.779  1.00  0.00    -0.034 A
HETATM   32  C20 UNL     1      15.789 -16.839  -2.851  1.00  0.00     0.009 A
HETATM   33  C21 UNL     1      16.137 -18.110  -3.250  1.00  0.00     0.001 A
HETATM   34  C22 UNL     1      17.435 -18.416  -3.589  1.00  0.00     0.000 A
HETATM   35  C23 UNL     1      18.380 -17.425  -3.518  1.00  0.00     0.001 A
HETATM   36  C24 UNL     1      18.027 -16.153  -3.118  1.00  0.00     0.009 A
ENDBRANCH  23  31
ENDBRANCH  22  23
ENDBRANCH  19  22
ENDBRANCH  15  19
ENDBRANCH  10  13
ENDBRANCH   9  10
ENDBRANCH   1   9
TORSDOF 10
ENDMDL