MODEL 4
REMARK VINA RESULT: -8.003940372      3.205      6.985
REMARK  10 active torsions:
REMARK  status: ('A' for Active; 'I' for Inactive)
REMARK    1  A    between atoms: C8_9  and  C9_10
REMARK    2  A    between atoms: C9_10  and  O2_11
REMARK    3  A    between atoms: C9_10  and  C10_13
REMARK    4  A    between atoms: C10_13  and  O3_14
REMARK    5  A    between atoms: C10_13  and  C11_16
REMARK    6  A    between atoms: C11_16  and  C12_17
REMARK    7  A    between atoms: C12_17  and  C13_18
REMARK    8  A    between atoms: C12_17  and  C14_23
REMARK    9  A    between atoms: C12_17  and  C20_29
REMARK   10  A    between atoms: C13_18  and  N1_19
ROOT
HETATM    1  C11 UNL     1      14.959  -9.871  -6.073  1.00  0.00     0.055 C
ENDROOT
BRANCH   1   2
HETATM    2  C10 UNL     1      15.477 -11.036  -5.343  1.00  0.00     0.153 C
BRANCH   2   3
HETATM    3  C9  UNL     1      15.905 -10.583  -3.939  1.00  0.00     0.202 C
BRANCH   3   4
HETATM    4  C8  UNL     1      15.519  -9.164  -3.678  1.00  0.00     0.302 C
HETATM    5  O1  UNL     1      14.937  -8.938  -2.457  1.00  0.00    -0.336 OA
HETATM    6  C7  UNL     1      15.059  -7.595  -2.183  1.00  0.00     0.154 C
HETATM    7  C2  UNL     1      13.786  -6.816  -2.373  1.00  0.00     0.026 C
HETATM    8  C6  UNL     1      15.542  -7.314  -0.772  1.00  0.00     0.049 C
HETATM    9  C26 UNL     1      16.144  -7.116  -3.095  1.00  0.00     0.296 C
HETATM   10  C1  UNL     1      13.263  -6.827  -3.764  1.00  0.00     0.014 C
HETATM   11  C3  UNL     1      12.743  -7.429  -1.459  1.00  0.00     0.008 C
HETATM   12  C4  UNL     1      13.153  -7.115  -0.035  1.00  0.00     0.001 C
HETATM   13  C5  UNL     1      14.516  -7.643   0.273  1.00  0.00     0.004 C
HETATM   14  O4  UNL     1      16.610  -8.270  -3.715  1.00  0.00    -0.284 OA
HETATM   15  O5  UNL     1      16.510  -5.920  -3.230  1.00  0.00    -0.262 OA
ENDBRANCH   3   4
BRANCH   3  16
HETATM   16  O2  UNL     1      15.325 -11.375  -2.953  1.00  0.00    -0.388 OA
ATOM     17  H2  UNL     1      15.902 -12.112  -2.793  1.00  0.00     0.210 HD
ENDBRANCH   3  16
ENDBRANCH   2   3
BRANCH   2  18
HETATM   18  O3  UNL     1      14.591 -12.076  -5.103  1.00  0.00    -0.393 OA
ATOM     19  H3  UNL     1      14.797 -12.713  -5.777  1.00  0.00     0.210 HD
ENDBRANCH   2  18
ENDBRANCH   1   2
BRANCH   1  20
HETATM   20  C12 UNL     1      15.130  -9.813  -7.565  1.00  0.00     0.040 C
BRANCH  20  21
HETATM   21  C13 UNL     1      16.418 -10.611  -7.898  1.00  0.00     0.248 C
BRANCH  21  22
HETATM   22  N1  UNL     1      17.571 -10.097  -7.250  1.00  0.00    -0.078 N
ATOM     23  H13 UNL     1      17.924  -9.273  -7.736  1.00  0.00     0.274 HD
ATOM     24  H12 UNL     1      17.327  -9.673  -6.356  1.00  0.00     0.274 HD
ATOM     25  H11 UNL     1      18.307 -10.794  -7.134  1.00  0.00     0.274 HD
ENDBRANCH  21  22
ENDBRANCH  20  21
BRANCH  20  26
HETATM   26  C14 UNL     1      15.380  -8.370  -7.851  1.00  0.00    -0.043 A
HETATM   27  C15 UNL     1      15.237  -7.450  -6.842  1.00  0.00     0.008 A
HETATM   28  C16 UNL     1      15.463  -6.095  -6.983  1.00  0.00     0.001 A
HETATM   29  C17 UNL     1      15.857  -5.609  -8.196  1.00  0.00     0.000 A
HETATM   30  C18 UNL     1      16.014  -6.488  -9.235  1.00  0.00     0.001 A
HETATM   31  C19 UNL     1      15.776  -7.861  -9.059  1.00  0.00     0.008 A
ENDBRANCH  20  26
BRANCH  20  32
HETATM   32  C20 UNL     1      14.095 -10.435  -8.394  1.00  0.00    -0.043 A
HETATM   33  C21 UNL     1      14.028 -11.803  -8.591  1.00  0.00     0.008 A
HETATM   34  C22 UNL     1      13.087 -12.435  -9.372  1.00  0.00     0.001 A
HETATM   35  C23 UNL     1      12.129 -11.709 -10.020  1.00  0.00     0.000 A
HETATM   36  C24 UNL     1      12.155 -10.345  -9.854  1.00  0.00     0.001 A
HETATM   37  C25 UNL     1      13.114  -9.711  -9.060  1.00  0.00     0.008 A
ENDBRANCH  20  32
ENDBRANCH   1  20
TORSDOF 10
ENDMDL