MODEL 1
REMARK VINA RESULT: -7.662019248      0.000      0.000
REMARK  10 active torsions:
REMARK  status: ('A' for Active; 'I' for Inactive)
REMARK    1  A    between atoms: C2_2  and  O1_3
REMARK    2  A    between atoms: O1_3  and  C3_4
REMARK    3  A    between atoms: C10_11  and  C11_12
REMARK    4  A    between atoms: C12_13  and  C13_14
REMARK    5  A    between atoms: C13_14  and  C14_15
REMARK    6  A    between atoms: C15_16  and  O2_17
REMARK    7  A    between atoms: C17_20  and  O3_21
REMARK    8  A    between atoms: C18_23  and  C19_24
REMARK    9  A    between atoms: C19_24  and  C20_25
REMARK   10  A    between atoms: C20_25  and  C21_26
ROOT
HETATM    1  C11 UNL     1      16.561 -10.490  -5.549  1.00  0.00    -0.026 C
HETATM    2  C12 UNL     1      16.671 -11.495  -4.746  1.00  0.00    -0.030 C
ENDROOT
BRANCH   1   3
HETATM    3  C10 UNL     1      15.392 -10.229  -6.437  1.00  0.00     0.008 C
HETATM    4  C9  UNL     1      14.497 -11.430  -6.407  1.00  0.00     0.013 C
HETATM    5  C8  UNL     1      13.673 -11.583  -7.657  1.00  0.00    -0.007 C
HETATM    6  C7  UNL     1      14.235 -12.590  -8.631  1.00  0.00     0.005 C
HETATM    7  C24 UNL     1      13.440 -10.260  -8.302  1.00  0.00     0.019 C
HETATM    8  C6  UNL     1      13.159 -12.847  -9.666  1.00  0.00     0.007 C
HETATM    9  C5  UNL     1      12.037 -11.865  -9.625  1.00  0.00     0.020 C
HETATM   10  C4  UNL     1      11.466 -11.781 -11.047  1.00  0.00     0.068 C
HETATM   11  C25 UNL     1      12.475 -10.434  -9.425  1.00  0.00     0.133 C
HETATM   12  C3  UNL     1      12.188 -10.616 -11.628  1.00  0.00     0.260 C
HETATM   13  O6  UNL     1      12.979 -10.047 -10.661  1.00  0.00    -0.355 OA
HETATM   14  C23 UNL     1      14.714  -9.586  -8.750  1.00  0.00     0.008 C
HETATM   15  C22 UNL     1      15.851  -9.828  -7.779  1.00  0.00     0.009 C
BRANCH  12  16
HETATM   16  O1  UNL     1      11.262  -9.727 -12.168  1.00  0.00    -0.362 OA
BRANCH  16  17
HETATM   17  C2  UNL     1      11.869  -8.689 -12.870  1.00  0.00     0.166 C
HETATM   18  C1  UNL     1      13.011  -9.271 -13.664  1.00  0.00     0.033 C
ENDBRANCH  16  17
ENDBRANCH  12  16
ENDBRANCH   1   3
BRANCH   2  19
HETATM   19  C13 UNL     1      17.766 -11.808  -3.867  1.00  0.00     0.034 C
BRANCH  19  20
HETATM   20  C14 UNL     1      17.450 -12.460  -2.561  1.00  0.00     0.024 C
HETATM   21  C15 UNL     1      17.569 -13.962  -2.560  1.00  0.00     0.125 C
HETATM   22  C16 UNL     1      16.267 -14.505  -1.942  1.00  0.00     0.064 C
HETATM   23  C17 UNL     1      15.756 -13.293  -1.141  1.00  0.00     0.125 C
HETATM   24  C18 UNL     1      16.007 -12.216  -2.169  1.00  0.00     0.022 C
BRANCH  21  25
HETATM   25  O2  UNL     1      17.667 -14.441  -3.853  1.00  0.00    -0.395 OA
ATOM     26  H2  UNL     1      16.996 -15.092  -4.018  1.00  0.00     0.210 HD
ENDBRANCH  21  25
BRANCH  23  27
HETATM   27  O3  UNL     1      16.586 -13.190  -0.038  1.00  0.00    -0.395 OA
ATOM     28  H3  UNL     1      16.823 -14.080   0.194  1.00  0.00     0.210 HD
ENDBRANCH  23  27
BRANCH  24  29
HETATM   29  C19 UNL     1      15.836 -10.834  -1.595  1.00  0.00     0.018 C
BRANCH  29  30
HETATM   30  C20 UNL     1      14.700 -10.069  -2.170  1.00  0.00     0.113 C
BRANCH  30  31
HETATM   31  C21 UNL     1      13.485 -10.009  -1.360  1.00  0.00     0.172 C
HETATM   32  O4  UNL     1      12.835  -8.908  -1.340  1.00  0.00    -0.648 OA
HETATM   33  O5  UNL     1      12.945 -11.020  -0.599  1.00  0.00    -0.648 OA
ENDBRANCH  30  31
ENDBRANCH  29  30
ENDBRANCH  24  29
ENDBRANCH  19  20
ENDBRANCH   2  19
TORSDOF 10
ENDMDL