MODEL 1
REMARK VINA RESULT: -9.137508929      0.000      0.000
REMARK  10 active torsions:
REMARK  status: ('A' for Active; 'I' for Inactive)
REMARK    1  A    between atoms: C3_4  and  O2_5
REMARK    2  A    between atoms: O2_5  and  C4_6
REMARK    3  A    between atoms: C7_9  and  C8_10
REMARK    4  A    between atoms: C9_11  and  C10_12
REMARK    5  A    between atoms: C9_11  and  C21_23
REMARK    6  A    between atoms: C10_12  and  C11_13
REMARK    7  A    between atoms: C12_14  and  C13_15
REMARK    8  A    between atoms: C14_16  and  C15_17
REMARK    9  A    between atoms: C25_29  and  O5_30
REMARK   10  A    between atoms: C26_32  and  O6_33
ROOT
HETATM    1  C4  UNL     1      16.575  -4.988  -9.106  1.00  0.00     0.072 A
HETATM    2  C5  UNL     1      16.598  -6.063  -9.960  1.00  0.00     0.037 A
HETATM    3  C6  UNL     1      16.220  -7.328  -9.538  1.00  0.00     0.014 A
HETATM    4  C7  UNL     1      15.797  -7.559  -8.221  1.00  0.00    -0.035 A
HETATM    5  C22 UNL     1      15.777  -6.471  -7.375  1.00  0.00     0.014 A
HETATM    6  C23 UNL     1      16.151  -5.212  -7.787  1.00  0.00     0.037 A
ENDROOT
BRANCH   4   7
HETATM    7  C8  UNL     1      15.359  -8.891  -7.873  1.00  0.00     0.025 C
HETATM    8  C9  UNL     1      15.646  -9.554  -6.799  1.00  0.00     0.022 C
BRANCH   8   9
HETATM    9  C10 UNL     1      15.049 -10.955  -6.656  1.00  0.00     0.072 C
BRANCH   9  10
HETATM   10  C11 UNL     1      15.341 -11.762  -7.825  1.00  0.00    -0.022 C
HETATM   11  C12 UNL     1      14.438 -12.351  -8.583  1.00  0.00    -0.004 C
BRANCH  11  12
HETATM   12  C13 UNL     1      13.044 -12.252  -8.324  1.00  0.00     0.001 C
HETATM   13  C14 UNL     1      12.103 -11.723  -9.027  1.00  0.00     0.011 C
BRANCH  13  14
HETATM   14  C15 UNL     1      12.031 -11.055 -10.286  1.00  0.00    -0.036 A
HETATM   15  C16 UNL     1      12.443  -9.794 -10.565  1.00  0.00     0.011 A
HETATM   16  C17 UNL     1      12.294  -9.168 -11.816  1.00  0.00     0.001 A
HETATM   17  C18 UNL     1      11.701  -9.852 -12.835  1.00  0.00     0.000 A
HETATM   18  C19 UNL     1      11.275 -11.135 -12.581  1.00  0.00     0.001 A
HETATM   19  C20 UNL     1      11.422 -11.741 -11.360  1.00  0.00     0.011 A
ENDBRANCH  13  14
ENDBRANCH  11  12
ENDBRANCH   9  10
ENDBRANCH   8   9
BRANCH   8  20
HETATM   20  C21 UNL     1      16.541  -9.144  -5.766  1.00  0.00     0.205 C
HETATM   21  O3  UNL     1      17.776  -9.541  -5.756  1.00  0.00    -0.644 OA
HETATM   22  O4  UNL     1      16.263  -8.313  -4.687  1.00  0.00    -0.644 OA
ENDBRANCH   8  20
ENDBRANCH   4   7
BRANCH   1  23
HETATM   23  O2  UNL     1      16.948  -3.725  -9.515  1.00  0.00    -0.320 OA
BRANCH  23  24
HETATM   24  C3  UNL     1      18.235  -3.234  -9.623  1.00  0.00     0.269 C
HETATM   25  O1  UNL     1      19.209  -4.219  -9.312  1.00  0.00    -0.353 OA
HETATM   26  C2  UNL     1      20.416  -3.515  -9.157  1.00  0.00     0.151 C
HETATM   27  C1  UNL     1      21.561  -4.412  -8.798  1.00  0.00     0.042 C
HETATM   28  C26 UNL     1      20.751  -2.745 -10.422  1.00  0.00     0.175 C
HETATM   29  C25 UNL     1      19.803  -3.214 -11.493  1.00  0.00     0.154 C
HETATM   30  C24 UNL     1      18.411  -2.787 -11.083  1.00  0.00     0.095 C
BRANCH  28  31
HETATM   31  O6  UNL     1      22.087  -2.968 -10.785  1.00  0.00    -0.390 OA
ATOM     32  H6  UNL     1      22.332  -2.397 -11.505  1.00  0.00     0.210 HD
ENDBRANCH  28  31
BRANCH  29  33
HETATM   33  O5  UNL     1      20.136  -2.748 -12.758  1.00  0.00    -0.393 OA
ATOM     34  H5  UNL     1      21.006  -3.023 -13.019  1.00  0.00     0.210 HD
ENDBRANCH  29  33
ENDBRANCH  23  24
ENDBRANCH   1  23
TORSDOF 10
ENDMDL