MODEL 3
REMARK VINA RESULT: -7.725030564      2.774      8.200
REMARK  10 active torsions:
REMARK  status: ('A' for Active; 'I' for Inactive)
REMARK    1  A    between atoms: C2_2  and  N1_4
REMARK    2  A    between atoms: C2_2  and  C4_8
REMARK    3  A    between atoms: N2_11  and  N3_12
REMARK       I    between atoms: N3_12  and  C7_14
REMARK    4  A    between atoms: C7_14  and  C8_16
REMARK    5  A    between atoms: C8_16  and  C9_17
REMARK    6  A    between atoms: C8_16  and  N4_24
REMARK    7  A    between atoms: C9_17  and  C10_18
REMARK    8  A    between atoms: N4_24  and  C16_27
REMARK    9  A    between atoms: C16_27  and  C17_28
REMARK   10  A    between atoms: C22_34  and  C23_35
ROOT
HETATM    1  N3  UNL     1      14.810  -9.956  -5.730  1.00  0.00    -0.287 N
ATOM      2  H3  UNL     1      13.815  -9.824  -5.912  1.00  0.00     0.184 HD
HETATM    3  C7  UNL     1      15.743  -9.808  -6.796  1.00  0.00     0.263 C
HETATM    4  O1  UNL     1      16.983  -9.951  -6.564  1.00  0.00    -0.270 OA
ENDROOT
BRANCH   3   5
HETATM    5  C8  UNL     1      15.337  -9.493  -8.168  1.00  0.00     0.282 C
BRANCH   5   6
HETATM    6  C9  UNL     1      14.733  -8.122  -8.352  1.00  0.00     0.081 C
BRANCH   6   7
HETATM    7  C10 UNL     1      15.681  -7.044  -8.664  1.00  0.00    -0.056 A
HETATM    8  C11 UNL     1      16.303  -6.924  -9.890  1.00  0.00     0.007 A
HETATM    9  C12 UNL     1      17.194  -5.915 -10.189  1.00  0.00     0.001 A
HETATM   10  C13 UNL     1      17.496  -4.961  -9.235  1.00  0.00     0.000 A
HETATM   11  C14 UNL     1      16.867  -5.078  -7.992  1.00  0.00     0.001 A
HETATM   12  C15 UNL     1      15.975  -6.098  -7.708  1.00  0.00     0.007 A
ENDBRANCH   6   7
ENDBRANCH   5   6
BRANCH   5  13
HETATM   13  N4  UNL     1      14.312 -10.432  -8.652  1.00  0.00    -0.058 N
ATOM     14  H42 UNL     1      14.669 -11.041  -9.387  1.00  0.00     0.278 HD
ATOM     15  H41 UNL     1      14.093 -11.148  -7.959  1.00  0.00     0.278 HD
BRANCH  13  16
HETATM   16  C16 UNL     1      13.124  -9.705  -9.076  1.00  0.00     0.279 C
BRANCH  16  17
HETATM   17  C17 UNL     1      12.436 -10.467 -10.181  1.00  0.00     0.008 A
HETATM   18  C18 UNL     1      11.944 -11.744 -10.148  1.00  0.00     0.017 A
HETATM   19  C19 UNL     1      11.369 -12.214 -11.258  1.00  0.00     0.008 A
HETATM   20  C20 UNL     1      11.318 -11.378 -12.345  1.00  0.00     0.050 A
HETATM   21  S1  UNL     1      12.078  -9.963 -11.771  1.00  0.00    -0.105 SA
ENDBRANCH  16  17
ENDBRANCH  13  16
ENDBRANCH   5  13
ENDBRANCH   3   5
BRANCH   1  22
HETATM   22  N2  UNL     1      15.237 -10.277  -4.446  1.00  0.00    -0.228 NA
HETATM   23  C6  UNL     1      14.652  -9.395  -3.494  1.00  0.00     0.114 C
HETATM   24  C5  UNL     1      15.034  -9.781  -2.062  1.00  0.00     0.024 C
HETATM   25  C4  UNL     1      14.753 -11.249  -1.864  1.00  0.00     0.027 C
HETATM   26  C22 UNL     1      15.423 -12.144  -2.855  1.00  0.00     0.011 C
HETATM   27  C21 UNL     1      14.908 -11.662  -4.221  1.00  0.00     0.119 C
BRANCH  25  28
HETATM   28  C2  UNL     1      14.855 -11.667  -0.444  1.00  0.00     0.120 C
HETATM   29  C1  UNL     1      16.016 -11.033   0.289  1.00  0.00     0.046 C
HETATM   30  C3  UNL     1      13.623 -11.289   0.351  1.00  0.00     0.046 C
BRANCH  28  31
HETATM   31  N1  UNL     1      15.002 -13.103  -0.327  1.00  0.00    -0.071 N
ATOM     32  H13 UNL     1      15.732 -13.479  -0.932  1.00  0.00     0.275 HD
ATOM     33  H12 UNL     1      15.408 -13.391   0.563  1.00  0.00     0.275 HD
ATOM     34  H11 UNL     1      14.087 -13.517  -0.500  1.00  0.00     0.275 HD
ENDBRANCH  28  31
ENDBRANCH  25  28
BRANCH  26  35
HETATM   35  C23 UNL     1      16.876 -12.318  -2.805  1.00  0.00    -0.009 A
HETATM   36  C24 UNL     1      17.886 -11.853  -3.740  1.00  0.00     0.005 A
HETATM   37  C25 UNL     1      17.517 -13.349  -3.745  1.00  0.00     0.005 A
ENDBRANCH  26  35
ENDBRANCH   1  22
TORSDOF 10
ENDMDL