MODEL 2
REMARK VINA RESULT: -8.706911035      2.304      3.741
REMARK  10 active torsions:
REMARK  status: ('A' for Active; 'I' for Inactive)
REMARK    1  A    between atoms: C2_5  and  C3_6
REMARK    2  A    between atoms: C2_5  and  N4_17
REMARK    3  A    between atoms: C3_6  and  C4_7
REMARK    4  A    between atoms: C4_7  and  C5_8
REMARK    5  A    between atoms: C5_8  and  C6_9
REMARK    6  A    between atoms: N4_17  and  C11_19
REMARK    7  A    between atoms: C11_19  and  C12_20
REMARK    8  A    between atoms: C11_19  and  C17_27
REMARK    9  A    between atoms: C20_30  and  C21_31
REMARK   10  A    between atoms: C21_31  and  N6_32
ROOT
HETATM    1  N1  UNL     1      16.877 -12.974  -4.507  1.00  0.00    -0.172 NA
HETATM    2  C1  UNL     1      16.325 -12.771  -5.494  1.00  0.00     0.183 C
HETATM    3  N2  UNL     1      15.679 -12.565  -6.657  1.00  0.00    -0.283 N
ATOM      4  H2  UNL     1      15.699 -13.387  -7.260  1.00  0.00     0.179 HD
HETATM    5  C2  UNL     1      15.057 -11.603  -7.182  1.00  0.00     0.086 C
ENDROOT
BRANCH   5   6
HETATM    6  C3  UNL     1      14.478 -11.867  -8.573  1.00  0.00     0.077 C
BRANCH   6   7
HETATM    7  C4  UNL     1      13.019 -12.177  -8.378  1.00  0.00     0.008 C
BRANCH   7   8
HETATM    8  C5  UNL     1      12.138 -11.192  -9.142  1.00  0.00     0.005 C
BRANCH   8   9
HETATM    9  C6  UNL     1      12.407 -11.202 -10.622  1.00  0.00    -0.011 C
HETATM   10  C7  UNL     1      11.379 -12.065 -11.290  1.00  0.00     0.032 C
HETATM   11  C8  UNL     1      11.290 -11.883 -12.769  1.00  0.00     0.232 C
HETATM   12  N3  UNL     1      12.195 -10.828 -13.231  1.00  0.00    -0.075 N
HETATM   13  C9  UNL     1      11.935  -9.606 -12.509  1.00  0.00     0.232 C
ATOM     14  H32 UNL     1      13.174 -11.108 -13.169  1.00  0.00     0.277 HD
ATOM     15  H31 UNL     1      12.143 -10.694 -14.240  1.00  0.00     0.277 HD
HETATM   16  C10 UNL     1      12.330  -9.749 -11.078  1.00  0.00     0.032 C
ENDBRANCH   8   9
ENDBRANCH   7   8
ENDBRANCH   6   7
ENDBRANCH   5   6
BRANCH   5  17
HETATM   17  N4  UNL     1      14.809 -10.328  -6.659  1.00  0.00    -0.370 N
ATOM     18  H4  UNL     1      13.843 -10.067  -6.462  1.00  0.00     0.161 HD
BRANCH  17  19
HETATM   19  C11 UNL     1      15.832  -9.372  -6.386  1.00  0.00     0.126 C
BRANCH  19  20
HETATM   20  C12 UNL     1      15.769  -8.182  -7.263  1.00  0.00    -0.019 A
HETATM   21  C13 UNL     1      15.813  -6.890  -6.707  1.00  0.00     0.012 A
HETATM   22  C14 UNL     1      15.762  -5.811  -7.551  1.00  0.00     0.018 A
HETATM   23  C15 UNL     1      15.671  -5.937  -8.917  1.00  0.00     0.087 A
HETATM   24  N5  UNL     1      15.630  -7.150  -9.438  1.00  0.00    -0.375 N
HETATM   25  C16 UNL     1      15.678  -8.224  -8.629  1.00  0.00     0.096 A
ATOM     26  H5  UNL     1      15.562  -7.272 -10.448  1.00  0.00     0.164 HD
ENDBRANCH  19  20
BRANCH  19  27
HETATM   27  C17 UNL     1      15.930  -9.022  -4.923  1.00  0.00     0.046 C
HETATM   28  C18 UNL     1      14.823  -9.685  -4.150  1.00  0.00     0.012 C
HETATM   29  C19 UNL     1      14.831  -8.974  -2.782  1.00  0.00     0.011 C
HETATM   30  C20 UNL     1      16.026  -9.542  -2.052  1.00  0.00     0.044 C
HETATM   31  C22 UNL     1      17.208  -9.670  -2.942  1.00  0.00    -0.046 A
HETATM   32  C23 UNL     1      18.381 -10.060  -2.322  1.00  0.00     0.008 A
HETATM   33  C27 UNL     1      17.188  -9.427  -4.300  1.00  0.00    -0.045 A
HETATM   34  C24 UNL     1      19.553 -10.218  -3.020  1.00  0.00     0.001 A
HETATM   35  C25 UNL     1      19.549  -9.981  -4.361  1.00  0.00     0.001 A
HETATM   36  C26 UNL     1      18.369  -9.588  -4.987  1.00  0.00     0.008 A
BRANCH  30  37
HETATM   37  C21 UNL     1      16.302  -8.718  -0.815  1.00  0.00     0.239 C
BRANCH  37  38
HETATM   38  N6  UNL     1      16.206  -7.309  -1.024  1.00  0.00    -0.079 N
ATOM     39  H63 UNL     1      17.076  -6.943  -1.411  1.00  0.00     0.274 HD
ATOM     40  H62 UNL     1      15.574  -7.103  -1.798  1.00  0.00     0.274 HD
ATOM     41  H61 UNL     1      15.935  -6.784  -0.192  1.00  0.00     0.274 HD
ENDBRANCH  37  38
ENDBRANCH  30  37
ENDBRANCH  19  27
ENDBRANCH  17  19
ENDBRANCH   5  17
TORSDOF 10
ENDMDL