MODEL 2
REMARK VINA RESULT: -8.208350157      1.323      3.403
REMARK  9 active torsions:
REMARK  status: ('A' for Active; 'I' for Inactive)
REMARK    1  A    between atoms: C1_4  and  C2_6
REMARK    2  A    between atoms: C5_9  and  O1_10
REMARK    3  A    between atoms: O1_10  and  C6_11
REMARK    4  A    between atoms: C6_11  and  C7_12
REMARK    5  A    between atoms: C7_12  and  O2_13
REMARK    6  A    between atoms: C7_12  and  C8_15
REMARK    7  A    between atoms: C8_15  and  N3_16
REMARK    8  A    between atoms: C11_19  and  C12_20
REMARK    9  A    between atoms: C17_25  and  N4_26
ROOT
HETATM    1  N3  UNL     1      15.351  -9.478  -5.489  1.00  0.00    -0.391 N
HETATM    2  C9  UNL     1      14.871  -8.440  -4.651  1.00  0.00     0.122 C
HETATM    3  C10 UNL     1      14.712  -7.160  -5.428  1.00  0.00     0.029 C
HETATM    4  C11 UNL     1      15.887  -6.735  -6.232  1.00  0.00     0.024 C
HETATM    5  C23 UNL     1      16.611  -7.935  -6.818  1.00  0.00     0.029 C
HETATM    6  C24 UNL     1      15.618  -9.105  -6.832  1.00  0.00     0.122 C
ENDROOT
BRANCH   1   7
HETATM    7  C8  UNL     1      15.063 -10.806  -5.223  1.00  0.00     0.091 C
BRANCH   7   8
HETATM    8  C7  UNL     1      15.773 -11.887  -5.947  1.00  0.00     0.180 C
BRANCH   8   9
HETATM    9  C6  UNL     1      15.071 -12.514  -7.098  1.00  0.00     0.212 C
BRANCH   9  10
HETATM   10  O1  UNL     1      13.859 -12.023  -7.477  1.00  0.00    -0.348 OA
BRANCH  10  11
HETATM   11  C5  UNL     1      13.274 -11.635  -8.626  1.00  0.00     0.068 A
HETATM   12  C4  UNL     1      13.054 -10.327  -9.046  1.00  0.00     0.037 A
HETATM   13  C3  UNL     1      12.442 -10.047 -10.246  1.00  0.00     0.017 A
HETATM   14  C2  UNL     1      12.028 -11.064 -11.069  1.00  0.00     0.005 A
HETATM   15  C26 UNL     1      12.241 -12.369 -10.663  1.00  0.00     0.017 A
HETATM   16  C25 UNL     1      12.844 -12.665  -9.482  1.00  0.00     0.037 A
BRANCH  14  17
HETATM   17  C1  UNL     1      11.381 -10.775 -12.336  1.00  0.00     0.120 C
HETATM   18  N1  UNL     1      10.932 -11.736 -13.042  1.00  0.00    -0.387 N
ATOM     19  H12 UNL     1      10.478 -11.534 -13.933  1.00  0.00     0.157 HD
ATOM     20  H11 UNL     1      11.024 -12.700 -12.722  1.00  0.00     0.157 HD
HETATM   21  N2  UNL     1      11.254  -9.445 -12.778  1.00  0.00    -0.082 NA
ENDBRANCH  14  17
ENDBRANCH  10  11
ENDBRANCH   9  10
ENDBRANCH   8   9
BRANCH   8  22
HETATM   22  O2  UNL     1      16.230 -12.921  -5.105  1.00  0.00    -0.388 OA
ATOM     23  H2  UNL     1      17.175 -12.966  -5.185  1.00  0.00     0.210 HD
ENDBRANCH   8  22
ENDBRANCH   7   8
ENDBRANCH   1   7
BRANCH   4  24
HETATM   24  C12 UNL     1      16.845  -5.835  -5.535  1.00  0.00    -0.027 A
HETATM   25  C13 UNL     1      17.121  -6.035  -4.202  1.00  0.00     0.010 A
HETATM   26  C14 UNL     1      18.019  -5.248  -3.497  1.00  0.00     0.001 A
HETATM   27  C15 UNL     1      18.650  -4.228  -4.164  1.00  0.00     0.002 A
HETATM   28  C16 UNL     1      18.375  -4.028  -5.484  1.00  0.00     0.030 A
HETATM   29  C17 UNL     1      17.464  -4.825  -6.206  1.00  0.00     0.036 A
BRANCH  29  30
HETATM   30  N4  UNL     1      17.256  -4.484  -7.577  1.00  0.00    -0.380 N
HETATM   31  C18 UNL     1      18.366  -4.179  -8.443  1.00  0.00     0.123 C
HETATM   32  C19 UNL     1      18.271  -4.924  -9.761  1.00  0.00     0.020 C
HETATM   33  C20 UNL     1      17.184  -5.973  -9.731  1.00  0.00     0.003 C
HETATM   34  C21 UNL     1      15.837  -5.416  -9.333  1.00  0.00     0.020 C
HETATM   35  C22 UNL     1      15.929  -4.460  -8.163  1.00  0.00     0.123 C
ENDBRANCH  29  30
ENDBRANCH   4  24
TORSDOF 9
ENDMDL