MODEL 5
REMARK VINA RESULT: -6.493274367      3.250      6.125
REMARK  9 active torsions:
REMARK  status: ('A' for Active; 'I' for Inactive)
REMARK    1  A    between atoms: C3_3  and  O1_4
REMARK    2  A    between atoms: C3_3  and  C4_6
REMARK    3  A    between atoms: C6_8  and  C7_9
REMARK    4  A    between atoms: C7_9  and  N1_10
REMARK    5  A    between atoms: C10_13  and  C11_14
REMARK    6  A    between atoms: C11_14  and  N2_15
REMARK    7  A    between atoms: N2_15  and  C13_17
REMARK    8  A    between atoms: C13_17  and  C14_18
REMARK    9  A    between atoms: C14_18  and  C15_19
ROOT
HETATM    1  C1  UNL     1      14.105 -10.121  -1.730  1.00  0.00     0.015 C
HETATM    2  C2  UNL     1      14.711 -11.108  -2.057  1.00  0.00    -0.081 C
HETATM    3  C3  UNL     1      15.438 -12.323  -2.434  1.00  0.00     0.224 C
ENDROOT
BRANCH   3   4
HETATM    4  O1  UNL     1      14.721 -13.484  -2.160  1.00  0.00    -0.379 OA
ATOM      5  H1  UNL     1      14.824 -13.775  -1.262  1.00  0.00     0.211 HD
ENDBRANCH   3   4
BRANCH   3   6
HETATM    6  C4  UNL     1      15.786 -12.341  -3.888  1.00  0.00    -0.046 C
HETATM    7  C5  UNL     1      17.121 -12.890  -4.276  1.00  0.00     0.047 C
HETATM    8  C6  UNL     1      14.932 -11.865  -4.759  1.00  0.00     0.009 C
BRANCH   8   9
HETATM    9  C7  UNL     1      15.206 -11.852  -6.210  1.00  0.00     0.300 C
BRANCH   9  10
HETATM   10  N1  UNL     1      15.287 -10.544  -6.801  1.00  0.00     0.099 N
HETATM   11  C8  UNL     1      16.580 -10.263  -7.344  1.00  0.00     0.274 C
HETATM   12  C9  UNL     1      16.568  -9.075  -8.291  1.00  0.00     0.038 C
HETATM   13  C10 UNL     1      15.354  -8.236  -7.895  1.00  0.00     0.040 C
HETATM   14  C21 UNL     1      14.096  -8.997  -8.301  1.00  0.00     0.123 C
HETATM   15  N3  UNL     1      13.842  -8.905  -9.701  1.00  0.00    -0.364 N
HETATM   16  C24 UNL     1      14.180 -10.347  -7.695  1.00  0.00     0.256 C
HETATM   17  C22 UNL     1      12.767  -9.634 -10.276  1.00  0.00     0.134 C
ATOM     18  H3  UNL     1      14.431  -8.315 -10.289  1.00  0.00     0.162 HD
HETATM   19  N4  UNL     1      12.068  -9.263 -11.256  1.00  0.00    -0.380 N
HETATM   20  S1  UNL     1      12.438 -11.215  -9.498  1.00  0.00    -0.092 SA
ATOM     21  H42 UNL     1      12.255  -8.363 -11.699  1.00  0.00     0.158 HD
ATOM     22  H41 UNL     1      11.296  -9.787 -11.669  1.00  0.00     0.158 HD
HETATM   23  C23 UNL     1      14.077 -11.505  -8.689  1.00  0.00     0.120 C
BRANCH  13  24
HETATM   24  C11 UNL     1      15.461  -6.898  -8.518  1.00  0.00     0.278 C
BRANCH  24  25
HETATM   25  N2  UNL     1      15.715  -5.804  -7.569  1.00  0.00     0.084 N
HETATM   26  C12 UNL     1      15.833  -4.594  -8.321  1.00  0.00     0.309 C
BRANCH  25  27
HETATM   27  C13 UNL     1      16.752  -6.115  -6.663  1.00  0.00     0.272 C
BRANCH  27  28
HETATM   28  C14 UNL     1      16.515  -6.074  -5.207  1.00  0.00     0.034 C
BRANCH  28  29
HETATM   29  C15 UNL     1      16.393  -7.333  -4.447  1.00  0.00    -0.013 C
HETATM   30  C16 UNL     1      14.947  -7.856  -4.426  1.00  0.00     0.005 C
HETATM   31  C17 UNL     1      14.001  -6.884  -3.822  1.00  0.00     0.000 C
HETATM   32  C18 UNL     1      14.383  -6.627  -2.366  1.00  0.00     0.000 C
HETATM   33  C19 UNL     1      15.808  -6.172  -2.307  1.00  0.00     0.000 C
HETATM   34  C20 UNL     1      16.737  -7.142  -2.960  1.00  0.00     0.005 C
ENDBRANCH  28  29
ENDBRANCH  27  28
ENDBRANCH  25  27
ENDBRANCH  24  25
ENDBRANCH  13  24
ENDBRANCH   9  10
ENDBRANCH   8   9
ENDBRANCH   3   6
TORSDOF 9
ENDMDL