MODEL 3
REMARK VINA RESULT: -7.878302452      0.853      1.912
REMARK  8 active torsions:
REMARK  status: ('A' for Active; 'I' for Inactive)
REMARK    1  A    between atoms: O1_1  and  C1_3
REMARK    2  A    between atoms: C1_3  and  C2_4
REMARK    3  A    between atoms: C2_4  and  N1_5
REMARK    4  A    between atoms: C4_7  and  C5_8
REMARK    5  A    between atoms: C5_8  and  O2_9
REMARK    6  A    between atoms: C5_8  and  C6_11
REMARK    7  A    between atoms: C9_14  and  C10_15
REMARK    8  A    between atoms: C10_15  and  C11_16
ROOT
HETATM    1  C6  UNL     1      -8.741   6.947   0.934  1.00  0.00    -0.029 A
HETATM    2  C7  UNL     1      -8.268   7.878   0.043  1.00  0.00     0.010 A
HETATM    3  C8  UNL     1      -7.131   8.640   0.341  1.00  0.00     0.008 A
HETATM    4  C9  UNL     1      -6.452   8.483   1.527  1.00  0.00    -0.054 A
HETATM    5  C18 UNL     1      -6.920   7.546   2.439  1.00  0.00     0.008 A
HETATM    6  C19 UNL     1      -8.029   6.811   2.132  1.00  0.00     0.010 A
ENDROOT
BRANCH   1   7
HETATM    7  C5  UNL     1      -9.923   6.117   0.652  1.00  0.00     0.157 C
BRANCH   7   8
HETATM    8  C4  UNL     1     -11.073   6.861   0.017  1.00  0.00     0.048 C
HETATM    9  C3  UNL     1     -12.314   6.749   0.811  1.00  0.00     0.280 C
HETATM   10  N1  UNL     1     -13.201   5.753   0.271  1.00  0.00     0.096 N
HETATM   11  C23 UNL     1     -13.646   6.126  -1.023  1.00  0.00     0.227 A
HETATM   12  C21 UNL     1     -12.574   6.429  -1.973  1.00  0.00     0.021 A
HETATM   13  C22 UNL     1     -13.523   7.499  -1.563  1.00  0.00     0.043 A
HETATM   14  C20 UNL     1     -11.195   6.497  -1.431  1.00  0.00     0.016 C
BRANCH  10  15
HETATM   15  C2  UNL     1     -14.199   5.287   1.165  1.00  0.00     0.298 C
BRANCH  15  16
HETATM   16  C1  UNL     1     -14.351   3.800   1.259  1.00  0.00     0.194 C
BRANCH  16  17
HETATM   17  O1  UNL     1     -15.202   3.527   2.350  1.00  0.00    -0.399 OA
ATOM     18  H1  UNL     1     -15.797   2.835   2.084  1.00  0.00     0.209 HD
ENDBRANCH  16  17
ENDBRANCH  15  16
ENDBRANCH  10  15
ENDBRANCH   7   8
BRANCH   7  19
HETATM   19  O2  UNL     1     -10.283   5.282   1.690  1.00  0.00    -0.390 OA
ATOM     20  H2  UNL     1      -9.699   5.309   2.440  1.00  0.00     0.210 HD
ENDBRANCH   7  19
ENDBRANCH   1   7
BRANCH   4  21
HETATM   21  C10 UNL     1      -5.236   9.302   1.815  1.00  0.00     0.078 C
BRANCH  21  22
HETATM   22  C11 UNL     1      -5.103   9.461   3.269  1.00  0.00    -0.039 A
HETATM   23  C12 UNL     1      -5.851  10.344   3.992  1.00  0.00     0.025 A
HETATM   24  C13 UNL     1      -5.645  10.422   5.352  1.00  0.00     0.090 A
HETATM   25  N2  UNL     1      -4.747   9.668   5.984  1.00  0.00    -0.352 N
HETATM   26  C14 UNL     1      -3.999   8.792   5.303  1.00  0.00     0.115 A
ATOM     27  H2  UNL     1      -4.629   9.759   6.993  1.00  0.00     0.166 HD
HETATM   28  N3  UNL     1      -3.039   7.924   5.677  1.00  0.00    -0.352 N
HETATM   29  C17 UNL     1      -4.168   8.679   3.945  1.00  0.00     0.016 A
HETATM   30  C15 UNL     1      -2.603   7.274   4.602  1.00  0.00     0.090 A
ATOM     31  H3  UNL     1      -2.700   7.788   6.629  1.00  0.00     0.166 HD
HETATM   32  C16 UNL     1      -3.290   7.722   3.493  1.00  0.00     0.033 A
ENDBRANCH  21  22
ENDBRANCH   4  21
TORSDOF 8
ENDMDL