MODEL 5
REMARK VINA RESULT: -7.468179428      3.428      8.175
REMARK  10 active torsions:
REMARK  status: ('A' for Active; 'I' for Inactive)
REMARK    1  A    between atoms: C1_2  and  C2_3
REMARK       I    between atoms: C1_2  and  N1_19
REMARK    2  A    between atoms: C3_4  and  C4_5
REMARK    3  A    between atoms: C4_5  and  O2_6
REMARK    4  A    between atoms: C4_5  and  C5_8
REMARK    5  A    between atoms: C4_5  and  C11_14
REMARK    6  A    between atoms: N1_19  and  C16_21
REMARK    7  A    between atoms: C16_21  and  C17_22
REMARK    8  A    between atoms: C16_21  and  C18_25
REMARK    9  A    between atoms: C17_22  and  O3_23
REMARK   10  A    between atoms: C18_25  and  C19_26
ROOT
HETATM    1  O1  UNL     1     -11.961   8.103  -3.802  1.00  0.00    -0.258 OA
HETATM    2  C1  UNL     1     -11.487   7.059  -3.334  1.00  0.00     0.296 C
HETATM    3  N1  UNL     1     -10.967   6.071  -4.186  1.00  0.00    -0.343 N
ATOM      4  H1  UNL     1     -10.583   5.215  -3.786  1.00  0.00     0.163 HD
ENDROOT
BRANCH   2   5
HETATM    5  C2  UNL     1     -11.425   6.771  -1.905  1.00  0.00    -0.002 C
HETATM    6  C3  UNL     1     -11.380   6.575  -0.705  1.00  0.00    -0.053 C
BRANCH   6   7
HETATM    7  C4  UNL     1     -11.339   6.394   0.751  1.00  0.00     0.152 C
BRANCH   7   8
HETATM    8  O2  UNL     1     -11.999   7.603   1.241  1.00  0.00    -0.373 OA
ATOM      9  H2  UNL     1     -12.914   7.347   1.257  1.00  0.00     0.212 HD
ENDBRANCH   7   8
BRANCH   7  10
HETATM   10  C5  UNL     1     -12.262   5.323   1.084  1.00  0.00    -0.011 A
HETATM   11  C6  UNL     1     -11.960   4.095   1.617  1.00  0.00     0.011 A
HETATM   12  C7  UNL     1     -12.947   3.174   1.870  1.00  0.00     0.001 A
HETATM   13  C8  UNL     1     -14.278   3.400   1.616  1.00  0.00     0.000 A
HETATM   14  C9  UNL     1     -14.612   4.625   1.079  1.00  0.00     0.001 A
HETATM   15  C10 UNL     1     -13.620   5.536   0.832  1.00  0.00     0.011 A
ENDBRANCH   7  10
BRANCH   7  16
HETATM   16  C11 UNL     1     -10.005   6.488   1.315  1.00  0.00     0.037 C
HETATM   17  C12 UNL     1      -9.745   7.132   2.613  1.00  0.00     0.009 C
HETATM   18  C13 UNL     1      -8.210   6.873   2.713  1.00  0.00     0.001 C
HETATM   19  C14 UNL     1      -7.742   7.089   1.267  1.00  0.00     0.001 C
HETATM   20  C15 UNL     1      -8.991   7.195   0.422  1.00  0.00     0.009 C
ENDBRANCH   7  16
ENDBRANCH   6   7
ENDBRANCH   2   5
BRANCH   3  21
HETATM   21  C16 UNL     1     -10.968   6.249  -5.614  1.00  0.00     0.114 C
BRANCH  21  22
HETATM   22  C17 UNL     1      -9.641   5.660  -6.128  1.00  0.00     0.189 C
BRANCH  22  23
HETATM   23  O3  UNL     1      -9.380   4.544  -5.336  1.00  0.00    -0.399 OA
ATOM     24  H3  UNL     1      -9.945   3.852  -5.660  1.00  0.00     0.209 HD
ENDBRANCH  22  23
ENDBRANCH  21  22
BRANCH  21  25
HETATM   25  C18 UNL     1     -12.098   5.568  -6.318  1.00  0.00     0.084 C
BRANCH  25  26
HETATM   26  C19 UNL     1     -13.139   6.556  -6.693  1.00  0.00     0.011 A
HETATM   27  C20 UNL     1     -13.202   7.172  -7.927  1.00  0.00     0.025 A
HETATM   28  C21 UNL     1     -14.181   8.078  -8.211  1.00  0.00     0.003 A
HETATM   29  C22 UNL     1     -15.130   8.386  -7.238  1.00  0.00     0.017 A
HETATM   30  C23 UNL     1     -15.050   7.757  -6.001  1.00  0.00     0.088 A
HETATM   31  N2  UNL     1     -14.079   6.888  -5.788  1.00  0.00    -0.369 N
ATOM     32  H2  UNL     1     -14.039   6.437  -4.874  1.00  0.00     0.165 HD
ENDBRANCH  25  26
ENDBRANCH  21  25
ENDBRANCH   3  21
TORSDOF 10
ENDMDL