MODEL 4
REMARK VINA RESULT: -7.077596794      0.950      1.100
REMARK  8 active torsions:
REMARK  status: ('A' for Active; 'I' for Inactive)
REMARK    1  A    between atoms: N1_4  and  C4_5
REMARK    2  A    between atoms: C4_5  and  C6_7
REMARK    3  A    between atoms: C6_7  and  O1_8
REMARK    4  A    between atoms: C10_13  and  C11_14
REMARK    5  A    between atoms: C11_14  and  N2_15
REMARK    6  A    between atoms: N2_15  and  C13_17
REMARK    7  A    between atoms: C13_17  and  C14_18
REMARK    8  A    between atoms: C18_24  and  N4_25
ROOT
HETATM    1  N2  UNL     1      -9.793   6.387   1.042  1.00  0.00    -0.373 N
HETATM    2  C12 UNL     1     -10.696   5.378   1.397  1.00  0.00     0.154 C
ENDROOT
BRANCH   1   3
HETATM    3  C11 UNL     1     -10.207   7.270   0.051  1.00  0.00     0.068 C
BRANCH   3   4
HETATM    4  C10 UNL     1     -10.047   6.841  -1.393  1.00  0.00     0.029 C
HETATM    5  C2  UNL     1     -11.116   7.328  -2.306  1.00  0.00     0.019 C
HETATM    6  C1  UNL     1     -12.348   6.420  -2.270  1.00  0.00     0.012 C
HETATM    7  C3  UNL     1     -10.640   7.301  -3.760  1.00  0.00     0.278 C
HETATM    8  N1  UNL     1     -10.150   5.985  -4.147  1.00  0.00     0.095 N
HETATM    9  C7  UNL     1      -8.693   6.080  -4.118  1.00  0.00     0.273 C
HETATM   10  C8  UNL     1      -8.269   5.769  -2.704  1.00  0.00     0.031 C
HETATM   11  C9  UNL     1      -8.649   6.996  -1.859  1.00  0.00     0.012 C
BRANCH   8  12
HETATM   12  C4  UNL     1     -10.641   5.626  -5.470  1.00  0.00     0.242 C
HETATM   13  C5  UNL     1     -11.798   6.491  -5.907  1.00  0.00     0.045 C
BRANCH  12  14
HETATM   14  C6  UNL     1      -9.555   5.711  -6.508  1.00  0.00     0.199 C
BRANCH  14  15
HETATM   15  O1  UNL     1     -10.170   6.023  -7.734  1.00  0.00    -0.399 OA
ATOM     16  H1  UNL     1     -10.745   5.300  -7.954  1.00  0.00     0.209 HD
ENDBRANCH  14  15
ENDBRANCH  12  14
ENDBRANCH   8  12
ENDBRANCH   3   4
ENDBRANCH   1   3
BRANCH   1  17
HETATM   17  C13 UNL     1      -8.569   6.498   1.673  1.00  0.00     0.105 C
BRANCH  17  18
HETATM   18  C14 UNL     1      -8.241   7.437   2.705  1.00  0.00     0.030 A
HETATM   19  C15 UNL     1      -7.411   8.512   2.357  1.00  0.00    -0.035 A
HETATM   20  C16 UNL     1      -7.025   9.423   3.317  1.00  0.00    -0.035 A
HETATM   21  C22 UNL     1      -6.986   8.626   0.955  1.00  0.00     0.040 C
HETATM   22  C17 UNL     1      -7.441   9.306   4.625  1.00  0.00     0.097 A
HETATM   23  C19 UNL     1      -6.144  10.577   2.986  1.00  0.00     0.040 C
HETATM   24  N3  UNL     1      -8.222   8.291   4.946  1.00  0.00    -0.351 N
HETATM   25  C18 UNL     1      -8.623   7.366   4.017  1.00  0.00     0.111 A
ATOM     26  H3  UNL     1      -8.535   8.193   5.911  1.00  0.00     0.166 HD
HETATM   27  C20 UNL     1      -5.152  10.044   1.943  1.00  0.00     0.005 C
HETATM   28  C21 UNL     1      -5.988   9.721   0.728  1.00  0.00     0.005 C
BRANCH  25  29
HETATM   29  N4  UNL     1      -9.352   6.418   4.484  1.00  0.00    -0.385 N
ATOM     30  H42 UNL     1     -10.208   6.726   4.947  1.00  0.00     0.157 HD
ATOM     31  H41 UNL     1      -9.089   5.434   4.425  1.00  0.00     0.157 HD
ENDBRANCH  25  29
ENDBRANCH  17  18
ENDBRANCH   1  17
TORSDOF 8
ENDMDL