MODEL 3
REMARK VINA RESULT: -7.933446675      1.861      2.677
REMARK  9 active torsions:
REMARK  status: ('A' for Active; 'I' for Inactive)
REMARK    1  A    between atoms: O1_1  and  C1_3
REMARK    2  A    between atoms: C1_3  and  C2_4
REMARK    3  A    between atoms: C2_4  and  C3_5
REMARK    4  A    between atoms: C4_6  and  C5_7
REMARK    5  A    between atoms: C5_7  and  N1_8
REMARK    6  A    between atoms: N1_8  and  C6_10
REMARK    7  A    between atoms: C15_19  and  O2_20
REMARK    8  A    between atoms: N2_24  and  C18_25
REMARK    9  A    between atoms: C18_25  and  C19_26
ROOT
HETATM    1  C3  UNL     1     -12.288   6.933  -2.487  1.00  0.00     0.231 C
HETATM    2  C4  UNL     1     -12.355   6.786  -1.010  1.00  0.00     0.038 C
HETATM    3  C16 UNL     1     -11.906   8.146  -0.521  1.00  0.00     0.038 C
HETATM    4  C17 UNL     1     -11.327   8.864  -1.727  1.00  0.00     0.273 C
HETATM    5  N2  UNL     1     -11.111   7.769  -2.692  1.00  0.00     0.097 N
ENDROOT
BRANCH   2   6
HETATM    6  C5  UNL     1     -13.705   6.407  -0.447  1.00  0.00     0.121 C
BRANCH   6   7
HETATM    7  N1  UNL     1     -13.751   5.009  -0.220  1.00  0.00    -0.414 N
ATOM      8  H1  UNL     1     -13.770   4.345  -0.993  1.00  0.00     0.153 HD
BRANCH   7   9
HETATM    9  C6  UNL     1     -13.769   4.570   1.148  1.00  0.00     0.110 C
HETATM   10  C7  UNL     1     -15.100   3.946   1.430  1.00  0.00     0.032 C
HETATM   11  C8  UNL     1     -15.134   2.955   2.544  1.00  0.00     0.041 C
HETATM   12  C9  UNL     1     -13.929   2.924   3.375  1.00  0.00    -0.049 A
HETATM   13  C10 UNL     1     -14.025   2.529   4.691  1.00  0.00     0.007 A
HETATM   14  C14 UNL     1     -12.691   3.274   2.899  1.00  0.00    -0.021 A
HETATM   15  C11 UNL     1     -12.900   2.493   5.498  1.00  0.00     0.001 A
HETATM   16  C12 UNL     1     -11.642   2.851   5.008  1.00  0.00     0.001 A
HETATM   17  C13 UNL     1     -11.541   3.245   3.694  1.00  0.00     0.010 A
HETATM   18  C15 UNL     1     -12.594   3.705   1.465  1.00  0.00     0.174 C
BRANCH  18  19
HETATM   19  O2  UNL     1     -11.431   4.497   1.339  1.00  0.00    -0.389 OA
ATOM     20  H2  UNL     1     -10.745   3.948   0.978  1.00  0.00     0.210 HD
ENDBRANCH  18  19
ENDBRANCH   7   9
ENDBRANCH   6   7
ENDBRANCH   2   6
BRANCH   1  21
HETATM   21  C2  UNL     1     -13.527   7.624  -3.010  1.00  0.00     0.062 C
BRANCH  21  22
HETATM   22  C1  UNL     1     -13.473   7.793  -4.518  1.00  0.00     0.166 C
BRANCH  22  23
HETATM   23  O1  UNL     1     -13.860   6.564  -5.082  1.00  0.00    -0.401 OA
ATOM     24  H1  UNL     1     -14.810   6.546  -5.078  1.00  0.00     0.209 HD
ENDBRANCH  22  23
ENDBRANCH  21  22
ENDBRANCH   1  21
BRANCH   5  25
HETATM   25  C18 UNL     1      -9.961   7.057  -2.194  1.00  0.00     0.311 C
BRANCH  25  26
HETATM   26  C19 UNL     1      -9.380   6.145  -3.220  1.00  0.00    -0.030 A
HETATM   27  C20 UNL     1      -9.996   5.963  -4.433  1.00  0.00     0.009 A
HETATM   28  C21 UNL     1      -9.445   5.102  -5.390  1.00  0.00     0.001 A
HETATM   29  C22 UNL     1      -8.261   4.444  -5.069  1.00  0.00     0.000 A
HETATM   30  C23 UNL     1      -7.641   4.625  -3.850  1.00  0.00     0.001 A
HETATM   31  C24 UNL     1      -8.204   5.473  -2.935  1.00  0.00     0.009 A
ENDBRANCH  25  26
ENDBRANCH   5  25
TORSDOF 9
ENDMDL