MODEL 2
REMARK VINA RESULT: -7.161218368      2.930      4.386
REMARK  8 active torsions:
REMARK  status: ('A' for Active; 'I' for Inactive)
REMARK    1  A    between atoms: C2_2  and  C3_3
REMARK    2  A    between atoms: C3_3  and  C4_4
REMARK    3  A    between atoms: C4_4  and  C5_5
REMARK    4  A    between atoms: C4_4  and  N2_14
REMARK    5  A    between atoms: C5_5  and  C6_6
REMARK       I    between atoms: C6_6  and  N1_8
REMARK    6  A    between atoms: N2_14  and  C11_16
REMARK    7  A    between atoms: C11_16  and  N3_18
REMARK    8  A    between atoms: N3_18  and  C12_20
ROOT
HETATM    1  N2  UNL     1      -7.759   7.146   1.338  1.00  0.00    -0.362 N
ATOM      2  H2  UNL     1      -6.944   6.539   1.417  1.00  0.00     0.162 HD
ENDROOT
BRANCH   1   3
HETATM    3  C4  UNL     1      -7.586   8.305   0.549  1.00  0.00     0.092 C
BRANCH   3   4
HETATM    4  C3  UNL     1      -7.554   8.177  -0.922  1.00  0.00     0.025 C
BRANCH   4   5
HETATM    5  C2  UNL     1      -8.726   7.643  -1.645  1.00  0.00    -0.002 C
HETATM    6  C1  UNL     1      -8.462   6.143  -1.973  1.00  0.00     0.005 C
ENDBRANCH   4   5
ENDBRANCH   3   4
BRANCH   3   7
HETATM    7  C5  UNL     1      -6.251   9.012   0.915  1.00  0.00     0.128 C
BRANCH   7   8
HETATM    8  C6  UNL     1      -6.294   9.256   2.379  1.00  0.00     0.221 C
HETATM    9  O1  UNL     1      -7.118  10.135   2.755  1.00  0.00    -0.273 OA
HETATM   10  N1  UNL     1      -5.510   8.608   3.350  1.00  0.00    -0.348 N
HETATM   11  C7  UNL     1      -5.693   8.947   4.744  1.00  0.00     0.152 C
HETATM   12  C10 UNL     1      -4.492   7.613   3.073  1.00  0.00     0.152 C
HETATM   13  C8  UNL     1      -4.342   9.199   5.381  1.00  0.00     0.187 C
HETATM   14  O2  UNL     1      -3.436   8.182   5.085  1.00  0.00    -0.388 OA
HETATM   15  C9  UNL     1      -3.201   8.155   3.707  1.00  0.00     0.187 C
ENDBRANCH   7   8
ENDBRANCH   3   7
ENDBRANCH   1   3
BRANCH   1  16
HETATM   16  C11 UNL     1      -8.922   6.713   2.038  1.00  0.00     0.168 C
HETATM   17  S1  UNL     1      -9.372   7.282   3.499  1.00  0.00    -0.041 SA
BRANCH  16  18
HETATM   18  N3  UNL     1      -9.771   5.701   1.479  1.00  0.00    -0.363 N
ATOM     19  H3  UNL     1      -9.325   4.927   0.988  1.00  0.00     0.162 HD
BRANCH  18  20
HETATM   20  C12 UNL     1     -11.212   5.700   1.561  1.00  0.00     0.083 C
HETATM   21  C13 UNL     1     -11.773   6.368   0.281  1.00  0.00     0.025 C
HETATM   22  C14 UNL     1     -12.764   7.426   0.597  1.00  0.00     0.002 C
HETATM   23  C15 UNL     1     -14.172   7.145   0.186  1.00  0.00     0.000 C
HETATM   24  C16 UNL     1     -14.615   5.728   0.282  1.00  0.00     0.000 C
HETATM   25  C17 UNL     1     -14.026   5.094   1.542  1.00  0.00     0.000 C
HETATM   26  C18 UNL     1     -13.074   4.036   1.148  1.00  0.00     0.002 C
HETATM   27  C19 UNL     1     -11.655   4.258   1.567  1.00  0.00     0.025 C
ENDBRANCH  18  20
ENDBRANCH  16  18
ENDBRANCH   1  16
TORSDOF 8
ENDMDL