MODEL 1
REMARK VINA RESULT: -7.303503082      0.000      0.000
REMARK  6 active torsions:
REMARK  status: ('A' for Active; 'I' for Inactive)
REMARK    1  A    between atoms: N1_2  and  C3_4
REMARK    2  A    between atoms: C3_4  and  C4_5
REMARK    3  A    between atoms: C4_5  and  C5_6
REMARK    4  A    between atoms: C5_6  and  N2_7
REMARK       I    between atoms: N2_7  and  C6_9
REMARK    5  A    between atoms: C6_9  and  C7_11
REMARK    6  A    between atoms: C17_24  and  C18_25
ROOT
HETATM    1  C7  UNL     1     -12.327   6.784   0.138  1.00  0.00     0.078 C
HETATM    2  C8  UNL     1     -12.757   7.468  -1.081  1.00  0.00     0.014 C
HETATM    3  C9  UNL     1     -12.956   6.731  -2.346  1.00  0.00     0.001 C
HETATM    4  C10 UNL     1     -11.703   6.388  -3.098  1.00  0.00     0.000 C
HETATM    5  C11 UNL     1     -11.626   6.744  -4.530  1.00  0.00     0.000 C
HETATM    6  C12 UNL     1     -10.132   6.937  -4.859  1.00  0.00     0.000 C
HETATM    7  C13 UNL     1      -9.246   5.900  -4.282  1.00  0.00     0.000 C
HETATM    8  C14 UNL     1      -7.939   6.433  -3.700  1.00  0.00     0.009 C
HETATM    9  C15 UNL     1      -7.884   6.242  -2.173  1.00  0.00     0.103 C
HETATM   10  C16 UNL     1      -8.084   7.562  -1.511  1.00  0.00     0.217 C
HETATM   11  O2  UNL     1      -7.344   8.486  -2.017  1.00  0.00    -0.274 OA
HETATM   12  N3  UNL     1      -8.963   7.847  -0.449  1.00  0.00    -0.356 N
ATOM     13  H3  UNL     1      -9.623   8.602  -0.638  1.00  0.00     0.162 HD
HETATM   14  C17 UNL     1      -9.090   7.267   0.837  1.00  0.00     0.094 C
HETATM   15  C19 UNL     1     -10.043   6.207   1.095  1.00  0.00     0.027 C
HETATM   16  C20 UNL     1     -11.166   5.896   0.172  1.00  0.00     0.016 C
ENDROOT
BRANCH   1  17
HETATM   17  C6  UNL     1     -13.535   6.143   0.778  1.00  0.00     0.221 C
HETATM   18  N2  UNL     1     -13.753   4.774   0.894  1.00  0.00    -0.360 N
ATOM     19  H2  UNL     1     -13.054   4.130   0.523  1.00  0.00     0.162 HD
HETATM   20  O1  UNL     1     -14.407   6.943   1.242  1.00  0.00    -0.273 OA
BRANCH  18  21
HETATM   21  C5  UNL     1     -14.937   4.233   1.525  1.00  0.00     0.128 C
BRANCH  21  22
HETATM   22  C4  UNL     1     -14.676   2.966   2.307  1.00  0.00     0.064 C
BRANCH  22  23
HETATM   23  C3  UNL     1     -13.343   3.031   3.028  1.00  0.00     0.058 C
BRANCH  23  24
HETATM   24  N1  UNL     1     -13.366   2.443   4.306  1.00  0.00    -0.402 N
HETATM   25  C1  UNL     1     -14.609   2.112   4.885  1.00  0.00     0.148 C
HETATM   26  C2  UNL     1     -12.236   2.571   5.143  1.00  0.00     0.148 C
ENDBRANCH  23  24
ENDBRANCH  22  23
ENDBRANCH  21  22
ENDBRANCH  18  21
ENDBRANCH   1  17
BRANCH  14  27
HETATM   27  C18 UNL     1      -7.712   6.790   1.360  1.00  0.00     0.111 C
HETATM   28  S1  UNL     1      -6.841   8.189   2.106  1.00  0.00    -0.096 SA
ENDBRANCH  14  27
TORSDOF 6
ENDMDL