MODEL 3
REMARK VINA RESULT: -7.172976545      0.792      1.165
REMARK  7 active torsions:
REMARK  status: ('A' for Active; 'I' for Inactive)
REMARK    1  A    between atoms: C2_2  and  O1_3
REMARK    2  A    between atoms: O1_3  and  C3_4
REMARK    3  A    between atoms: C3_4  and  N1_5
REMARK    4  A    between atoms: C3_4  and  C7_13
REMARK    5  A    between atoms: N1_5  and  C4_8
REMARK    6  A    between atoms: C4_8  and  C5_9
REMARK    7  A    between atoms: C5_9  and  C6_10
ROOT
HETATM    1  C7  UNL     1     -10.942   7.372  -0.869  1.00  0.00     0.050 C
HETATM    2  C8  UNL     1      -9.435   7.334  -0.636  1.00  0.00     0.010 C
HETATM    3  C9  UNL     1      -8.667   6.275  -1.286  1.00  0.00     0.001 C
HETATM    4  C10 UNL     1      -9.242   6.021  -2.667  1.00  0.00     0.006 C
HETATM    5  C11 UNL     1      -9.991   7.270  -3.097  1.00  0.00    -0.000 C
HETATM    6  C12 UNL     1      -9.879   7.424  -4.548  1.00  0.00     0.009 C
HETATM    7  C13 UNL     1      -9.216   6.237  -5.280  1.00  0.00     0.127 C
HETATM    8  N2  UNL     1      -9.670   6.097  -6.652  1.00  0.00    -0.361 N
ATOM      9  H2  UNL     1      -8.976   6.248  -7.384  1.00  0.00     0.162 HD
HETATM   10  C14 UNL     1     -11.011   5.765  -7.081  1.00  0.00     0.217 C
HETATM   11  O4  UNL     1     -11.100   5.318  -8.250  1.00  0.00    -0.274 OA
HETATM   12  C15 UNL     1     -12.322   5.859  -6.369  1.00  0.00     0.107 C
HETATM   13  C16 UNL     1     -11.973   6.427  -5.027  1.00  0.00    -0.005 C
HETATM   14  C17 UNL     1     -13.007   6.852  -4.121  1.00  0.00     0.006 C
HETATM   15  C18 UNL     1     -12.474   6.814  -2.698  1.00  0.00     0.010 C
HETATM   16  C19 UNL     1     -11.255   7.519  -2.339  1.00  0.00    -0.032 C
HETATM   17  C20 UNL     1     -11.494   9.056  -2.522  1.00  0.00     0.016 C
HETATM   18  C21 UNL     1     -11.129   7.662  -5.318  1.00  0.00     0.011 C
ENDROOT
BRANCH   1  19
HETATM   19  C3  UNL     1     -11.598   6.394   0.006  1.00  0.00     0.325 C
BRANCH  19  20
HETATM   20  O1  UNL     1     -10.600   5.906   0.872  1.00  0.00    -0.359 OA
BRANCH  20  21
HETATM   21  C2  UNL     1     -10.897   5.140   1.900  1.00  0.00     0.166 C
HETATM   22  C1  UNL     1     -11.244   3.701   1.631  1.00  0.00     0.033 C
ENDBRANCH  20  21
ENDBRANCH  19  20
BRANCH  19  23
HETATM   23  N1  UNL     1     -12.576   7.039   0.965  1.00  0.00    -0.048 N
ATOM     24  H12 UNL     1     -12.395   6.745   1.925  1.00  0.00     0.280 HD
ATOM     25  H11 UNL     1     -12.389   8.037   1.060  1.00  0.00     0.280 HD
BRANCH  23  26
HETATM   26  C4  UNL     1     -13.932   6.807   0.610  1.00  0.00     0.245 C
BRANCH  26  27
HETATM   27  C5  UNL     1     -14.074   5.327   0.235  1.00  0.00     0.141 C
BRANCH  27  28
HETATM   28  C6  UNL     1     -14.976   4.617   1.127  1.00  0.00     0.174 C
HETATM   29  O2  UNL     1     -14.574   4.231   2.250  1.00  0.00    -0.648 OA
HETATM   30  O3  UNL     1     -16.274   4.357   0.763  1.00  0.00    -0.648 OA
ENDBRANCH  27  28
ENDBRANCH  26  27
ENDBRANCH  23  26
ENDBRANCH  19  23
ENDBRANCH   1  19
TORSDOF 7
ENDMDL