MODEL 2
REMARK VINA RESULT: -8.104133997      1.228      1.726
REMARK  10 active torsions:
REMARK  status: ('A' for Active; 'I' for Inactive)
REMARK    1  A    between atoms: O1_1  and  N1_3
REMARK    2  A    between atoms: C1_5  and  O2_6
REMARK    3  A    between atoms: C1_5  and  C2_8
REMARK    4  A    between atoms: C2_8  and  C3_9
REMARK    5  A    between atoms: C3_9  and  C4_10
REMARK    6  A    between atoms: C4_10  and  C5_11
REMARK    7  A    between atoms: C4_10  and  N3_17
REMARK    8  A    between atoms: C5_11  and  N2_12
REMARK    9  A    between atoms: N3_17  and  C10_19
REMARK   10  A    between atoms: C10_19  and  N4_21
ROOT
HETATM    1  C4  UNL     1      -9.346   7.135   0.505  1.00  0.00     0.112 C
ENDROOT
BRANCH   1   2
HETATM    2  C3  UNL     1      -8.721   6.802   1.854  1.00  0.00     0.035 C
BRANCH   2   3
HETATM    3  C2  UNL     1      -9.640   7.296   2.937  1.00  0.00     0.088 C
BRANCH   3   4
HETATM    4  C1  UNL     1      -8.921   7.260   4.226  1.00  0.00     0.135 C
HETATM    5  N1  UNL     1      -8.335   8.260   4.726  1.00  0.00    -0.251 N
ATOM      6  H1  UNL     1      -7.860   8.154   5.622  1.00  0.00     0.196 HD
BRANCH   5   7
HETATM    7  O1  UNL     1      -8.314   9.480   4.110  1.00  0.00    -0.288 OA
ATOM      8  H1  UNL     1      -8.217  10.292   4.593  1.00  0.00     0.244 HD
ENDBRANCH   5   7
BRANCH   4   9
HETATM    9  O2  UNL     1      -8.904   6.041   4.911  1.00  0.00    -0.348 OA
ATOM     10  H2  UNL     1      -9.691   5.509   4.937  1.00  0.00     0.219 HD
ENDBRANCH   4   9
ENDBRANCH   3   4
ENDBRANCH   2   3
ENDBRANCH   1   2
BRANCH   1  11
HETATM   11  C5  UNL     1      -8.239   7.211  -0.529  1.00  0.00     0.297 C
BRANCH  11  12
HETATM   12  N2  UNL     1      -8.732   6.925  -1.854  1.00  0.00     0.090 N
HETATM   13  C6  UNL     1      -8.560   8.015  -2.759  1.00  0.00     0.272 C
HETATM   14  C7  UNL     1      -7.746   7.568  -3.921  1.00  0.00     0.032 C
HETATM   15  C8  UNL     1      -7.771   6.056  -3.856  1.00  0.00     0.032 C
HETATM   16  C9  UNL     1      -8.164   5.747  -2.434  1.00  0.00     0.272 C
ENDBRANCH  11  12
ENDBRANCH   1  11
BRANCH   1  17
HETATM   17  N3  UNL     1     -10.247   6.016   0.194  1.00  0.00    -0.361 N
ATOM     18  H3  UNL     1      -9.831   5.130  -0.094  1.00  0.00     0.162 HD
BRANCH  17  19
HETATM   19  C10 UNL     1     -11.641   6.094   0.270  1.00  0.00     0.170 C
HETATM   20  S1  UNL     1     -12.465   7.250  -0.516  1.00  0.00    -0.041 SA
BRANCH  19  21
HETATM   21  N4  UNL     1     -12.371   5.160   1.056  1.00  0.00    -0.354 N
HETATM   22  C11 UNL     1     -13.819   5.144   1.055  1.00  0.00     0.130 C
HETATM   23  C12 UNL     1     -14.287   3.676   1.052  1.00  0.00     0.059 C
HETATM   24  C13 UNL     1     -13.811   3.129   2.377  1.00  0.00    -0.049 A
HETATM   25  C14 UNL     1     -14.659   2.374   3.179  1.00  0.00     0.008 A
HETATM   26  C18 UNL     1     -12.535   3.445   2.714  1.00  0.00    -0.034 A
HETATM   27  C15 UNL     1     -14.175   1.912   4.400  1.00  0.00     0.001 A
HETATM   28  C16 UNL     1     -12.896   2.215   4.763  1.00  0.00     0.001 A
HETATM   29  C17 UNL     1     -12.074   2.969   3.946  1.00  0.00     0.009 A
HETATM   30  C19 UNL     1     -11.644   4.222   1.860  1.00  0.00     0.164 C
ENDBRANCH  19  21
ENDBRANCH  17  19
ENDBRANCH   1  17
TORSDOF 10
ENDMDL