MODEL 3
REMARK VINA RESULT: -8.153410781      1.161      1.486
REMARK  9 active torsions:
REMARK  status: ('A' for Active; 'I' for Inactive)
REMARK    1  A    between atoms: C3_3  and  C4_4
REMARK    2  A    between atoms: C4_4  and  O1_5
REMARK    3  A    between atoms: C4_4  and  C5_7
REMARK    4  A    between atoms: C7_9  and  C8_10
REMARK    5  A    between atoms: C9_11  and  C10_12
REMARK    6  A    between atoms: C12_18  and  C13_19
REMARK       I    between atoms: N3_22  and  C16_23
REMARK    7  A    between atoms: C16_23  and  C17_25
REMARK    8  A    between atoms: C18_26  and  C19_27
REMARK    9  A    between atoms: C19_27  and  C20_28
ROOT
HETATM    1  C10 UNL     1      -9.929   6.875  -1.434  1.00  0.00     0.059 A
HETATM    2  C11 UNL     1      -9.658   6.279  -2.656  1.00  0.00     0.129 A
HETATM    3  N1  UNL     1     -10.826   6.172  -3.343  1.00  0.00    -0.310 N
ATOM      4  H1  UNL     1     -10.925   5.770  -4.276  1.00  0.00     0.186 HD
HETATM    5  N2  UNL     1     -11.811   6.667  -2.620  1.00  0.00    -0.303 N
ATOM      6  H2  UNL     1     -12.792   6.712  -2.898  1.00  0.00     0.186 HD
HETATM    7  C12 UNL     1     -11.305   7.102  -1.459  1.00  0.00     0.050 A
ENDROOT
BRANCH   7   8
HETATM    8  C13 UNL     1     -12.030   7.709  -0.326  1.00  0.00     0.042 C
HETATM    9  C14 UNL     1     -13.517   7.595  -0.395  1.00  0.00     0.030 C
HETATM   10  C15 UNL     1     -14.129   6.315  -0.031  1.00  0.00     0.127 C
HETATM   11  N3  UNL     1     -13.311   5.386   0.653  1.00  0.00    -0.349 N
HETATM   12  C16 UNL     1     -13.910   4.075   0.898  1.00  0.00     0.243 C
HETATM   13  C22 UNL     1     -11.991   5.671   1.104  1.00  0.00     0.127 C
HETATM   14  O2  UNL     1     -15.090   3.945   0.501  1.00  0.00    -0.268 OA
HETATM   15  C23 UNL     1     -11.558   7.099   1.000  1.00  0.00     0.030 C
BRANCH  12  16
HETATM   16  C17 UNL     1     -13.136   3.065   1.548  1.00  0.00     0.070 C
HETATM   17  C18 UNL     1     -13.256   2.614   2.755  1.00  0.00    -0.021 C
BRANCH  17  18
HETATM   18  C19 UNL     1     -14.232   3.036   3.768  1.00  0.00     0.027 C
BRANCH  18  19
HETATM   19  C20 UNL     1     -13.630   2.893   5.167  1.00  0.00    -0.001 C
HETATM   20  C21 UNL     1     -12.158   2.639   4.997  1.00  0.00     0.005 C
ENDBRANCH  18  19
ENDBRANCH  17  18
ENDBRANCH  12  16
ENDBRANCH   7   8
BRANCH   1  21
HETATM   21  C9  UNL     1      -8.973   7.194  -0.407  1.00  0.00    -0.063 C
HETATM   22  C8  UNL     1      -8.182   7.445   0.476  1.00  0.00    -0.096 C
BRANCH  22  23
HETATM   23  C7  UNL     1      -7.222   7.727   1.578  1.00  0.00     0.072 A
HETATM   24  C5  UNL     1      -7.709   8.555   2.718  1.00  0.00     0.035 A
HETATM   25  C6  UNL     1      -6.819   9.154   1.717  1.00  0.00     0.026 A
BRANCH  24  26
HETATM   26  C4  UNL     1      -7.201   8.383   4.117  1.00  0.00     0.146 C
BRANCH  26  27
HETATM   27  C3  UNL     1      -6.847   9.748   4.620  1.00  0.00     0.000 C
HETATM   28  C2  UNL     1      -5.838   9.992   5.408  1.00  0.00    -0.033 C
HETATM   29  C1  UNL     1      -5.564  11.379   5.856  1.00  0.00     0.036 C
ENDBRANCH  26  27
BRANCH  26  30
HETATM   30  O1  UNL     1      -8.138   7.752   4.934  1.00  0.00    -0.391 OA
ATOM     31  H1  UNL     1      -8.163   6.814   4.786  1.00  0.00     0.210 HD
ENDBRANCH  26  30
ENDBRANCH  24  26
ENDBRANCH  22  23
ENDBRANCH   1  21
TORSDOF 9
ENDMDL