MODEL 3
REMARK VINA RESULT: -7.132175945      1.338      1.800
REMARK  8 active torsions:
REMARK  status: ('A' for Active; 'I' for Inactive)
REMARK    1  A    between atoms: C2_2  and  C3_3
REMARK    2  A    between atoms: C3_3  and  N1_4
REMARK    3  A    between atoms: N1_4  and  C4_6
REMARK    4  A    between atoms: C4_6  and  C5_10
REMARK    5  A    between atoms: C5_10  and  C6_11
REMARK    6  A    between atoms: C6_11  and  C7_12
REMARK    7  A    between atoms: C11_17  and  C12_18
REMARK    8  A    between atoms: C12_18  and  N4_22
ROOT
HETATM    1  C7  UNL     1     -11.453   6.008   0.506  1.00  0.00     0.042 C
HETATM    2  C8  UNL     1     -12.317   4.903   1.081  1.00  0.00     0.176 C
HETATM    3  O1  UNL     1     -13.538   4.909   0.412  1.00  0.00    -0.390 OA
HETATM    4  C9  UNL     1     -14.179   6.120   0.757  1.00  0.00     0.172 C
HETATM    5  C10 UNL     1     -13.546   7.276   0.011  1.00  0.00     0.065 C
HETATM    6  C11 UNL     1     -12.207   6.754  -0.493  1.00  0.00    -0.028 C
ENDROOT
BRANCH   1   7
HETATM    7  C6  UNL     1     -10.714   6.648   1.590  1.00  0.00     0.019 C
BRANCH   7   8
HETATM    8  C5  UNL     1      -9.241   6.748   1.535  1.00  0.00     0.076 C
BRANCH   8   9
HETATM    9  C4  UNL     1      -8.751   7.009   2.942  1.00  0.00     0.070 C
HETATM   10  N2  UNL     1      -9.427   6.546   3.931  1.00  0.00    -0.389 N
ATOM     11  H22 UNL     1      -9.097   6.722   4.880  1.00  0.00     0.157 HD
ATOM     12  H21 UNL     1     -10.277   6.016   3.742  1.00  0.00     0.157 HD
BRANCH   9  13
HETATM   13  N1  UNL     1      -7.582   7.738   3.201  1.00  0.00    -0.379 N
ATOM     14  H1  UNL     1      -7.594   8.404   3.973  1.00  0.00     0.160 HD
BRANCH  13  15
HETATM   15  C3  UNL     1      -6.357   7.602   2.438  1.00  0.00     0.130 C
BRANCH  15  16
HETATM   16  C2  UNL     1      -6.029   8.878   1.688  1.00  0.00    -0.024 C
HETATM   17  C1  UNL     1      -6.579   8.871   0.289  1.00  0.00     0.017 C
HETATM   18  C18 UNL     1      -6.598  10.093   2.392  1.00  0.00     0.037 C
HETATM   19  C19 UNL     1      -5.718  11.272   2.037  1.00  0.00     0.168 C
HETATM   20  O2  UNL     1      -4.550  11.167   2.792  1.00  0.00    -0.391 OA
HETATM   21  C20 UNL     1      -4.024   9.887   2.779  1.00  0.00     0.168 C
HETATM   22  C21 UNL     1      -4.534   9.061   1.616  1.00  0.00     0.037 C
ENDBRANCH  15  16
ENDBRANCH  13  15
ENDBRANCH   9  13
ENDBRANCH   8   9
ENDBRANCH   7   8
ENDBRANCH   1   7
BRANCH   6  23
HETATM   23  C12 UNL     1     -11.535   7.693  -1.374  1.00  0.00     0.099 C
HETATM   24  N3  UNL     1     -11.757   8.941  -1.424  1.00  0.00    -0.385 N
ATOM     25  H32 UNL     1     -12.480   9.306  -0.804  1.00  0.00     0.157 HD
ATOM     26  H31 UNL     1     -11.284   9.600  -2.043  1.00  0.00     0.157 HD
BRANCH  23  27
HETATM   27  N4  UNL     1     -10.528   7.185  -2.236  1.00  0.00    -0.367 N
HETATM   28  C13 UNL     1     -10.865   6.284  -3.324  1.00  0.00     0.124 C
HETATM   29  C14 UNL     1      -9.652   6.051  -4.194  1.00  0.00     0.020 C
HETATM   30  C15 UNL     1      -8.559   5.450  -3.341  1.00  0.00     0.003 C
HETATM   31  C16 UNL     1      -8.381   6.186  -2.034  1.00  0.00     0.020 C
HETATM   32  C17 UNL     1      -9.120   7.523  -2.095  1.00  0.00     0.124 C
ENDBRANCH  23  27
ENDBRANCH   6  23
TORSDOF 8
ENDMDL