MODEL 2
REMARK VINA RESULT: -7.425311841      2.753      3.995
REMARK  7 active torsions:
REMARK  status: ('A' for Active; 'I' for Inactive)
REMARK    1  A    between atoms: C7_7  and  O1_8
REMARK    2  A    between atoms: C10_12  and  O2_13
REMARK    3  A    between atoms: N1_16  and  C12_17
REMARK    4  A    between atoms: N2_20  and  C15_21
REMARK    5  A    between atoms: C15_21  and  C16_22
REMARK    6  A    between atoms: C16_22  and  C17_23
REMARK    7  A    between atoms: C17_23  and  N3_24
ROOT
HETATM    1  C1  UNL     1     -13.170   8.064   1.123  1.00  0.00     0.043 C
HETATM    2  C2  UNL     1     -12.708   7.636  -0.278  1.00  0.00     0.224 C
HETATM    3  C3  UNL     1     -12.870   6.124  -0.382  1.00  0.00     0.074 C
HETATM    4  C4  UNL     1     -12.252   5.415   0.758  1.00  0.00    -0.047 A
HETATM    5  C5  UNL     1     -13.098   4.463   1.286  1.00  0.00     0.010 A
HETATM    6  C6  UNL     1     -12.634   3.730   2.357  1.00  0.00     0.037 A
HETATM    7  C7  UNL     1     -11.387   3.932   2.880  1.00  0.00     0.066 A
HETATM    8  C8  UNL     1     -10.551   4.884   2.345  1.00  0.00     0.046 A
HETATM    9  C9  UNL     1     -10.989   5.643   1.262  1.00  0.00    -0.019 A
HETATM   10  C10 UNL     1      -9.975   6.621   0.806  1.00  0.00     0.180 C
HETATM   11  C11 UNL     1     -10.374   7.118  -0.555  1.00  0.00     0.309 C
HETATM   12  N1  UNL     1     -11.394   8.109  -0.548  1.00  0.00     0.102 N
ENDROOT
BRANCH  12  13
HETATM   13  C12 UNL     1     -11.285   8.887  -1.756  1.00  0.00     0.253 C
HETATM   14  C13 UNL     1      -9.863   9.009  -2.248  1.00  0.00     0.068 C
HETATM   15  C14 UNL     1     -10.116   9.428  -3.702  1.00  0.00     0.274 C
HETATM   16  N2  UNL     1     -11.205   8.633  -4.130  1.00  0.00     0.090 N
HETATM   17  C23 UNL     1     -11.963   8.249  -2.933  1.00  0.00     0.308 C
BRANCH  16  18
HETATM   18  C15 UNL     1     -10.904   7.445  -4.849  1.00  0.00     0.274 C
BRANCH  18  19
HETATM   19  C16 UNL     1      -9.859   7.567  -5.912  1.00  0.00     0.060 C
BRANCH  19  20
HETATM   20  C17 UNL     1      -8.904   6.396  -5.804  1.00  0.00     0.274 C
BRANCH  20  21
HETATM   21  N3  UNL     1      -8.132   6.354  -4.623  1.00  0.00     0.088 N
HETATM   22  C18 UNL     1      -7.531   5.117  -4.264  1.00  0.00     0.272 C
HETATM   23  C19 UNL     1      -7.115   5.060  -2.813  1.00  0.00     0.030 C
HETATM   24  C20 UNL     1      -7.023   6.476  -2.271  1.00  0.00     0.003 C
HETATM   25  C21 UNL     1      -6.366   7.381  -3.271  1.00  0.00     0.030 C
HETATM   26  C22 UNL     1      -7.254   7.460  -4.489  1.00  0.00     0.272 C
ENDBRANCH  20  21
ENDBRANCH  19  20
ENDBRANCH  18  19
ENDBRANCH  16  18
ENDBRANCH  12  13
BRANCH  10  27
HETATM   27  O2  UNL     1      -9.739   7.629   1.719  1.00  0.00    -0.389 OA
ATOM     28  H2  UNL     1      -9.167   8.311   1.386  1.00  0.00     0.210 HD
ENDBRANCH  10  27
BRANCH   7  29
HETATM   29  O1  UNL     1     -10.976   3.158   3.962  1.00  0.00    -0.361 OA
ATOM     30  H1  UNL     1     -10.633   3.593   4.734  1.00  0.00     0.217 HD
ENDBRANCH   7  29
TORSDOF 7
ENDMDL