MODEL 3
REMARK VINA RESULT: -7.614321561      0.367      1.415
REMARK  7 active torsions:
REMARK  status: ('A' for Active; 'I' for Inactive)
REMARK    1  A    between atoms: C2_2  and  N1_3
REMARK    2  A    between atoms: C2_2  and  C3_7
REMARK    3  A    between atoms: C2_2  and  C4_10
REMARK    4  A    between atoms: C3_7  and  O1_8
REMARK    5  A    between atoms: C4_10  and  C5_11
REMARK    6  A    between atoms: C6_14  and  C7_15
REMARK       I    between atoms: N3_19  and  C11_20
REMARK    7  A    between atoms: C11_20  and  C12_22
ROOT
HETATM    1  C5  UNL     1     -11.879   4.467   1.885  1.00  0.00     0.150 A
HETATM    2  N2  UNL     1     -11.310   5.631   1.524  1.00  0.00    -0.325 N
ATOM      3  H2  UNL     1     -10.464   6.025   1.935  1.00  0.00     0.169 HD
HETATM    4  C6  UNL     1     -12.028   6.194   0.539  1.00  0.00     0.127 A
HETATM    5  N4  UNL     1     -13.033   5.330   0.329  1.00  0.00    -0.245 N
ATOM      6  H4  UNL     1     -13.772   5.452  -0.364  1.00  0.00     0.196 HD
HETATM    7  O3  UNL     1     -12.931   4.320   1.128  1.00  0.00    -0.223 OA
ENDROOT
BRANCH   4   8
HETATM    8  C7  UNL     1     -11.741   7.482  -0.141  1.00  0.00     0.157 C
HETATM    9  C8  UNL     1     -13.021   8.065  -0.628  1.00  0.00     0.035 C
HETATM   10  C9  UNL     1     -12.679   8.598  -1.998  1.00  0.00     0.022 C
HETATM   11  C10 UNL     1     -11.666   7.559  -2.453  1.00  0.00     0.127 C
HETATM   12  N3  UNL     1     -10.867   7.292  -1.289  1.00  0.00    -0.340 N
HETATM   13  C11 UNL     1      -9.517   6.920  -1.263  1.00  0.00     0.229 C
HETATM   14  O2  UNL     1      -9.037   6.717  -0.079  1.00  0.00    -0.272 OA
BRANCH  13  15
HETATM   15  C12 UNL     1      -8.604   6.737  -2.402  1.00  0.00     0.042 C
HETATM   16  C13 UNL     1      -7.396   5.944  -2.044  1.00  0.00     0.024 C
HETATM   17  C14 UNL     1      -6.533   5.658  -3.267  1.00  0.00    -0.013 C
HETATM   18  C15 UNL     1      -5.994   6.998  -3.723  1.00  0.00     0.009 C
HETATM   19  C19 UNL     1      -7.406   4.992  -4.282  1.00  0.00     0.009 C
HETATM   20  C16 UNL     1      -7.178   7.886  -4.039  1.00  0.00    -0.013 C
HETATM   21  C17 UNL     1      -7.889   7.279  -5.211  1.00  0.00     0.009 C
HETATM   22  C21 UNL     1      -8.048   8.123  -2.839  1.00  0.00     0.024 C
HETATM   23  C18 UNL     1      -8.455   5.944  -4.765  1.00  0.00    -0.013 C
HETATM   24  C20 UNL     1      -9.375   6.256  -3.590  1.00  0.00     0.024 C
ENDBRANCH  13  15
ENDBRANCH   4   8
BRANCH   1  25
HETATM   25  C4  UNL     1     -11.348   3.584   2.944  1.00  0.00     0.127 C
BRANCH  25  26
HETATM   26  C2  UNL     1     -12.319   3.146   3.976  1.00  0.00     0.148 C
HETATM   27  C1  UNL     1     -11.703   2.863   5.319  1.00  0.00     0.049 C
BRANCH  26  28
HETATM   28  N1  UNL     1     -13.205   4.314   4.206  1.00  0.00    -0.068 N
ATOM     29  H13 UNL     1     -13.523   4.409   5.170  1.00  0.00     0.275 HD
ATOM     30  H12 UNL     1     -12.728   5.214   4.152  1.00  0.00     0.275 HD
ATOM     31  H11 UNL     1     -13.960   4.203   3.530  1.00  0.00     0.275 HD
ENDBRANCH  26  28
BRANCH  26  32
HETATM   32  C3  UNL     1     -13.246   2.038   3.567  1.00  0.00     0.202 C
BRANCH  32  33
HETATM   33  O1  UNL     1     -14.513   2.419   3.223  1.00  0.00    -0.398 OA
ATOM     34  H1  UNL     1     -14.974   1.835   2.633  1.00  0.00     0.209 HD
ENDBRANCH  32  33
ENDBRANCH  26  32
ENDBRANCH  25  26
ENDBRANCH   1  25
TORSDOF 7
ENDMDL