MODEL 3
REMARK VINA RESULT: -7.395133774      3.399      6.685
REMARK  6 active torsions:
REMARK  status: ('A' for Active; 'I' for Inactive)
REMARK    1  A    between atoms: C2_2  and  N1_3
REMARK    2  A    between atoms: C6_9  and  N3_10
REMARK    3  A    between atoms: N4_13  and  C9_14
REMARK    4  A    between atoms: C9_14  and  C10_15
REMARK    5  A    between atoms: C11_16  and  C12_17
REMARK    6  A    between atoms: C20_27  and  N6_28
ROOT
HETATM    1  N1  UNL     1     -12.572   2.971   4.156  1.00  0.00     0.092 N
HETATM    2  C3  UNL     1     -11.273   3.517   4.001  1.00  0.00     0.279 C
HETATM    3  C4  UNL     1     -10.838   3.812   2.598  1.00  0.00     0.088 C
HETATM    4  C5  UNL     1     -11.893   4.522   1.829  1.00  0.00     0.040 A
HETATM    5  N2  UNL     1     -11.609   5.437   0.890  1.00  0.00    -0.195 N
ATOM      6  H2  UNL     1     -10.631   5.656   0.701  1.00  0.00     0.184 HD
HETATM    7  C6  UNL     1     -12.580   6.090   0.173  1.00  0.00     0.682 A
HETATM    8  N5  UNL     1     -13.852   5.763   0.455  1.00  0.00    -0.176 N
ATOM      9  H5  UNL     1     -14.605   6.222  -0.057  1.00  0.00     0.186 HD
HETATM   10  C20 UNL     1     -14.167   4.837   1.405  1.00  0.00     0.124 A
HETATM   11  C21 UNL     1     -13.183   4.195   2.117  1.00  0.00     0.037 A
HETATM   12  C22 UNL     1     -13.532   3.218   3.142  1.00  0.00     0.317 C
ENDROOT
BRANCH   7  13
HETATM   13  N3  UNL     1     -12.187   7.073  -0.763  1.00  0.00    -0.214 N
HETATM   14  C7  UNL     1     -12.313   8.485  -0.320  1.00  0.00     0.171 C
HETATM   15  C8  UNL     1     -10.870   8.964  -0.362  1.00  0.00     0.293 C
HETATM   16  N4  UNL     1     -10.478   9.090  -1.758  1.00  0.00     0.095 N
HETATM   17  C18 UNL     1     -11.232   8.230  -2.620  1.00  0.00     0.293 C
HETATM   18  C19 UNL     1     -11.650   6.904  -2.069  1.00  0.00     0.171 C
BRANCH  16  19
HETATM   19  C9  UNL     1      -9.037   8.948  -1.894  1.00  0.00     0.299 C
BRANCH  19  20
HETATM   20  C10 UNL     1      -8.566   7.852  -0.985  1.00  0.00    -0.001 C
HETATM   21  C11 UNL     1      -7.671   8.216  -0.063  1.00  0.00    -0.024 C
BRANCH  21  22
HETATM   22  C12 UNL     1      -7.116   7.248   0.898  1.00  0.00     0.008 C
HETATM   23  C13 UNL     1      -8.224   6.471   1.596  1.00  0.00     0.008 C
HETATM   24  C14 UNL     1      -8.997   7.354   2.523  1.00  0.00     0.001 C
HETATM   25  C15 UNL     1      -8.121   8.005   3.549  1.00  0.00     0.000 C
HETATM   26  C16 UNL     1      -6.662   7.650   3.307  1.00  0.00     0.001 C
HETATM   27  C17 UNL     1      -6.296   8.051   1.901  1.00  0.00     0.008 C
ENDBRANCH  21  22
ENDBRANCH  19  20
ENDBRANCH  16  19
ENDBRANCH   7  13
BRANCH  10  28
HETATM   28  N6  UNL     1     -15.405   4.528   1.670  1.00  0.00    -0.385 N
ATOM     29  H62 UNL     1     -16.137   5.106   1.257  1.00  0.00     0.157 HD
ATOM     30  H61 UNL     1     -15.640   3.737   2.270  1.00  0.00     0.157 HD
ENDBRANCH  10  28
BRANCH   1  31
HETATM   31  C2  UNL     1     -13.106   3.523   5.411  1.00  0.00     0.268 C
HETATM   32  C1  UNL     1     -12.002   4.097   6.252  1.00  0.00     0.037 C
ENDBRANCH   1  31
TORSDOF 6
ENDMDL