MODEL 3
REMARK VINA RESULT: -7.273406558      2.920      5.295
REMARK  7 active torsions:
REMARK  status: ('A' for Active; 'I' for Inactive)
REMARK    1  A    between atoms: C4_4  and  C6_7
REMARK    2  A    between atoms: C6_7  and  O1_8
REMARK    3  A    between atoms: C6_7  and  C7_10
REMARK    4  A    between atoms: C7_10  and  C8_11
REMARK    5  A    between atoms: C8_11  and  C9_12
REMARK    6  A    between atoms: C9_12  and  C10_13
REMARK       I    between atoms: C10_13  and  N2_15
REMARK    7  A    between atoms: N2_15  and  C11_17
ROOT
HETATM    1  C1  UNL     1     -10.184   6.595  -4.992  1.00  0.00     0.044 C
HETATM    2  C2  UNL     1      -9.354   7.463  -4.045  1.00  0.00    -0.068 C
HETATM    3  C3  UNL     1      -9.986   8.763  -3.736  1.00  0.00     0.044 C
HETATM    4  C4  UNL     1      -8.241   7.003  -3.608  1.00  0.00     0.052 C
HETATM    5  C5  UNL     1      -7.846   5.662  -4.055  1.00  0.00     0.098 C
HETATM    6  N1  UNL     1      -7.519   4.607  -4.394  1.00  0.00    -0.192 NA
ENDROOT
BRANCH   4   7
HETATM    7  C6  UNL     1      -7.242   7.653  -2.663  1.00  0.00     0.162 C
BRANCH   7   8
HETATM    8  O1  UNL     1      -6.000   7.299  -3.316  1.00  0.00    -0.390 OA
ATOM      9  H1  UNL     1      -5.376   7.668  -2.704  1.00  0.00     0.210 HD
ENDBRANCH   7   8
BRANCH   7  10
HETATM   10  C7  UNL     1      -7.340   6.957  -1.378  1.00  0.00     0.047 C
BRANCH  10  11
HETATM   11  C8  UNL     1      -7.926   7.470  -0.146  1.00  0.00    -0.028 C
HETATM   12  C17 UNL     1      -7.623   6.571   1.057  1.00  0.00     0.025 C
HETATM   13  C18 UNL     1      -7.697   7.339   2.341  1.00  0.00     0.141 C
HETATM   14  S1  UNL     1      -6.097   8.177   2.466  1.00  0.00     0.144 S
HETATM   15  O3  UNL     1      -5.077   7.291   3.067  1.00  0.00    -0.228 OA
HETATM   16  O4  UNL     1      -6.244   9.505   3.105  1.00  0.00    -0.228 OA
HETATM   17  C19 UNL     1      -5.771   8.496   0.713  1.00  0.00     0.141 C
HETATM   18  C20 UNL     1      -7.120   8.784   0.137  1.00  0.00     0.025 C
BRANCH  11  19
HETATM   19  C9  UNL     1      -9.325   7.919  -0.165  1.00  0.00     0.112 C
BRANCH  19  20
HETATM   20  C10 UNL     1     -10.416   6.967  -0.170  1.00  0.00     0.218 C
HETATM   21  O2  UNL     1     -11.067   6.621  -1.212  1.00  0.00    -0.274 OA
HETATM   22  N2  UNL     1     -10.853   6.328   1.026  1.00  0.00    -0.356 N
ATOM     23  H2  UNL     1     -10.372   6.558   1.894  1.00  0.00     0.162 HD
BRANCH  22  24
HETATM   24  C11 UNL     1     -11.932   5.377   1.083  1.00  0.00     0.084 C
HETATM   25  C12 UNL     1     -13.258   5.942   1.460  1.00  0.00     0.025 C
HETATM   26  C13 UNL     1     -14.282   4.830   1.429  1.00  0.00     0.002 C
HETATM   27  C14 UNL     1     -13.893   3.659   2.273  1.00  0.00     0.000 C
HETATM   28  C15 UNL     1     -12.485   3.178   2.003  1.00  0.00     0.002 C
HETATM   29  C16 UNL     1     -11.562   4.373   2.188  1.00  0.00     0.025 C
ENDBRANCH  22  24
ENDBRANCH  19  20
ENDBRANCH  11  19
ENDBRANCH  10  11
ENDBRANCH   7  10
ENDBRANCH   4   7
TORSDOF 7
ENDMDL