MODEL 5
REMARK VINA RESULT: -7.834763285      1.855      4.359
REMARK  6 active torsions:
REMARK  status: ('A' for Active; 'I' for Inactive)
REMARK    1  A    between atoms: N1_2  and  C2_3
REMARK    2  A    between atoms: N1_2  and  C13_21
REMARK    3  A    between atoms: C3_6  and  N3_7
REMARK    4  A    between atoms: N3_7  and  C4_9
REMARK    5  A    between atoms: N6_24  and  C16_25
REMARK    6  A    between atoms: C16_25  and  C17_26
ROOT
HETATM    1  C2  UNL     1      -8.943   6.891   1.271  1.00  0.00     0.681 A
HETATM    2  N2  UNL     1      -9.821   7.461   0.463  1.00  0.00    -0.175 N
ATOM      3  H2  UNL     1      -9.527   8.289  -0.054  1.00  0.00     0.186 HD
HETATM    4  C3  UNL     1     -11.113   7.002   0.276  1.00  0.00     0.139 A
HETATM    5  C10 UNL     1     -11.512   5.887   0.971  1.00  0.00     0.104 A
HETATM    6  C11 UNL     1     -12.826   5.294   0.879  1.00  0.00     0.104 C
HETATM    7  N4  UNL     1     -13.855   4.808   0.826  1.00  0.00    -0.191 NA
HETATM    8  C12 UNL     1     -10.585   5.290   1.820  1.00  0.00     0.132 A
HETATM    9  N5  UNL     1      -9.349   5.791   1.951  1.00  0.00    -0.200 N
ATOM     10  H5  UNL     1      -8.694   5.330   2.581  1.00  0.00     0.183 HD
ENDROOT
BRANCH   4  11
HETATM   11  N3  UNL     1     -11.870   7.594  -0.502  1.00  0.00    -0.370 N
ATOM     12  H3  UNL     1     -12.710   7.821   0.031  1.00  0.00     0.161 HD
BRANCH  11  13
HETATM   13  C4  UNL     1     -12.073   8.075  -1.764  1.00  0.00     0.083 C
HETATM   14  C5  UNL     1     -11.378   7.131  -2.786  1.00  0.00     0.025 C
HETATM   15  C6  UNL     1     -11.405   7.800  -4.115  1.00  0.00     0.002 C
HETATM   16  C7  UNL     1     -12.418   8.900  -4.234  1.00  0.00     0.000 C
HETATM   17  C8  UNL     1     -12.176  10.015  -3.246  1.00  0.00     0.002 C
HETATM   18  C9  UNL     1     -11.447   9.431  -2.061  1.00  0.00     0.025 C
ENDBRANCH  11  13
ENDBRANCH   4  11
BRANCH   1  19
HETATM   19  N1  UNL     1      -7.617   7.372   1.460  1.00  0.00    -0.217 N
HETATM   20  C1  UNL     1      -6.834   7.681   0.296  1.00  0.00     0.169 C
BRANCH  19  21
HETATM   21  C13 UNL     1      -7.049   7.550   2.767  1.00  0.00     0.105 C
HETATM   22  C14 UNL     1      -7.871   8.427   3.677  1.00  0.00     0.056 C
HETATM   23  C15 UNL     1      -7.074   8.524   4.985  1.00  0.00     0.275 C
HETATM   24  N6  UNL     1      -6.033   9.497   4.741  1.00  0.00     0.092 N
HETATM   25  C21 UNL     1      -5.640   9.510   3.364  1.00  0.00     0.275 C
HETATM   26  C22 UNL     1      -5.658   8.134   2.719  1.00  0.00     0.056 C
BRANCH  24  27
HETATM   27  C16 UNL     1      -4.932   9.441   5.646  1.00  0.00     0.312 C
BRANCH  27  28
HETATM   28  C17 UNL     1      -4.916  10.496   6.676  1.00  0.00    -0.013 A
HETATM   29  C18 UNL     1      -5.306  10.396   8.005  1.00  0.00     0.027 A
HETATM   30  C19 UNL     1      -5.089  11.663   8.537  1.00  0.00     0.088 A
HETATM   31  N7  UNL     1      -4.603  12.463   7.585  1.00  0.00    -0.375 N
HETATM   32  C20 UNL     1      -4.487  11.778   6.443  1.00  0.00     0.096 A
ATOM     33  H7  UNL     1      -4.358  13.446   7.710  1.00  0.00     0.164 HD
ENDBRANCH  27  28
ENDBRANCH  24  27
ENDBRANCH  19  21
ENDBRANCH   1  19
TORSDOF 6
ENDMDL