MODEL 4
REMARK VINA RESULT: -6.416552365      0.976      1.160
REMARK  7 active torsions:
REMARK  status: ('A' for Active; 'I' for Inactive)
REMARK    1  A    between atoms: O1_2  and  C2_3
REMARK    2  A    between atoms: C3_4  and  O2_6
REMARK    3  A    between atoms: C8_11  and  C9_12
REMARK    4  A    between atoms: C9_12  and  N1_13
REMARK    5  A    between atoms: C9_12  and  C10_17
REMARK    6  A    between atoms: N2_22  and  C14_23
REMARK    7  A    between atoms: C14_23  and  C15_24
ROOT
HETATM    1  C2  UNL     1      -7.216   7.324  -2.154  1.00  0.00     0.192 C
HETATM    2  C3  UNL     1      -7.921   6.477  -3.132  1.00  0.00     0.083 C
HETATM    3  C4  UNL     1      -7.336   5.063  -3.210  1.00  0.00     0.049 C
HETATM    4  C5  UNL     1      -9.411   6.424  -3.083  1.00  0.00     0.041 C
HETATM    5  C6  UNL     1      -9.991   7.030  -1.813  1.00  0.00     0.015 C
HETATM    6  C7  UNL     1      -9.085   6.674  -0.701  1.00  0.00     0.062 C
HETATM    7  C8  UNL     1      -9.685   6.582   0.674  1.00  0.00     0.028 C
HETATM    8  C13 UNL     1      -8.757   7.141   1.690  1.00  0.00     0.272 C
HETATM    9  O3  UNL     1      -9.161   7.618   2.746  1.00  0.00    -0.266 OA
HETATM   10  N2  UNL     1      -7.362   7.113   1.412  1.00  0.00    -0.221 N
HETATM   11  O4  UNL     1      -6.927   7.183   0.149  1.00  0.00    -0.261 OA
HETATM   12  C21 UNL     1      -7.863   7.552  -0.809  1.00  0.00     0.122 C
HETATM   13  C22 UNL     1      -8.133   9.010  -0.596  1.00  0.00     0.052 C
ENDROOT
BRANCH   7  14
HETATM   14  C9  UNL     1     -11.106   6.841   0.853  1.00  0.00     0.221 C
BRANCH  14  15
HETATM   15  N1  UNL     1     -11.262   8.326   0.714  1.00  0.00    -0.071 N
ATOM     16  H13 UNL     1     -10.543   8.862   1.201  1.00  0.00     0.275 HD
ATOM     17  H12 UNL     1     -11.057   8.674  -0.223  1.00  0.00     0.275 HD
ATOM     18  H11 UNL     1     -12.209   8.530   1.030  1.00  0.00     0.275 HD
ENDBRANCH  14  15
BRANCH  14  19
HETATM   19  C10 UNL     1     -12.164   6.297  -0.002  1.00  0.00     0.012 C
HETATM   20  C11 UNL     1     -12.728   5.095   0.808  1.00  0.00     0.012 C
HETATM   21  C12 UNL     1     -13.392   7.152  -0.208  1.00  0.00     0.012 C
ENDBRANCH  14  19
ENDBRANCH   7  14
BRANCH  10  22
HETATM   22  C14 UNL     1      -6.371   6.991   2.460  1.00  0.00     0.164 C
BRANCH  22  23
HETATM   23  C15 UNL     1      -5.639   8.230   2.822  1.00  0.00     0.006 C
HETATM   24  C16 UNL     1      -6.324   8.730   4.116  1.00  0.00     0.006 C
HETATM   25  C17 UNL     1      -5.625   9.926   4.669  1.00  0.00     0.000 C
HETATM   26  C18 UNL     1      -4.235   9.474   5.108  1.00  0.00     0.000 C
HETATM   27  C19 UNL     1      -3.504   9.067   3.868  1.00  0.00     0.000 C
HETATM   28  C20 UNL     1      -4.221   7.886   3.246  1.00  0.00     0.006 C
ENDBRANCH  22  23
ENDBRANCH  10  22
BRANCH   1  29
HETATM   29  O1  UNL     1      -6.872   8.570  -2.677  1.00  0.00    -0.385 OA
HETATM   30  C1  UNL     1      -5.523   8.803  -2.753  1.00  0.00     0.202 C
ENDBRANCH   1  29
BRANCH   2  31
HETATM   31  O2  UNL     1      -7.617   7.026  -4.413  1.00  0.00    -0.388 OA
ATOM     32  H2  UNL     1      -8.423   6.977  -4.913  1.00  0.00     0.210 HD
ENDBRANCH   2  31
TORSDOF 7
ENDMDL