MODEL 5
REMARK VINA RESULT: -7.442720725      3.070      5.864
REMARK  5 active torsions:
REMARK  status: ('A' for Active; 'I' for Inactive)
REMARK    1  A    between atoms: C2_2  and  C3_3
REMARK    2  A    between atoms: C4_4  and  O1_5
REMARK    3  A    between atoms: O1_5  and  C5_6
REMARK    4  A    between atoms: C13_14  and  N1_15
REMARK       I    between atoms: N1_15  and  C14_17
REMARK       I    between atoms: C14_17  and  N2_19
REMARK    5  A    between atoms: C18_28  and  N5_29
ROOT
HETATM    1  C5  UNL     1      -8.558   6.972  -2.188  1.00  0.00     0.163 C
HETATM    2  C6  UNL     1      -7.430   6.239  -2.826  1.00  0.00     0.018 C
HETATM    3  C7  UNL     1      -6.425   7.234  -3.354  1.00  0.00     0.012 C
HETATM    4  C8  UNL     1      -7.145   8.096  -4.385  1.00  0.00    -0.011 C
HETATM    5  C9  UNL     1      -7.545   7.209  -5.524  1.00  0.00     0.009 C
HETATM    6  C10 UNL     1      -8.540   6.208  -5.010  1.00  0.00    -0.011 C
HETATM    7  C11 UNL     1      -7.867   5.356  -3.972  1.00  0.00     0.012 C
HETATM    8  C12 UNL     1      -9.740   6.848  -4.373  1.00  0.00     0.038 C
HETATM    9  C13 UNL     1      -9.312   7.785  -3.263  1.00  0.00     0.062 C
HETATM   10  C16 UNL     1      -8.325   8.807  -3.775  1.00  0.00     0.038 C
ENDROOT
BRANCH   1  11
HETATM   11  O1  UNL     1      -8.049   7.920  -1.273  1.00  0.00    -0.327 OA
BRANCH  11  12
HETATM   12  C4  UNL     1      -7.875   7.661   0.068  1.00  0.00     0.157 A
HETATM   13  C3  UNL     1      -6.852   8.335   0.762  1.00  0.00     0.058 A
HETATM   14  C18 UNL     1      -6.662   8.098   2.087  1.00  0.00     0.118 A
HETATM   15  N4  UNL     1      -7.489   7.184   2.720  1.00  0.00    -0.338 N
HETATM   16  C17 UNL     1      -8.451   6.550   2.061  1.00  0.00     0.184 A
ATOM     17  H4  UNL     1      -7.355   6.995   3.713  1.00  0.00     0.168 HD
HETATM   18  N3  UNL     1      -8.616   6.803   0.770  1.00  0.00    -0.332 N
ATOM     19  H3  UNL     1      -9.360   6.306   0.279  1.00  0.00     0.168 HD
BRANCH  13  20
HETATM   20  C2  UNL     1      -6.074   9.272  -0.015  1.00  0.00     0.009 C
HETATM   21  C1  UNL     1      -4.851   9.112  -0.419  1.00  0.00     0.012 C
ENDBRANCH  13  20
BRANCH  14  22
HETATM   22  N5  UNL     1      -5.701   8.757   2.867  1.00  0.00    -0.366 N
HETATM   23  C19 UNL     1      -5.859  10.005   3.559  1.00  0.00     0.124 C
HETATM   24  C20 UNL     1      -5.434   9.529   4.974  1.00  0.00     0.021 C
HETATM   25  C21 UNL     1      -4.106   8.848   4.603  1.00  0.00     0.021 C
HETATM   26  C22 UNL     1      -4.371   8.303   3.187  1.00  0.00     0.124 C
ENDBRANCH  14  22
ENDBRANCH  11  12
ENDBRANCH   1  11
BRANCH   9  27
HETATM   27  N1  UNL     1     -10.486   8.360  -2.675  1.00  0.00    -0.331 N
HETATM   28  C14 UNL     1     -11.289   7.680  -1.749  1.00  0.00     0.316 C
HETATM   29  O2  UNL     1     -11.027   6.510  -1.390  1.00  0.00    -0.247 OA
HETATM   30  N2  UNL     1     -12.457   8.306  -1.173  1.00  0.00    -0.347 N
HETATM   31  C15 UNL     1     -13.271   7.598  -0.227  1.00  0.00     0.151 C
ATOM     32  H2  UNL     1     -12.706   9.258  -1.441  1.00  0.00     0.163 HD
ATOM     33  H1  UNL     1     -10.749   9.309  -2.942  1.00  0.00     0.165 HD
ENDBRANCH   9  27
TORSDOF 5
ENDMDL