MODEL 3
REMARK VINA RESULT: -8.363538399      1.119      1.336
REMARK  8 active torsions:
REMARK  status: ('A' for Active; 'I' for Inactive)
REMARK    1  A    between atoms: C3_3  and  C4_4
REMARK    2  A    between atoms: C3_3  and  C11_15
REMARK    3  A    between atoms: C4_4  and  C5_5
REMARK    4  A    between atoms: C5_5  and  C6_6
REMARK    5  A    between atoms: C8_8  and  O1_9
REMARK    6  A    between atoms: C12_16  and  C13_17
REMARK    7  A    between atoms: C18_22  and  C19_23
REMARK       I    between atoms: C19_23  and  N1_25
REMARK    8  A    between atoms: N1_25  and  C20_27
ROOT
HETATM    1  C11 UNL     1     -11.019   8.191  -0.042  1.00  0.00     0.015 C
HETATM    2  C12 UNL     1     -10.154   8.365  -0.998  1.00  0.00    -0.020 C
ENDROOT
BRANCH   1   3
HETATM    3  C3  UNL     1     -11.513   7.075   0.700  1.00  0.00     0.000 C
HETATM    4  C2  UNL     1     -12.876   7.000   0.862  1.00  0.00    -0.011 C
HETATM    5  C1  UNL     1     -13.755   8.021   0.301  1.00  0.00     0.037 C
BRANCH   3   6
HETATM    6  C4  UNL     1     -10.882   5.979   1.349  1.00  0.00    -0.142 C
BRANCH   6   7
HETATM    7  C5  UNL     1     -10.348   5.050   1.897  1.00  0.00     0.118 C
BRANCH   7   8
HETATM    8  C6  UNL     1     -11.108   3.758   2.311  1.00  0.00     0.144 C
HETATM    9  C7  UNL     1     -12.459   3.855   1.715  1.00  0.00     0.065 C
HETATM   10  C8  UNL     1     -13.529   3.061   2.396  1.00  0.00     0.130 C
HETATM   11  C9  UNL     1     -13.040   2.422   3.685  1.00  0.00     0.142 C
HETATM   12  C10 UNL     1     -12.177   3.398   4.437  1.00  0.00     0.261 C
HETATM   13  O2  UNL     1     -12.462   3.780   5.588  1.00  0.00    -0.265 OA
HETATM   14  O3  UNL     1     -11.059   3.816   3.719  1.00  0.00    -0.315 OA
BRANCH  10  15
HETATM   15  O1  UNL     1     -14.530   3.980   2.768  1.00  0.00    -0.395 OA
ATOM     16  H1  UNL     1     -14.268   4.820   2.411  1.00  0.00     0.210 HD
ENDBRANCH  10  15
ENDBRANCH   7   8
ENDBRANCH   6   7
ENDBRANCH   3   6
ENDBRANCH   1   3
BRANCH   2  17
HETATM   17  C13 UNL     1      -9.350   7.433  -1.702  1.00  0.00     0.017 C
HETATM   18  C14 UNL     1      -8.515   8.177  -2.833  1.00  0.00    -0.006 C
HETATM   19  C15 UNL     1      -7.813   6.978  -3.397  1.00  0.00     0.006 C
HETATM   20  C23 UNL     1      -7.563   8.942  -1.978  1.00  0.00     0.020 C
HETATM   21  C16 UNL     1      -7.772   5.909  -2.288  1.00  0.00     0.006 C
HETATM   22  C17 UNL     1      -8.140   6.811  -1.079  1.00  0.00     0.006 C
HETATM   23  C18 UNL     1      -7.076   7.853  -1.040  1.00  0.00     0.083 C
BRANCH  23  24
HETATM   24  C19 UNL     1      -6.636   8.310   0.267  1.00  0.00     0.222 C
HETATM   25  O4  UNL     1      -5.772   9.200   0.467  1.00  0.00    -0.273 OA
HETATM   26  N1  UNL     1      -7.227   7.715   1.433  1.00  0.00    -0.357 N
ATOM     27  H1  UNL     1      -7.926   6.985   1.301  1.00  0.00     0.162 HD
BRANCH  26  28
HETATM   28  C20 UNL     1      -6.881   8.099   2.785  1.00  0.00     0.076 C
HETATM   29  C21 UNL     1      -7.965   7.720   3.752  1.00  0.00     0.032 C
HETATM   30  C22 UNL     1      -5.636   7.281   3.151  1.00  0.00     0.032 C
ENDBRANCH  26  28
ENDBRANCH  23  24
ENDBRANCH   2  17
TORSDOF 8
ENDMDL