MODEL 2
REMARK VINA RESULT: -6.541685029      1.530      1.910
REMARK  8 active torsions:
REMARK  status: ('A' for Active; 'I' for Inactive)
REMARK    1  A    between atoms: C7_7  and  C9_9
REMARK    2  A    between atoms: C9_9  and  N1_10
REMARK    3  A    between atoms: N1_10  and  C10_11
REMARK    4  A    between atoms: N1_10  and  C16_19
REMARK    5  A    between atoms: C10_11  and  C11_12
REMARK    6  A    between atoms: C10_11  and  C12_15
REMARK    7  A    between atoms: C11_12  and  O1_13
REMARK    8  A    between atoms: C16_19  and  O2_20
ROOT
HETATM    1  N1  UNL     1      -8.870   7.023  -4.257  1.00  0.00    -0.330 N
ENDROOT
BRANCH   1   2
HETATM    2  C9  UNL     1      -8.715   7.736  -3.003  1.00  0.00     0.076 C
BRANCH   2   3
HETATM    3  C7  UNL     1      -9.392   7.477  -1.757  1.00  0.00    -0.011 C
HETATM    4  C6  UNL     1     -10.755   6.998  -1.598  1.00  0.00     0.019 C
HETATM    5  C4  UNL     1     -11.243   7.045  -0.167  1.00  0.00    -0.017 C
HETATM    6  C3  UNL     1     -10.338   6.412   0.807  1.00  0.00     0.008 C
HETATM    7  C5  UNL     1     -12.561   6.237  -0.166  1.00  0.00     0.010 C
HETATM    8  C2  UNL     1      -8.875   6.498   0.545  1.00  0.00    -0.017 C
HETATM    9  C1  UNL     1      -8.182   7.454   1.531  1.00  0.00     0.010 C
HETATM   10  C23 UNL     1      -8.421   6.687  -0.840  1.00  0.00     0.019 C
HETATM   11  C8  UNL     1      -9.395   8.872  -1.027  1.00  0.00     0.021 C
ENDBRANCH   2   3
ENDBRANCH   1   2
BRANCH   1  12
HETATM   12  C10 UNL     1      -9.799   7.545  -5.125  1.00  0.00     0.022 C
BRANCH  12  13
HETATM   13  C11 UNL     1     -10.928   6.621  -5.609  1.00  0.00     0.217 C
BRANCH  13  14
HETATM   14  O1  UNL     1     -10.536   5.505  -6.290  1.00  0.00    -0.395 OA
ATOM     15  H1  UNL     1     -10.092   5.656  -7.116  1.00  0.00     0.209 HD
ENDBRANCH  13  14
ENDBRANCH  12  13
BRANCH  12  16
HETATM   16  C12 UNL     1     -10.232   8.933  -5.277  1.00  0.00    -0.010 C
HETATM   17  C13 UNL     1     -10.880   9.281  -6.626  1.00  0.00     0.021 C
HETATM   18  C14 UNL     1     -11.324   9.436  -4.346  1.00  0.00     0.021 C
HETATM   19  C15 UNL     1      -9.160  10.000  -5.168  1.00  0.00     0.021 C
ENDBRANCH  12  16
ENDBRANCH   1  12
BRANCH   1  20
HETATM   20  C16 UNL     1      -7.607   6.480  -4.614  1.00  0.00     0.167 C
HETATM   21  C17 UNL     1      -7.189   6.699  -6.066  1.00  0.00     0.333 C
HETATM   22  N2  UNL     1      -5.861   6.165  -6.307  1.00  0.00     0.093 N
HETATM   23  C18 UNL     1      -4.891   7.124  -5.801  1.00  0.00     0.273 C
HETATM   24  C22 UNL     1      -5.584   4.916  -5.675  1.00  0.00     0.273 C
HETATM   25  C19 UNL     1      -5.225   7.349  -4.366  1.00  0.00     0.040 C
HETATM   26  C20 UNL     1      -6.376   6.443  -3.874  1.00  0.00     0.047 C
HETATM   27  C21 UNL     1      -5.644   5.078  -4.186  1.00  0.00     0.040 C
BRANCH  20  28
HETATM   28  O2  UNL     1      -7.937   5.060  -4.708  1.00  0.00    -0.368 OA
ATOM     29  H2  UNL     1      -8.557   4.975  -3.994  1.00  0.00     0.212 HD
ENDBRANCH  20  28
ENDBRANCH   1  20
TORSDOF 8
ENDMDL