MODEL 1
REMARK VINA RESULT: -7.356854528      0.000      0.000
REMARK  7 active torsions:
REMARK  status: ('A' for Active; 'I' for Inactive)
REMARK    1  A    between atoms: C2_2  and  C3_3
REMARK    2  A    between atoms: C2_2  and  C9_13
REMARK    3  A    between atoms: C3_3  and  S1_4
REMARK    4  A    between atoms: S1_4  and  C4_5
REMARK       I    between atoms: C4_5  and  N1_7
REMARK       I    between atoms: C9_13  and  N2_15
REMARK    5  A    between atoms: N2_15  and  C10_17
REMARK    6  A    between atoms: C10_17  and  N3_19
REMARK    7  A    between atoms: N3_19  and  C11_21
ROOT
HETATM    1  C9  UNL     1     -11.626   7.637  -1.011  1.00  0.00     0.228 C
HETATM    2  O3  UNL     1     -10.956   8.694  -0.903  1.00  0.00    -0.273 OA
HETATM    3  N2  UNL     1     -11.718   7.004  -2.270  1.00  0.00    -0.304 N
ATOM      4  H2  UNL     1     -12.265   6.146  -2.341  1.00  0.00     0.171 HD
ENDROOT
BRANCH   1   5
HETATM    5  C2  UNL     1     -12.334   7.034   0.185  1.00  0.00     0.084 C
HETATM    6  C1  UNL     1     -13.540   7.862   0.483  1.00  0.00     0.020 C
BRANCH   5   7
HETATM    7  C3  UNL     1     -11.363   6.836   1.287  1.00  0.00     0.097 C
BRANCH   7   8
HETATM    8  S1  UNL     1     -10.906   5.170   1.678  1.00  0.00    -0.068 SA
BRANCH   8   9
HETATM    9  C4  UNL     1     -12.209   4.027   1.967  1.00  0.00     0.282 C
HETATM   10  O1  UNL     1     -13.090   3.850   1.072  1.00  0.00    -0.260 OA
HETATM   11  N1  UNL     1     -12.307   3.293   3.183  1.00  0.00    -0.339 N
HETATM   12  C5  UNL     1     -11.349   3.433   4.249  1.00  0.00     0.152 C
HETATM   13  C8  UNL     1     -13.403   2.378   3.357  1.00  0.00     0.152 C
HETATM   14  C6  UNL     1     -12.141   3.462   5.541  1.00  0.00     0.187 C
HETATM   15  O2  UNL     1     -13.473   3.766   5.330  1.00  0.00    -0.388 OA
HETATM   16  C7  UNL     1     -14.149   2.815   4.605  1.00  0.00     0.187 C
ENDBRANCH   8   9
ENDBRANCH   7   8
ENDBRANCH   5   7
ENDBRANCH   1   5
BRANCH   3  17
HETATM   17  C10 UNL     1     -11.088   7.500  -3.444  1.00  0.00     0.174 C
HETATM   18  S2  UNL     1     -12.025   7.965  -4.694  1.00  0.00    -0.041 SA
BRANCH  17  19
HETATM   19  N3  UNL     1      -9.676   7.579  -3.478  1.00  0.00    -0.362 N
ATOM     20  H3  UNL     1      -9.262   8.506  -3.384  1.00  0.00     0.162 HD
BRANCH  19  21
HETATM   21  C11 UNL     1      -8.773   6.478  -3.633  1.00  0.00     0.087 C
HETATM   22  C12 UNL     1      -8.342   6.283  -5.041  1.00  0.00     0.025 C
HETATM   23  C13 UNL     1      -6.876   5.984  -5.211  1.00  0.00     0.002 C
HETATM   24  C14 UNL     1      -6.351   4.993  -4.215  1.00  0.00     0.001 C
HETATM   25  C15 UNL     1      -6.852   5.236  -2.817  1.00  0.00     0.006 C
HETATM   26  C16 UNL     1      -7.576   6.573  -2.709  1.00  0.00     0.004 C
HETATM   27  C17 UNL     1      -8.050   6.710  -1.289  1.00  0.00     0.012 C
ENDBRANCH  19  21
ENDBRANCH  17  19
ENDBRANCH   3  17
TORSDOF 7
ENDMDL