MODEL 1
REMARK VINA RESULT: -7.426969076      0.000      0.000
REMARK  6 active torsions:
REMARK  status: ('A' for Active; 'I' for Inactive)
REMARK    1  A    between atoms: C2_2  and  S1_3
REMARK    2  A    between atoms: S1_3  and  C3_6
REMARK    3  A    between atoms: C3_6  and  C4_7
REMARK    4  A    between atoms: C4_7  and  C5_8
REMARK    5  A    between atoms: C5_8  and  N1_9
REMARK       I    between atoms: N1_9  and  C6_11
REMARK       I    between atoms: C6_11  and  N2_13
REMARK    6  A    between atoms: N2_13  and  C7_15
ROOT
HETATM    1  N1  UNL     1       9.874   4.560  -1.225  1.00  0.00    -0.343 N
ATOM      2  H1  UNL     1       9.377   3.929  -0.598  1.00  0.00     0.164 HD
HETATM    3  C6  UNL     1       9.209   5.637  -1.824  1.00  0.00     0.316 C
HETATM    4  O3  UNL     1       9.829   6.404  -2.589  1.00  0.00    -0.247 OA
HETATM    5  N2  UNL     1       7.841   5.843  -1.555  1.00  0.00    -0.334 N
ATOM      6  H2  UNL     1       7.385   5.186  -0.922  1.00  0.00     0.165 HD
ENDROOT
BRANCH   5   7
HETATM    7  C7  UNL     1       7.034   6.910  -2.100  1.00  0.00     0.035 C
HETATM    8  C8  UNL     1       6.907   7.989  -1.078  1.00  0.00     0.035 C
HETATM    9  C9  UNL     1       5.921   9.079  -1.435  1.00  0.00    -0.012 C
HETATM   10  C10 UNL     1       6.526  10.168  -2.254  1.00  0.00     0.005 C
HETATM   11  C15 UNL     1       4.623   8.561  -1.984  1.00  0.00     0.009 C
HETATM   12  C11 UNL     1       7.134   9.814  -3.529  1.00  0.00     0.005 C
HETATM   13  C12 UNL     1       6.874   8.462  -4.084  1.00  0.00    -0.012 C
HETATM   14  C13 UNL     1       5.425   8.124  -4.234  1.00  0.00     0.009 C
HETATM   15  C17 UNL     1       7.661   7.370  -3.378  1.00  0.00     0.035 C
HETATM   16  C14 UNL     1       4.831   7.482  -3.022  1.00  0.00    -0.012 C
HETATM   17  C16 UNL     1       5.646   6.385  -2.433  1.00  0.00     0.035 C
ENDBRANCH   5   7
BRANCH   1  18
HETATM   18  C5  UNL     1      11.285   4.357  -1.511  1.00  0.00     0.125 C
BRANCH  18  19
HETATM   19  C4  UNL     1      11.616   2.928  -1.745  1.00  0.00     0.035 C
BRANCH  19  20
HETATM   20  C3  UNL     1      13.044   2.755  -2.145  1.00  0.00     0.146 C
BRANCH  20  21
HETATM   21  S1  UNL     1      13.244   1.819  -3.607  1.00  0.00     0.165 S
HETATM   22  O1  UNL     1      13.686   0.423  -3.404  1.00  0.00    -0.224 OA
HETATM   23  O2  UNL     1      14.334   2.453  -4.494  1.00  0.00    -0.224 OA
BRANCH  21  24
HETATM   24  C2  UNL     1      11.745   1.853  -4.536  1.00  0.00     0.098 C
HETATM   25  C1  UNL     1      11.622   2.596  -5.606  1.00  0.00     0.023 C
ENDBRANCH  21  24
ENDBRANCH  20  21
ENDBRANCH  19  20
ENDBRANCH  18  19
ENDBRANCH   1  18
TORSDOF 6
ENDMDL