MODEL 5
REMARK VINA RESULT: -6.247849142      2.615      5.942
REMARK  8 active torsions:
REMARK  status: ('A' for Active; 'I' for Inactive)
REMARK    1  A    between atoms: C2_2  and  C3_3
REMARK    2  A    between atoms: C3_3  and  N1_4
REMARK    3  A    between atoms: N1_4  and  C4_6
REMARK    4  A    between atoms: C4_6  and  N2_8
REMARK    5  A    between atoms: N2_8  and  C5_10
REMARK    6  A    between atoms: C5_10  and  C6_11
REMARK    7  A    between atoms: C6_11  and  C7_12
REMARK    8  A    between atoms: C7_12  and  N3_13
ROOT
HETATM    1  C4  UNL     1      12.085   5.715   3.003  1.00  0.00     0.168 C
HETATM    2  S1  UNL     1      12.765   6.618   4.179  1.00  0.00    -0.041 SA
ENDROOT
BRANCH   1   3
HETATM    3  N1  UNL     1      10.724   5.406   3.039  1.00  0.00    -0.358 N
ATOM      4  H1  UNL     1      10.454   4.585   3.580  1.00  0.00     0.162 HD
BRANCH   3   5
HETATM    5  C3  UNL     1       9.641   6.147   2.376  1.00  0.00     0.032 C
HETATM    6  C13 UNL     1       8.460   5.237   2.312  1.00  0.00     0.031 C
HETATM    7  C14 UNL     1       7.414   5.622   1.310  1.00  0.00     0.007 C
HETATM    8  C15 UNL     1       8.031   5.774  -0.030  1.00  0.00    -0.019 C
HETATM    9  C16 UNL     1       6.971   6.218  -1.028  1.00  0.00     0.010 C
HETATM   10  C17 UNL     1       9.285   6.564  -0.110  1.00  0.00     0.007 C
HETATM   11  C18 UNL     1      10.048   6.810   1.122  1.00  0.00     0.031 C
BRANCH   5  12
HETATM   12  C2  UNL     1       9.303   7.268   3.372  1.00  0.00     0.026 C
HETATM   13  C1  UNL     1       8.895   6.784   4.712  1.00  0.00     0.007 C
ENDBRANCH   5  12
ENDBRANCH   3   5
ENDBRANCH   1   3
BRANCH   1  14
HETATM   14  N2  UNL     1      12.915   5.257   1.971  1.00  0.00    -0.367 N
ATOM     15  H2  UNL     1      13.037   4.248   1.882  1.00  0.00     0.161 HD
BRANCH  14  16
HETATM   16  C5  UNL     1      13.602   6.081   1.038  1.00  0.00     0.127 C
BRANCH  16  17
HETATM   17  C6  UNL     1      14.029   5.433  -0.243  1.00  0.00     0.064 C
BRANCH  17  18
HETATM   18  C7  UNL     1      12.808   4.722  -0.817  1.00  0.00     0.060 C
BRANCH  18  19
HETATM   19  N3  UNL     1      12.885   3.322  -0.826  1.00  0.00    -0.390 N
HETATM   20  C8  UNL     1      14.139   2.743  -1.173  1.00  0.00     0.141 C
HETATM   21  C9  UNL     1      14.236   2.141  -2.531  1.00  0.00     0.136 C
HETATM   22  N4  UNL     1      13.181   2.382  -3.446  1.00  0.00    -0.414 N
HETATM   23  C10 UNL     1      13.085   1.409  -4.510  1.00  0.00     0.143 C
HETATM   24  C11 UNL     1      11.913   2.764  -2.910  1.00  0.00     0.136 C
HETATM   25  C12 UNL     1      11.829   2.583  -1.412  1.00  0.00     0.141 C
ENDBRANCH  18  19
ENDBRANCH  17  18
ENDBRANCH  16  17
ENDBRANCH  14  16
ENDBRANCH   1  14
TORSDOF 8
ENDMDL