MODEL 3
REMARK VINA RESULT: -7.207341762      2.299      6.831
REMARK  6 active torsions:
REMARK  status: ('A' for Active; 'I' for Inactive)
REMARK    1  A    between atoms: C1_2  and  C2_3
REMARK       I    between atoms: C1_2  and  N3_20
REMARK    2  A    between atoms: C2_3  and  C3_4
REMARK    3  A    between atoms: N2_11  and  C7_12
REMARK    4  A    between atoms: C7_12  and  C8_13
REMARK    5  A    between atoms: C8_13  and  C9_14
REMARK    6  A    between atoms: N3_20  and  C15_22
ROOT
HETATM    1  C3  UNL     1       8.216   5.846   0.993  1.00  0.00     0.188 C
HETATM    2  C4  UNL     1       7.704   5.286   2.295  1.00  0.00     0.241 C
HETATM    3  O2  UNL     1       7.265   4.122   2.403  1.00  0.00    -0.271 OA
HETATM    4  N1  UNL     1       7.765   6.197   3.387  1.00  0.00    -0.355 N
ATOM      5  H1  UNL     1       7.039   6.155   4.102  1.00  0.00     0.162 HD
HETATM    6  C5  UNL     1       8.813   7.178   3.523  1.00  0.00     0.167 C
HETATM    7  C6  UNL     1       9.582   7.415   2.237  1.00  0.00     0.083 C
HETATM    8  N2  UNL     1       9.456   6.433   1.268  1.00  0.00    -0.358 N
ENDROOT
BRANCH   1   9
HETATM    9  C2  UNL     1       7.261   6.887   0.526  1.00  0.00     0.138 C
BRANCH   9  10
HETATM   10  C1  UNL     1       7.140   7.062  -0.925  1.00  0.00     0.220 C
HETATM   11  O1  UNL     1       7.374   6.092  -1.666  1.00  0.00    -0.274 OA
HETATM   12  N3  UNL     1       6.767   8.289  -1.524  1.00  0.00    -0.356 N
ATOM     13  H3  UNL     1       6.578   9.078  -0.905  1.00  0.00     0.162 HD
BRANCH  12  14
HETATM   14  C15 UNL     1       6.636   8.507  -2.929  1.00  0.00     0.084 C
HETATM   15  C16 UNL     1       5.201   8.462  -3.412  1.00  0.00     0.025 C
HETATM   16  C17 UNL     1       5.214   8.646  -4.925  1.00  0.00     0.002 C
HETATM   17  C18 UNL     1       5.710  10.011  -5.325  1.00  0.00     0.000 C
HETATM   18  C19 UNL     1       6.288  10.670  -4.090  1.00  0.00     0.002 C
HETATM   19  C20 UNL     1       7.308   9.743  -3.431  1.00  0.00     0.025 C
ENDBRANCH  12  14
ENDBRANCH   9  10
ENDBRANCH   1   9
BRANCH   8  20
HETATM   20  C7  UNL     1      10.620   6.039   0.595  1.00  0.00     0.064 C
BRANCH  20  21
HETATM   21  C8  UNL     1      10.391   5.005  -0.488  1.00  0.00     0.049 C
BRANCH  21  22
HETATM   22  C9  UNL     1      11.650   4.430  -1.040  1.00  0.00    -0.010 C
HETATM   23  C10 UNL     1      12.806   4.470  -0.058  1.00  0.00     0.005 C
HETATM   24  C11 UNL     1      14.079   4.435  -0.878  1.00  0.00     0.000 C
HETATM   25  C12 UNL     1      14.052   3.191  -1.709  1.00  0.00     0.000 C
HETATM   26  C13 UNL     1      12.855   2.320  -1.456  1.00  0.00     0.000 C
HETATM   27  C14 UNL     1      11.544   3.057  -1.606  1.00  0.00     0.005 C
ENDBRANCH  21  22
ENDBRANCH  20  21
ENDBRANCH   8  20
TORSDOF 6
ENDMDL