MODEL 3
REMARK VINA RESULT: -7.929819493      0.115      1.472
REMARK  6 active torsions:
REMARK  status: ('A' for Active; 'I' for Inactive)
REMARK    1  A    between atoms: C1_2  and  C2_4
REMARK    2  A    between atoms: C2_4  and  C3_5
REMARK    3  A    between atoms: C3_5  and  C4_6
REMARK       I    between atoms: N1_11  and  C9_12
REMARK    4  A    between atoms: C9_12  and  C10_14
REMARK    5  A    between atoms: C10_14  and  N2_15
REMARK    6  A    between atoms: N2_15  and  C11_17
ROOT
HETATM    1  C4  UNL     1      12.330   6.133   0.374  1.00  0.00     0.087 C
HETATM    2  C5  UNL     1      12.607   5.227   1.588  1.00  0.00     0.025 C
HETATM    3  C6  UNL     1      11.842   5.676   2.772  1.00  0.00     0.004 C
HETATM    4  C7  UNL     1      10.463   6.172   2.576  1.00  0.00     0.020 C
HETATM    5  C8  UNL     1      10.269   6.933   1.314  1.00  0.00     0.126 C
HETATM    6  N1  UNL     1      10.906   6.201   0.245  1.00  0.00    -0.346 N
HETATM    7  C9  UNL     1      10.153   5.648  -0.791  1.00  0.00     0.237 C
HETATM    8  O3  UNL     1      10.582   5.095  -1.812  1.00  0.00    -0.272 OA
ENDROOT
BRANCH   7   9
HETATM    9  C10 UNL     1       8.643   5.696  -0.704  1.00  0.00     0.218 C
BRANCH   9  10
HETATM   10  N2  UNL     1       8.002   5.733  -1.968  1.00  0.00    -0.404 N
ATOM     11  H2  UNL     1       8.109   4.990  -2.659  1.00  0.00     0.154 HD
BRANCH  10  12
HETATM   12  C11 UNL     1       7.194   6.892  -2.205  1.00  0.00     0.027 C
HETATM   13  C12 UNL     1       5.798   6.332  -2.472  1.00  0.00     0.035 C
HETATM   14  C13 UNL     1       4.766   7.390  -2.671  1.00  0.00    -0.012 C
HETATM   15  C14 UNL     1       4.649   8.197  -1.401  1.00  0.00     0.009 C
HETATM   16  C18 UNL     1       5.164   8.250  -3.824  1.00  0.00     0.009 C
HETATM   17  C15 UNL     1       6.011   8.796  -1.136  1.00  0.00    -0.012 C
HETATM   18  C16 UNL     1       6.325   9.708  -2.295  1.00  0.00     0.009 C
HETATM   19  C20 UNL     1       7.063   7.739  -0.941  1.00  0.00     0.035 C
HETATM   20  C17 UNL     1       6.525   8.841  -3.513  1.00  0.00    -0.012 C
HETATM   21  C19 UNL     1       7.588   7.777  -3.323  1.00  0.00     0.035 C
ENDBRANCH  10  12
ENDBRANCH   9  10
ENDBRANCH   7   9
BRANCH   1  22
HETATM   22  C3  UNL     1      13.086   5.724  -0.814  1.00  0.00     0.036 C
BRANCH  22  23
HETATM   23  C2  UNL     1      14.079   4.614  -0.575  1.00  0.00     0.115 C
BRANCH  23  24
HETATM   24  C1  UNL     1      13.861   3.392  -1.361  1.00  0.00     0.172 C
HETATM   25  O1  UNL     1      12.779   2.738  -1.095  1.00  0.00    -0.648 OA
HETATM   26  O2  UNL     1      14.711   2.933  -2.326  1.00  0.00    -0.648 OA
ENDBRANCH  23  24
ENDBRANCH  22  23
ENDBRANCH   1  22
TORSDOF 6
ENDMDL