MODEL 1
REMARK VINA RESULT: -7.434493639      0.000      0.000
REMARK  6 active torsions:
REMARK  status: ('A' for Active; 'I' for Inactive)
REMARK       I    between atoms: C1_2  and  N1_3
REMARK    1  A    between atoms: C1_2  and  C7_11
REMARK    2  A    between atoms: N1_3  and  C2_5
REMARK    3  A    between atoms: C2_5  and  C3_6
REMARK       I    between atoms: N2_14  and  C10_15
REMARK       I    between atoms: C10_15  and  N3_17
REMARK    4  A    between atoms: N3_17  and  C11_19
REMARK    5  A    between atoms: C11_19  and  C12_20
REMARK    6  A    between atoms: C12_20  and  C13_21
ROOT
HETATM    1  C7  UNL     1      11.680   5.750  -0.158  1.00  0.00     0.182 C
HETATM    2  C8  UNL     1      10.974   5.825  -1.496  1.00  0.00     0.055 C
HETATM    3  C9  UNL     1      10.023   4.847  -0.837  1.00  0.00     0.131 C
HETATM    4  N2  UNL     1      10.409   5.406   0.432  1.00  0.00    -0.321 N
HETATM    5  C10 UNL     1       9.818   5.558   1.700  1.00  0.00     0.319 C
HETATM    6  O3  UNL     1       8.643   5.124   1.870  1.00  0.00    -0.247 OA
HETATM    7  N3  UNL     1      10.519   6.183   2.767  1.00  0.00    -0.343 N
ATOM      8  H3  UNL     1      11.467   6.524   2.606  1.00  0.00     0.164 HD
ENDROOT
BRANCH   1   9
HETATM    9  C1  UNL     1      12.726   4.696  -0.066  1.00  0.00     0.240 C
HETATM   10  O1  UNL     1      13.198   4.456   1.062  1.00  0.00    -0.271 OA
HETATM   11  N1  UNL     1      13.152   4.012  -1.201  1.00  0.00    -0.357 N
ATOM     12  H1  UNL     1      12.710   4.286  -2.078  1.00  0.00     0.162 HD
BRANCH  11  13
HETATM   13  C2  UNL     1      14.122   2.983  -1.294  1.00  0.00     0.154 C
BRANCH  13  14
HETATM   14  C3  UNL     1      13.958   1.958  -2.356  1.00  0.00     0.139 C
HETATM   15  C4  UNL     1      12.730   2.218  -3.214  1.00  0.00     0.035 C
HETATM   16  C5  UNL     1      13.067   1.424  -4.453  1.00  0.00     0.029 C
HETATM   17  C6  UNL     1      14.559   1.411  -4.436  1.00  0.00     0.168 C
HETATM   18  O2  UNL     1      15.010   1.785  -3.186  1.00  0.00    -0.384 OA
ENDBRANCH  13  14
ENDBRANCH  11  13
ENDBRANCH   1   9
BRANCH   7  19
HETATM   19  C11 UNL     1       9.926   6.345   4.066  1.00  0.00     0.125 C
BRANCH  19  20
HETATM   20  C12 UNL     1      10.314   5.187   4.932  1.00  0.00     0.024 C
BRANCH  20  21
HETATM   21  C13 UNL     1      10.901   5.598   6.243  1.00  0.00    -0.013 C
HETATM   22  C14 UNL     1      11.383   4.374   6.984  1.00  0.00     0.005 C
HETATM   23  C15 UNL     1      11.588   4.760   8.421  1.00  0.00     0.000 C
HETATM   24  C16 UNL     1      12.556   5.892   8.499  1.00  0.00     0.000 C
HETATM   25  C17 UNL     1      13.096   6.354   7.189  1.00  0.00     0.000 C
HETATM   26  C18 UNL     1      12.041   6.558   6.132  1.00  0.00     0.005 C
ENDBRANCH  20  21
ENDBRANCH  19  20
ENDBRANCH   7  19
TORSDOF 6
ENDMDL