MODEL 2
REMARK VINA RESULT: -7.686027114      3.451      6.289
REMARK  7 active torsions:
REMARK  status: ('A' for Active; 'I' for Inactive)
REMARK    1  A    between atoms: C2_2  and  C3_3
REMARK    2  A    between atoms: C2_2  and  C9_12
REMARK    3  A    between atoms: C3_3  and  N1_4
REMARK    4  A    between atoms: C7_8  and  C8_9
REMARK    5  A    between atoms: C8_9  and  O1_10
REMARK    6  A    between atoms: C12_15  and  C13_16
REMARK    7  A    between atoms: C13_16  and  N2_17
REMARK       I    between atoms: N2_17  and  C14_19
REMARK       I    between atoms: C14_19  and  N3_21
ROOT
HETATM    1  C9  UNL     1      11.730   5.810   2.203  1.00  0.00     0.019 C
HETATM    2  C10 UNL     1      12.890   6.045   1.224  1.00  0.00     0.010 C
HETATM    3  C11 UNL     1      12.469   5.089   0.076  1.00  0.00     0.007 C
HETATM    4  C12 UNL     1      11.050   5.648  -0.124  1.00  0.00     0.004 C
HETATM    5  C20 UNL     1      10.516   5.670   1.280  1.00  0.00     0.015 C
ENDROOT
BRANCH   1   6
HETATM    6  C2  UNL     1      11.496   6.938   3.106  1.00  0.00    -0.048 C
HETATM    7  C1  UNL     1      11.457   8.165   2.538  1.00  0.00     0.020 C
BRANCH   6   8
HETATM    8  C3  UNL     1      11.235   6.866   4.565  1.00  0.00     0.092 C
BRANCH   8   9
HETATM    9  N1  UNL     1      10.032   6.297   4.894  1.00  0.00    -0.383 N
HETATM   10  C4  UNL     1       8.772   6.732   4.453  1.00  0.00     0.123 C
HETATM   11  C5  UNL     1       8.089   5.484   3.865  1.00  0.00     0.022 C
HETATM   12  C6  UNL     1       8.648   4.378   4.708  1.00  0.00     0.029 C
HETATM   13  C7  UNL     1       9.967   4.912   5.187  1.00  0.00     0.107 C
BRANCH  13  14
HETATM   14  C8  UNL     1      10.234   4.552   6.623  1.00  0.00     0.189 C
BRANCH  14  15
HETATM   15  O1  UNL     1      11.377   3.795   6.789  1.00  0.00    -0.399 OA
ATOM     16  H1  UNL     1      11.202   2.924   7.129  1.00  0.00     0.209 HD
ENDBRANCH  14  15
ENDBRANCH  13  14
ENDBRANCH   8   9
ENDBRANCH   6   8
ENDBRANCH   1   6
BRANCH   4  17
HETATM   17  C13 UNL     1      10.253   4.773  -1.041  1.00  0.00     0.129 C
BRANCH  17  18
HETATM   18  N2  UNL     1       9.588   5.606  -2.033  1.00  0.00    -0.343 N
HETATM   19  C14 UNL     1       8.283   6.045  -1.795  1.00  0.00     0.318 C
HETATM   20  O2  UNL     1       7.738   5.670  -0.697  1.00  0.00    -0.247 OA
HETATM   21  N3  UNL     1       7.569   6.857  -2.693  1.00  0.00    -0.334 N
HETATM   22  C15 UNL     1       8.122   7.328  -3.919  1.00  0.00     0.127 C
HETATM   23  C19 UNL     1       6.170   7.202  -2.315  1.00  0.00     0.127 C
HETATM   24  C16 UNL     1       7.887   8.804  -4.189  1.00  0.00     0.020 C
HETATM   25  C17 UNL     1       6.875   9.339  -3.207  1.00  0.00     0.003 C
HETATM   26  C18 UNL     1       5.714   8.351  -3.184  1.00  0.00     0.020 C
ATOM     27  H2  UNL     1      10.070   5.868  -2.893  1.00  0.00     0.164 HD
ENDBRANCH  17  18
ENDBRANCH   4  17
TORSDOF 7
ENDMDL