MODEL 5
REMARK VINA RESULT: -7.423825950      1.265      2.151
REMARK  6 active torsions:
REMARK  status: ('A' for Active; 'I' for Inactive)
REMARK    1  A    between atoms: O1_2  and  C2_3
REMARK    2  A    between atoms: C2_3  and  C3_4
REMARK    3  A    between atoms: C3_4  and  N1_5
REMARK    4  A    between atoms: C8_10  and  C9_11
REMARK    5  A    between atoms: C9_11  and  N2_12
REMARK       I    between atoms: N2_12  and  C10_14
REMARK       I    between atoms: C10_14  and  N3_16
REMARK    6  A    between atoms: N3_16  and  C11_18
ROOT
HETATM    1  N2  UNL     1       9.389   5.633  -2.205  1.00  0.00    -0.341 N
ATOM      2  H2  UNL     1       9.911   5.745  -3.075  1.00  0.00     0.164 HD
HETATM    3  C10 UNL     1       8.136   6.274  -2.043  1.00  0.00     0.316 C
HETATM    4  O2  UNL     1       7.550   6.100  -0.952  1.00  0.00    -0.247 OA
HETATM    5  N3  UNL     1       7.591   7.076  -3.092  1.00  0.00    -0.334 N
ATOM      6  H3  UNL     1       8.143   7.159  -3.946  1.00  0.00     0.165 HD
ENDROOT
BRANCH   1   7
HETATM    7  C9  UNL     1       9.929   4.822  -1.142  1.00  0.00     0.149 C
BRANCH   7   8
HETATM    8  C8  UNL     1      11.287   5.421  -0.743  1.00  0.00     0.101 C
HETATM    9  N1  UNL     1      12.245   4.440  -0.404  1.00  0.00    -0.385 N
HETATM   10  C4  UNL     1      13.327   4.839   0.407  1.00  0.00     0.058 C
HETATM   11  C5  UNL     1      12.782   5.370   1.716  1.00  0.00     0.044 C
HETATM   12  C6  UNL     1      11.986   6.587   1.392  1.00  0.00     0.007 C
HETATM   13  C7  UNL     1      10.999   6.450   0.296  1.00  0.00     0.027 C
BRANCH   9  14
HETATM   14  C3  UNL     1      12.592   3.510  -1.420  1.00  0.00     0.148 C
BRANCH  14  15
HETATM   15  C2  UNL     1      14.049   3.123  -1.288  1.00  0.00     0.186 C
BRANCH  15  16
HETATM   16  O1  UNL     1      14.633   2.765  -2.491  1.00  0.00    -0.394 OA
HETATM   17  C1  UNL     1      14.129   1.595  -3.026  1.00  0.00     0.201 C
ENDBRANCH  15  16
ENDBRANCH  14  15
ENDBRANCH   9  14
ENDBRANCH   7   8
ENDBRANCH   1   7
BRANCH   5  18
HETATM   18  C11 UNL     1       6.355   7.766  -3.055  1.00  0.00     0.035 C
HETATM   19  C12 UNL     1       5.264   6.784  -2.676  1.00  0.00     0.035 C
HETATM   20  C13 UNL     1       3.932   7.428  -2.442  1.00  0.00    -0.012 C
HETATM   21  C14 UNL     1       3.511   8.069  -3.748  1.00  0.00     0.009 C
HETATM   22  C18 UNL     1       4.120   8.442  -1.337  1.00  0.00     0.009 C
HETATM   23  C15 UNL     1       4.577   9.035  -4.147  1.00  0.00    -0.012 C
HETATM   24  C16 UNL     1       4.647  10.138  -3.102  1.00  0.00     0.009 C
HETATM   25  C20 UNL     1       5.934   8.395  -4.353  1.00  0.00     0.035 C
HETATM   26  C17 UNL     1       5.071   9.502  -1.807  1.00  0.00    -0.012 C
HETATM   27  C19 UNL     1       6.451   8.893  -2.036  1.00  0.00     0.035 C
ENDBRANCH   5  18
TORSDOF 6
ENDMDL