MODEL 3
REMARK VINA RESULT: -7.064605847      0.731      1.382
REMARK  7 active torsions:
REMARK  status: ('A' for Active; 'I' for Inactive)
REMARK    1  A    between atoms: C1_2  and  C2_3
REMARK       I    between atoms: C1_2  and  N2_13
REMARK    2  A    between atoms: C2_3  and  C3_4
REMARK    3  A    between atoms: C3_4  and  N1_5
REMARK    4  A    between atoms: N2_13  and  C11_15
REMARK    5  A    between atoms: C11_15  and  C12_16
REMARK    6  A    between atoms: C18_22  and  C19_23
REMARK    7  A    between atoms: C19_23  and  O2_24
ROOT
HETATM    1  O1  UNL     1       8.672   6.031  -2.023  1.00  0.00    -0.273 OA
HETATM    2  C1  UNL     1       7.963   6.035  -1.013  1.00  0.00     0.222 C
HETATM    3  N2  UNL     1       6.602   6.354  -1.035  1.00  0.00    -0.360 N
ATOM      4  H2  UNL     1       6.122   6.310  -0.136  1.00  0.00     0.162 HD
ENDROOT
BRANCH   3   5
HETATM    5  C11 UNL     1       5.792   6.736  -2.156  1.00  0.00     0.127 C
BRANCH   5   6
HETATM    6  C12 UNL     1       5.647   8.132  -2.521  1.00  0.00     0.008 C
HETATM    7  C13 UNL     1       6.468   9.220  -1.963  1.00  0.00     0.007 C
HETATM    8  C14 UNL     1       6.230  10.434  -2.889  1.00  0.00     0.005 C
HETATM    9  C15 UNL     1       5.197   9.961  -3.831  1.00  0.00    -0.010 C
HETATM   10  C16 UNL     1       5.337  10.427  -5.232  1.00  0.00     0.005 C
HETATM   11  C20 UNL     1       5.519   8.461  -3.967  1.00  0.00     0.001 C
HETATM   12  C17 UNL     1       6.455   9.611  -5.790  1.00  0.00     0.007 C
HETATM   13  C18 UNL     1       6.562   8.338  -4.924  1.00  0.00     0.014 C
BRANCH  13  14
HETATM   14  C19 UNL     1       7.984   8.172  -4.604  1.00  0.00     0.169 C
BRANCH  14  15
HETATM   15  O2  UNL     1       8.383   6.845  -4.942  1.00  0.00    -0.400 OA
ATOM     16  H2  UNL     1       9.304   6.850  -5.178  1.00  0.00     0.209 HD
ENDBRANCH  14  15
ENDBRANCH  13  14
ENDBRANCH   5   6
ENDBRANCH   3   5
BRANCH   2  17
HETATM   17  C2  UNL     1       8.654   5.667   0.273  1.00  0.00     0.147 C
BRANCH  17  18
HETATM   18  C3  UNL     1       9.869   6.534   0.480  1.00  0.00     0.072 C
BRANCH  18  19
HETATM   19  N1  UNL     1      11.096   5.880   0.438  1.00  0.00    -0.369 N
HETATM   20  C4  UNL     1      11.759   5.461   1.592  1.00  0.00     0.064 C
HETATM   21  C5  UNL     1      13.251   5.719   1.600  1.00  0.00     0.049 C
HETATM   22  C6  UNL     1      13.857   5.489   0.253  1.00  0.00    -0.008 C
HETATM   23  C7  UNL     1      13.473   4.124  -0.246  1.00  0.00     0.007 C
HETATM   24  C10 UNL     1      13.179   6.394  -0.744  1.00  0.00     0.030 C
HETATM   25  C8  UNL     1      12.150   4.297  -0.974  1.00  0.00     0.026 C
HETATM   26  C9  UNL     1      11.788   5.779  -0.780  1.00  0.00     0.088 C
ENDBRANCH  18  19
ENDBRANCH  17  18
ENDBRANCH   2  17
TORSDOF 7
ENDMDL