MODEL 2
REMARK VINA RESULT: -6.947608472      1.766      2.825
REMARK  6 active torsions:
REMARK  status: ('A' for Active; 'I' for Inactive)
REMARK    1  A    between atoms: C5_6  and  C6_7
REMARK    2  A    between atoms: C6_7  and  N2_8
REMARK       I    between atoms: N2_8  and  C7_10
REMARK       I    between atoms: C7_10  and  N3_12
REMARK    3  A    between atoms: N3_12  and  C8_14
REMARK    4  A    between atoms: C8_14  and  C9_15
REMARK    5  A    between atoms: C11_17  and  C12_18
REMARK    6  A    between atoms: C12_18  and  C13_19
ROOT
HETATM    1  N2  UNL     1       7.083   7.583   0.003  1.00  0.00    -0.343 N
ATOM      2  H2  UNL     1       7.111   8.210   0.807  1.00  0.00     0.164 HD
HETATM    3  C7  UNL     1       8.076   6.600  -0.070  1.00  0.00     0.316 C
HETATM    4  O1  UNL     1       8.112   5.777  -1.041  1.00  0.00    -0.247 OA
HETATM    5  N3  UNL     1       9.097   6.443   0.907  1.00  0.00    -0.341 N
ATOM      6  H3  UNL     1       9.100   7.084   1.701  1.00  0.00     0.164 HD
ENDROOT
BRANCH   5   7
HETATM    7  C8  UNL     1      10.116   5.448   0.851  1.00  0.00     0.156 C
BRANCH   7   8
HETATM    8  C9  UNL     1      11.332   5.990   0.152  1.00  0.00     0.139 C
HETATM    9  C10 UNL     1      11.646   5.170  -1.109  1.00  0.00     0.040 C
HETATM   10  C11 UNL     1      12.479   4.073  -0.543  1.00  0.00     0.012 C
HETATM   11  C18 UNL     1      13.052   4.685   0.716  1.00  0.00     0.172 C
HETATM   12  O2  UNL     1      12.479   5.915   0.892  1.00  0.00    -0.384 OA
BRANCH  10  13
HETATM   13  C12 UNL     1      13.616   3.606  -1.380  1.00  0.00     0.011 C
BRANCH  13  14
HETATM   14  C13 UNL     1      13.390   2.359  -2.166  1.00  0.00    -0.014 C
HETATM   15  C14 UNL     1      14.674   2.011  -2.936  1.00  0.00     0.005 C
HETATM   16  C15 UNL     1      14.256   1.429  -4.245  1.00  0.00     0.000 C
HETATM   17  C16 UNL     1      12.756   1.290  -4.167  1.00  0.00     0.000 C
HETATM   18  C17 UNL     1      12.399   2.494  -3.286  1.00  0.00     0.005 C
ENDBRANCH  13  14
ENDBRANCH  10  13
ENDBRANCH   7   8
ENDBRANCH   5   7
BRANCH   1  19
HETATM   19  C6  UNL     1       6.036   7.791  -0.943  1.00  0.00     0.130 C
BRANCH  19  20
HETATM   20  C5  UNL     1       6.477   8.614  -2.129  1.00  0.00     0.032 C
HETATM   21  C4  UNL     1       6.009  10.052  -2.023  1.00  0.00     0.010 C
HETATM   22  C3  UNL     1       6.735  10.802  -3.148  1.00  0.00     0.031 C
HETATM   23  C2  UNL     1       6.387  10.189  -4.459  1.00  0.00     0.272 C
HETATM   24  N1  UNL     1       6.448   8.773  -4.516  1.00  0.00     0.084 N
HETATM   25  C1  UNL     1       7.699   8.220  -4.920  1.00  0.00     0.309 C
HETATM   26  C19 UNL     1       5.884   8.074  -3.414  1.00  0.00     0.278 C
ENDBRANCH  19  20
ENDBRANCH   1  19
TORSDOF 6
ENDMDL