MODEL 4
REMARK VINA RESULT: -6.808518592      1.553      1.988
REMARK  6 active torsions:
REMARK  status: ('A' for Active; 'I' for Inactive)
REMARK    1  A    between atoms: C1_2  and  C2_3
REMARK       I    between atoms: C1_2  and  N2_11
REMARK    2  A    between atoms: C2_3  and  C3_4
REMARK    3  A    between atoms: N2_11  and  C7_13
REMARK    4  A    between atoms: N3_15  and  C9_16
REMARK    5  A    between atoms: C9_16  and  C10_17
REMARK    6  A    between atoms: C10_17  and  C11_18
ROOT
HETATM    1  C7  UNL     1      11.076   4.925  -0.261  1.00  0.00     0.184 C
HETATM    2  C8  UNL     1       9.575   4.787  -0.418  1.00  0.00     0.305 C
HETATM    3  N3  UNL     1       9.136   5.759  -1.369  1.00  0.00     0.098 N
HETATM    4  C19 UNL     1      10.293   6.222  -2.057  1.00  0.00     0.352 C
HETATM    5  C20 UNL     1      11.349   6.199  -0.983  1.00  0.00     0.179 C
HETATM    6  O2  UNL     1      12.207   7.021  -0.765  1.00  0.00    -0.294 OA
ENDROOT
BRANCH   1   7
HETATM    7  N2  UNL     1      11.660   3.803  -0.963  1.00  0.00    -0.348 N
HETATM    8  C1  UNL     1      12.991   3.421  -0.656  1.00  0.00     0.220 C
HETATM    9  O1  UNL     1      13.656   4.040   0.208  1.00  0.00    -0.274 OA
ATOM     10  H2  UNL     1      11.123   3.296  -1.667  1.00  0.00     0.163 HD
BRANCH   8  11
HETATM   11  C2  UNL     1      13.625   2.278  -1.353  1.00  0.00     0.135 C
BRANCH  11  12
HETATM   12  C3  UNL     1      13.638   2.538  -2.830  1.00  0.00     0.194 C
HETATM   13  C4  UNL     1      14.626   1.565  -3.449  1.00  0.00     0.035 C
HETATM   14  C5  UNL     1      13.811   0.806  -4.462  1.00  0.00     0.029 C
HETATM   15  C6  UNL     1      12.692   1.788  -4.744  1.00  0.00     0.233 C
HETATM   16  N1  UNL     1      12.341   2.248  -3.414  1.00  0.00    -0.070 N
ATOM     17  H12 UNL     1      11.762   1.603  -2.875  1.00  0.00     0.277 HD
ATOM     18  H11 UNL     1      11.676   3.022  -3.388  1.00  0.00     0.277 HD
ENDBRANCH  11  12
ENDBRANCH   8  11
ENDBRANCH   1   7
BRANCH   3  19
HETATM   19  C9  UNL     1       8.377   6.775  -0.688  1.00  0.00     0.273 C
BRANCH  19  20
HETATM   20  C10 UNL     1       6.933   6.459  -0.736  1.00  0.00     0.040 C
BRANCH  20  21
HETATM   21  C11 UNL     1       6.143   7.336  -1.682  1.00  0.00    -0.035 C
HETATM   22  C12 UNL     1       5.269   6.425  -2.550  1.00  0.00     0.010 C
HETATM   23  C13 UNL     1       4.297   7.205  -3.371  1.00  0.00     0.001 C
HETATM   24  C14 UNL     1       4.968   8.335  -4.110  1.00  0.00     0.000 C
HETATM   25  C15 UNL     1       6.473   8.314  -3.959  1.00  0.00     0.005 C
HETATM   26  C16 UNL     1       6.909   8.312  -2.508  1.00  0.00    -0.006 C
HETATM   27  C17 UNL     1       6.283   9.483  -1.751  1.00  0.00     0.006 C
HETATM   28  C18 UNL     1       5.402   8.478  -1.044  1.00  0.00     0.010 C
ENDBRANCH  20  21
ENDBRANCH  19  20
ENDBRANCH   3  19
TORSDOF 6
ENDMDL