MODEL 5
REMARK VINA RESULT: -5.754634044      2.747      6.176
REMARK  15 active torsions:
REMARK  status: ('A' for Active; 'I' for Inactive)
REMARK    1  A    between atoms: N1_1  and  C1_4
REMARK    2  A    between atoms: C2_7  and  O1_8
REMARK    3  A    between atoms: O1_8  and  C3_9
REMARK    4  A    between atoms: C3_9  and  C4_10
REMARK    5  A    between atoms: C4_10  and  N3_11
REMARK    6  A    between atoms: C4_10  and  C10_28
REMARK    7  A    between atoms: N3_11  and  N4_13
REMARK       I    between atoms: N4_13  and  C5_15
REMARK    8  A    between atoms: C5_15  and  C6_17
REMARK    9  A    between atoms: C7_19  and  O4_20
REMARK   10  A    between atoms: C8_22  and  O5_23
REMARK   11  A    between atoms: C9_25  and  O6_26
REMARK   12  A    between atoms: C11_31  and  N5_32
REMARK   13  A    between atoms: C12_38  and  O9_39
REMARK   14  A    between atoms: C13_41  and  O10_42
REMARK   15  A    between atoms: C14_46  and  N10_47
ROOT
HETATM    1  C1  UNL     1      12.872   9.742   5.869  1.00  0.00     0.152 A
HETATM    2  N2  UNL     1      12.013   9.937   4.818  1.00  0.00    -0.317 N
ATOM      3  H2  UNL     1      11.704  10.873   4.551  1.00  0.00     0.169 HD
HETATM    4  C2  UNL     1      11.597   8.852   4.158  1.00  0.00     0.190 A
HETATM    5  C11 UNL     1      12.017   7.577   4.517  1.00  0.00     0.177 A
HETATM    6  N9  UNL     1      12.864   7.413   5.557  1.00  0.00    -0.316 N
ATOM      7  H9  UNL     1      13.171   6.477   5.820  1.00  0.00     0.169 HD
HETATM    8  C14 UNL     1      13.304   8.490   6.250  1.00  0.00     0.219 A
ENDROOT
BRANCH   4   9
HETATM    9  O1  UNL     1      10.735   8.923   3.091  1.00  0.00    -0.330 OA
BRANCH   9  10
HETATM   10  C3  UNL     1      11.185   9.300   1.818  1.00  0.00     0.215 C
BRANCH  10  11
HETATM   11  C4  UNL     1      10.269   8.922   0.682  1.00  0.00     0.224 C
BRANCH  11  12
HETATM   12  N3  UNL     1       9.554   7.755   0.842  1.00  0.00    -0.316 N
ATOM     13  H3  UNL     1       9.685   7.049   0.118  1.00  0.00     0.181 HD
BRANCH  12  14
HETATM   14  N4  UNL     1       8.704   7.430   1.833  1.00  0.00    -0.268 N
HETATM   15  C5  UNL     1       7.437   6.887   1.752  1.00  0.00     0.296 C
HETATM   16  O2  UNL     1       6.913   6.604   0.643  1.00  0.00    -0.264 OA
ATOM     17  H4  UNL     1       9.043   7.610   2.778  1.00  0.00     0.190 HD
BRANCH  15  18
HETATM   18  C6  UNL     1       6.627   6.606   2.931  1.00  0.00     0.183 A
HETATM   19  O3  UNL     1       5.384   6.116   2.884  1.00  0.00    -0.277 OA
HETATM   20  C7  UNL     1       4.890   5.957   4.072  1.00  0.00     0.221 A
HETATM   21  C8  UNL     1       5.812   6.350   5.012  1.00  0.00     0.161 A
HETATM   22  C9  UNL     1       6.913   6.759   4.257  1.00  0.00     0.144 A
BRANCH  20  23
HETATM   23  O4  UNL     1       3.606   5.461   4.381  1.00  0.00    -0.339 OA
ATOM     24  H4  UNL     1       3.247   4.623   4.111  1.00  0.00     0.220 HD
ENDBRANCH  20  23
BRANCH  21  25
HETATM   25  O5  UNL     1       5.723   6.360   6.390  1.00  0.00    -0.354 OA
ATOM     26  H5  UNL     1       6.281   5.948   7.040  1.00  0.00     0.218 HD
ENDBRANCH  21  25
BRANCH  22  27
HETATM   27  O6  UNL     1       8.080   7.238   4.841  1.00  0.00    -0.355 OA
ATOM     28  H6  UNL     1       8.980   7.077   4.582  1.00  0.00     0.218 HD
ENDBRANCH  22  27
ENDBRANCH  15  18
ENDBRANCH  12  14
ENDBRANCH  11  12
BRANCH  11  29
HETATM   29  C10 UNL     1       9.430  10.136   0.360  1.00  0.00     0.200 C
HETATM   30  O7  UNL     1       9.541  10.725  -0.713  1.00  0.00    -0.646 OA
HETATM   31  O8  UNL     1       8.522  10.560   1.332  1.00  0.00    -0.646 OA
ENDBRANCH  11  29
ENDBRANCH  10  11
ENDBRANCH   9  10
ENDBRANCH   4   9
BRANCH   5  32
HETATM   32  N5  UNL     1      11.566   6.470   3.765  1.00  0.00    -0.222 N
HETATM   33  N6  UNL     1      10.367   5.806   4.010  1.00  0.00    -0.000 NA
HETATM   34  N7  UNL     1      10.438   4.527   3.510  1.00  0.00    -0.228 N
HETATM   35  N8  UNL     1      11.615   3.888   3.509  1.00  0.00    -0.291 N
ATOM     36  H7  UNL     1       9.603   4.070   3.143  1.00  0.00     0.205 HD
HETATM   37  C12 UNL     1      12.805   4.556   3.147  1.00  0.00     0.284 C
ATOM     38  H8  UNL     1      11.653   2.904   3.774  1.00  0.00     0.184 HD
HETATM   39  C13 UNL     1      12.397   5.962   2.664  1.00  0.00     0.291 C
BRANCH  37  40
HETATM   40  O9  UNL     1      13.491   3.976   2.078  1.00  0.00    -0.371 OA
ATOM     41  H9  UNL     1      13.349   4.403   1.241  1.00  0.00     0.212 HD
ENDBRANCH  37  40
BRANCH  39  42
HETATM   42  O10 UNL     1      11.579   5.852   1.537  1.00  0.00    -0.371 OA
ATOM     43  H10 UNL     1      11.083   6.659   1.465  1.00  0.00     0.212 HD
ENDBRANCH  39  42
ENDBRANCH   5  32
BRANCH   1  44
HETATM   44  N1  UNL     1      13.306  10.747   6.540  1.00  0.00    -0.382 N
ATOM     45  H12 UNL     1      13.245  11.666   6.102  1.00  0.00     0.157 HD
ATOM     46  H11 UNL     1      13.691  10.609   7.474  1.00  0.00     0.157 HD
ENDBRANCH   1  44
BRANCH   8  47
HETATM   47  N10 UNL     1      14.197   8.355   7.350  1.00  0.00    -0.094 N
HETATM   48  O11 UNL     1      13.806   8.173   8.517  1.00  0.00    -0.530 OA
HETATM   49  O12 UNL     1      15.558   8.423   7.155  1.00  0.00    -0.530 OA
ENDBRANCH   8  47
TORSDOF 15
ENDMDL