MODEL 2
REMARK VINA RESULT: -6.219031659      1.350      1.750
REMARK  17 active torsions:
REMARK  status: ('A' for Active; 'I' for Inactive)
REMARK    1  A    between atoms: N1_1  and  C1_4
REMARK    2  A    between atoms: C2_7  and  C3_8
REMARK    3  A    between atoms: N6_15  and  C4_16
REMARK    4  A    between atoms: C5_18  and  N7_19
REMARK    5  A    between atoms: N7_19  and  N8_21
REMARK    6  A    between atoms: N8_21  and  C6_22
REMARK    7  A    between atoms: C6_22  and  O2_23
REMARK    8  A    between atoms: C6_22  and  C7_25
REMARK    9  A    between atoms: C7_25  and  C8_26
REMARK   10  A    between atoms: C9_27  and  O3_28
REMARK   11  A    between atoms: C10_31  and  C11_32
REMARK   12  A    between atoms: C11_32  and  O5_33
REMARK   13  A    between atoms: C12_35  and  O6_36
REMARK   14  A    between atoms: C13_38  and  O7_39
REMARK   15  A    between atoms: C14_41  and  O8_42
REMARK   16  A    between atoms: C15_44  and  N9_45
REMARK   17  A    between atoms: N9_45  and  N10_47
ROOT
HETATM    1  C4  UNL     1      11.412   7.849   2.993  1.00  0.00     0.281 C
HETATM    2  O1  UNL     1      11.989   8.293   1.861  1.00  0.00    -0.334 OA
HETATM    3  C5  UNL     1      12.236   9.654   2.069  1.00  0.00     0.267 C
HETATM    4  C13 UNL     1      12.751   9.744   3.471  1.00  0.00     0.201 C
HETATM    5  C14 UNL     1      12.033   8.601   4.135  1.00  0.00     0.202 C
ENDROOT
BRANCH   1   6
HETATM    6  N6  UNL     1      11.299   6.448   3.225  1.00  0.00    -0.225 N
HETATM    7  C3  UNL     1      10.311   5.630   3.487  1.00  0.00     0.172 A
HETATM    8  N3  UNL     1      10.841   4.373   3.588  1.00  0.00    -0.267 N
HETATM    9  N4  UNL     1      12.127   4.424   3.392  1.00  0.00    -0.226 N
ATOM     10  H3  UNL     1      10.309   3.525   3.786  1.00  0.00     0.190 HD
HETATM   11  N5  UNL     1      12.413   5.673   3.172  1.00  0.00    -0.222 N
ATOM     12  H4  UNL     1      12.779   3.641   3.408  1.00  0.00     0.210 HD
ATOM     13  H5  UNL     1      13.352   6.026   2.984  1.00  0.00     0.210 HD
BRANCH   7  14
HETATM   14  C2  UNL     1       8.902   5.939   3.641  1.00  0.00     0.127 A
HETATM   15  N2  UNL     1       8.217   5.993   4.776  1.00  0.00    -0.186 N
HETATM   16  C1  UNL     1       6.929   6.299   4.836  1.00  0.00     0.677 A
ATOM     17  H2  UNL     1       8.707   5.789   5.647  1.00  0.00     0.184 HD
HETATM   18  N12 UNL     1       6.224   6.578   3.731  1.00  0.00    -0.177 N
HETATM   19  C16 UNL     1       6.858   6.539   2.550  1.00  0.00     0.162 A
ATOM     20  H12 UNL     1       5.232   6.812   3.787  1.00  0.00     0.185 HD
HETATM   21  C15 UNL     1       8.192   6.223   2.477  1.00  0.00     0.120 A
HETATM   22  N11 UNL     1       6.094   6.845   1.372  1.00  0.00    -0.080 NA
BRANCH  16  23
HETATM   23  N1  UNL     1       6.262   6.349   5.958  1.00  0.00    -0.234 N
ATOM     24  H12 UNL     1       6.202   5.472   6.475  1.00  0.00     0.174 HD
ATOM     25  H11 UNL     1       5.826   7.204   6.306  1.00  0.00     0.174 HD
ENDBRANCH  16  23
BRANCH  21  26
HETATM   26  N9  UNL     1       8.776   6.203   1.173  1.00  0.00    -0.302 N
ATOM     27  H9  UNL     1       8.962   5.319   0.698  1.00  0.00     0.186 HD
BRANCH  26  28
HETATM   28  N10 UNL     1       9.086   7.418   0.563  1.00  0.00    -0.345 N
ATOM     29 2H10 UNL     1       9.628   8.116   1.071  1.00  0.00     0.176 HD
ATOM     30 1H10 UNL     1       8.760   7.582  -0.390  1.00  0.00     0.176 HD
ENDBRANCH  26  28
ENDBRANCH  21  26
ENDBRANCH   7  14
ENDBRANCH   1   6
BRANCH   5  31
HETATM   31  O8  UNL     1      12.885   7.803   4.915  1.00  0.00    -0.388 OA
ATOM     32  H8  UNL     1      12.463   7.468   5.697  1.00  0.00     0.210 HD
ENDBRANCH   5  31
BRANCH   3  33
HETATM   33  N7  UNL     1      11.084  10.396   1.756  1.00  0.00    -0.306 N
ATOM     34  H7  UNL     1      10.764  11.169   2.341  1.00  0.00     0.178 HD
BRANCH  33  35
HETATM   35  N8  UNL     1      10.399  10.010   0.593  1.00  0.00    -0.111 NA
BRANCH  35  36
HETATM   36  C6  UNL     1      10.976  10.812  -0.471  1.00  0.00     0.235 C
BRANCH  36  37
HETATM   37  O2  UNL     1      10.381  12.083  -0.519  1.00  0.00    -0.378 OA
ATOM     38  H2  UNL     1      10.491  12.476  -1.376  1.00  0.00     0.211 HD
ENDBRANCH  36  37
BRANCH  36  39
HETATM   39  C7  UNL     1      10.830  10.137  -1.787  1.00  0.00     0.097 C
BRANCH  39  40
HETATM   40  C8  UNL     1      12.038   9.415  -2.233  1.00  0.00     0.040 A
HETATM   41  C9  UNL     1      12.963   9.788  -3.174  1.00  0.00     0.192 A
HETATM   42  O4  UNL     1      13.876   8.823  -3.243  1.00  0.00    -0.287 OA
HETATM   43  C10 UNL     1      13.605   7.867  -2.422  1.00  0.00     0.113 A
HETATM   44  C12 UNL     1      12.459   8.176  -1.753  1.00  0.00     0.108 A
BRANCH  41  45
HETATM   45  O3  UNL     1      13.038  10.914  -3.958  1.00  0.00    -0.340 OA
ATOM     46  H3  UNL     1      13.791  11.383  -4.295  1.00  0.00     0.220 HD
ENDBRANCH  41  45
BRANCH  43  47
HETATM   47  C11 UNL     1      14.403   6.628  -2.227  1.00  0.00     0.232 C
BRANCH  47  48
HETATM   48  O5  UNL     1      13.910   5.857  -1.177  1.00  0.00    -0.394 OA
ATOM     49  H5  UNL     1      14.601   5.582  -0.588  1.00  0.00     0.209 HD
ENDBRANCH  47  48
ENDBRANCH  43  47
BRANCH  44  50
HETATM   50  O6  UNL     1      11.811   7.450  -0.795  1.00  0.00    -0.357 OA
ATOM     51  H6  UNL     1      12.224   7.076  -0.025  1.00  0.00     0.217 HD
ENDBRANCH  44  50
ENDBRANCH  39  40
ENDBRANCH  36  39
ENDBRANCH  35  36
ENDBRANCH  33  35
ENDBRANCH   3  33
BRANCH   4  52
HETATM   52  O7  UNL     1      14.138   9.598   3.538  1.00  0.00    -0.388 OA
ATOM     53  H7  UNL     1      14.397   8.792   3.967  1.00  0.00     0.210 HD
ENDBRANCH   4  52
TORSDOF 17
ENDMDL