MODEL 1
REMARK VINA RESULT: -6.550203336      0.000      0.000
REMARK  16 active torsions:
REMARK  status: ('A' for Active; 'I' for Inactive)
REMARK    1  A    between atoms: N2_3  and  C2_5
REMARK    2  A    between atoms: C2_5  and  N3_6
REMARK    3  A    between atoms: C2_5  and  C10_41
REMARK    4  A    between atoms: N3_6  and  C3_8
REMARK    5  A    between atoms: C3_8  and  O1_9
REMARK    6  A    between atoms: C3_8  and  C4_11
REMARK    7  A    between atoms: C6_15  and  N5_16
REMARK    8  A    between atoms: N5_16  and  N6_18
REMARK    9  A    between atoms: N6_18  and  C7_20
REMARK   10  A    between atoms: N8_23  and  N9_24
REMARK   11  A    between atoms: C9_32  and  N12_33
REMARK   12  A    between atoms: C12_43  and  N16_44
REMARK   13  A    between atoms: N16_44  and  C13_46
REMARK   14  A    between atoms: C13_46  and  O2_47
REMARK   15  A    between atoms: C13_46  and  O3_49
REMARK   16  A    between atoms: C14_53  and  N18_54
ROOT
HETATM    1  N1  UNL     1       7.526   6.710   1.842  1.00  0.00    -0.172 NA
HETATM    2  C1  UNL     1       8.507   6.619   1.235  1.00  0.00     0.179 C
HETATM    3  N2  UNL     1       9.680   6.519   0.511  1.00  0.00    -0.301 N
ATOM      4  H2  UNL     1       9.662   6.036  -0.387  1.00  0.00     0.174 HD
ENDROOT
BRANCH   3   5
HETATM    5  C2  UNL     1      10.943   7.078   0.980  1.00  0.00     0.241 C
BRANCH   5   6
HETATM    6  N3  UNL     1      11.847   6.129   1.493  1.00  0.00    -0.365 N
ATOM      7  H3  UNL     1      12.390   5.553   0.850  1.00  0.00     0.158 HD
BRANCH   6   8
HETATM    8  C3  UNL     1      12.012   5.964   2.874  1.00  0.00     0.285 C
BRANCH   8   9
HETATM    9  O1  UNL     1      12.380   4.625   3.143  1.00  0.00    -0.370 OA
ATOM     10  H1  UNL     1      13.030   4.612   3.836  1.00  0.00     0.212 HD
ENDBRANCH   8   9
BRANCH   8  11
HETATM   11  C4  UNL     1      10.932   6.412   3.751  1.00  0.00     0.145 A
HETATM   12  N4  UNL     1      10.931   7.603   4.374  1.00  0.00    -0.347 N
HETATM   13  C5  UNL     1       9.940   8.014   5.178  1.00  0.00     0.140 A
ATOM     14  H4  UNL     1      11.725   8.226   4.228  1.00  0.00     0.166 HD
HETATM   15  C6  UNL     1       8.849   7.202   5.403  1.00  0.00     0.150 A
HETATM   16  N14 UNL     1       8.857   6.013   4.775  1.00  0.00    -0.282 N
HETATM   17  N15 UNL     1       9.857   5.625   3.978  1.00  0.00    -0.284 N
ATOM     18  H14 UNL     1       8.069   5.381   4.914  1.00  0.00     0.188 HD
ATOM     19  H15 UNL     1       9.808   4.711   3.530  1.00  0.00     0.188 HD
BRANCH  15  20
HETATM   20  N5  UNL     1       7.771   7.601   6.253  1.00  0.00    -0.269 N
ATOM     21  H5  UNL     1       7.865   7.539   7.266  1.00  0.00     0.189 HD
BRANCH  20  22
HETATM   22  N6  UNL     1       6.589   8.074   5.685  1.00  0.00    -0.128 N
ATOM     23  H6  UNL     1       6.449   9.080   5.595  1.00  0.00     0.205 HD
BRANCH  22  24
HETATM   24  C7  UNL     1       5.577   7.189   5.228  1.00  0.00     0.750 A
HETATM   25  N7  UNL     1       5.363   5.898   5.556  1.00  0.00    -0.093 N
HETATM   26  N8  UNL     1       4.317   5.416   4.917  1.00  0.00    -0.009 N
ATOM     27  H7  UNL     1       5.935   5.366   6.212  1.00  0.00     0.208 HD
HETATM   28  C8  UNL     1       3.841   6.412   4.158  1.00  0.00     0.770 A
HETATM   29  N10 UNL     1       2.869   6.699   3.282  1.00  0.00    -0.113 N
HETATM   30  N13 UNL     1       4.608   7.498   4.346  1.00  0.00     0.207 N
HETATM   31  N11 UNL     1       3.018   7.957   2.915  1.00  0.00    -0.116 N
ATOM     32  H10 UNL     1       2.144   6.059   2.958  1.00  0.00     0.206 HD
HETATM   33  C9  UNL     1       4.069   8.451   3.554  1.00  0.00     0.727 A
ATOM     34  H11 UNL     1       2.427   8.462   2.255  1.00  0.00     0.206 HD
BRANCH  26  35
HETATM   35  N9  UNL     1       3.820   4.121   5.024  1.00  0.00    -0.308 N
ATOM     36  H92 UNL     1       3.895   3.368   4.338  1.00  0.00     0.179 HD
ATOM     37  H91 UNL     1       3.304   3.741   5.817  1.00  0.00     0.179 HD
ENDBRANCH  26  35
BRANCH  33  38
HETATM   38  N12 UNL     1       4.540   9.644   3.465  1.00  0.00    -0.232 N
ATOM     39 2H12 UNL     1       4.726  10.108   2.576  1.00  0.00     0.174 HD
ATOM     40 1H12 UNL     1       4.783  10.267   4.235  1.00  0.00     0.174 HD
ENDBRANCH  33  38
ENDBRANCH  22  24
ENDBRANCH  20  22
ENDBRANCH  15  20
ENDBRANCH   8  11
ENDBRANCH   6   8
ENDBRANCH   5   6
BRANCH   5  41
HETATM   41  C10 UNL     1      11.564   7.679  -0.250  1.00  0.00     0.072 A
HETATM   42  C11 UNL     1      12.566   7.047  -0.963  1.00  0.00     0.078 A
HETATM   43  C12 UNL     1      13.116   7.635  -2.100  1.00  0.00     0.122 A
HETATM   44  N17 UNL     1      12.670   8.828  -2.508  1.00  0.00    -0.177 N
HETATM   45  C14 UNL     1      11.704   9.427  -1.813  1.00  0.00     0.677 A
ATOM     46  H17 UNL     1      13.063   9.272  -3.338  1.00  0.00     0.185 HD
HETATM   47  N19 UNL     1      11.164   8.873  -0.716  1.00  0.00    -0.192 N
ATOM     48  H19 UNL     1      10.427   9.375  -0.221  1.00  0.00     0.184 HD
BRANCH  43  49
HETATM   49  N16 UNL     1      14.034   7.033  -2.734  1.00  0.00    -0.328 N
ATOM     50  H16 UNL     1      13.748   6.401  -3.482  1.00  0.00     0.166 HD
BRANCH  49  51
HETATM   51  C13 UNL     1      15.441   7.164  -2.489  1.00  0.00     0.366 C
BRANCH  51  52
HETATM   52  O2  UNL     1      15.764   8.375  -1.893  1.00  0.00    -0.355 OA
ATOM     53  H2  UNL     1      15.480   9.122  -2.408  1.00  0.00     0.214 HD
ENDBRANCH  51  52
BRANCH  51  54
HETATM   54  O3  UNL     1      15.846   6.128  -1.642  1.00  0.00    -0.355 OA
ATOM     55  H3  UNL     1      16.680   6.363  -1.252  1.00  0.00     0.214 HD
ENDBRANCH  51  54
ENDBRANCH  49  51
ENDBRANCH  43  49
BRANCH  45  56
HETATM   56  N18 UNL     1      11.275  10.593  -2.221  1.00  0.00    -0.234 N
ATOM     57 2H18 UNL     1      10.441  10.997  -1.795  1.00  0.00     0.174 HD
ATOM     58 1H18 UNL     1      11.791  11.068  -2.962  1.00  0.00     0.174 HD
ENDBRANCH  45  56
ENDBRANCH   5  41
ENDBRANCH   3   5
TORSDOF 16
ENDMDL