MODEL 1
REMARK VINA RESULT: -5.701599788      0.000      0.000
REMARK  16 active torsions:
REMARK  status: ('A' for Active; 'I' for Inactive)
REMARK    1  A    between atoms: O1_2  and  C2_3
REMARK    2  A    between atoms: C2_3  and  C3_4
REMARK    3  A    between atoms: C2_3  and  C15_41
REMARK    4  A    between atoms: C3_4  and  O2_5
REMARK    5  A    between atoms: O2_5  and  C4_6
REMARK    6  A    between atoms: C4_6  and  C5_7
REMARK    7  A    between atoms: C4_6  and  C6_10
REMARK    8  A    between atoms: C9_13  and  O5_14
REMARK    9  A    between atoms: C11_19  and  O6_20
REMARK   10  A    between atoms: C12_22  and  O7_23
REMARK   11  A    between atoms: C13_28  and  O8_29
REMARK   12  A    between atoms: C14_36  and  N8_37
REMARK   13  A    between atoms: N8_37  and  N9_38
REMARK   14  A    between atoms: C15_41  and  O9_42
REMARK   15  A    between atoms: C15_41  and  C16_44
REMARK   16  A    between atoms: C16_44  and  O10_45
ROOT
HETATM    1  C6  UNL     1       4.462   9.101   4.382  1.00  0.00     0.072 A
HETATM    2  C7  UNL     1       5.157   8.101   3.729  1.00  0.00     0.038 A
HETATM    3  C8  UNL     1       6.360   8.339   3.088  1.00  0.00     0.080 A
HETATM    4  C9  UNL     1       6.830   9.663   3.152  1.00  0.00     0.138 A
HETATM    5  C10 UNL     1       6.114  10.632   3.812  1.00  0.00     0.152 A
HETATM    6  N1  UNL     1       6.400  11.965   3.990  1.00  0.00    -0.317 N
ATOM      7  H1  UNL     1       7.230  12.437   3.631  1.00  0.00     0.169 HD
HETATM    8  C11 UNL     1       5.448  12.543   4.692  1.00  0.00     0.194 A
HETATM    9  C12 UNL     1       4.499  11.542   4.985  1.00  0.00     0.201 A
HETATM   10  N2  UNL     1       4.947  10.408   4.431  1.00  0.00    -0.272 N
HETATM   11  N3  UNL     1       7.154   7.429   2.381  1.00  0.00    -0.347 N
ATOM     12  H3  UNL     1       8.130   7.429   2.678  1.00  0.00     0.163 HD
HETATM   13  C13 UNL     1       6.885   6.500   1.330  1.00  0.00     0.335 C
HETATM   14  N4  UNL     1       5.595   6.475   0.768  1.00  0.00    -0.076 NA
HETATM   15  N5  UNL     1       5.115   5.132   0.823  1.00  0.00    -0.013 NA
HETATM   16  N6  UNL     1       4.640   4.934   2.142  1.00  0.00    -0.015 NA
HETATM   17  N7  UNL     1       4.203   6.148   2.581  1.00  0.00    -0.296 N
ATOM     18  H7  UNL     1       3.533   6.678   2.022  1.00  0.00     0.179 HD
HETATM   19  C14 UNL     1       4.667   6.673   3.793  1.00  0.00     0.247 C
ENDROOT
BRANCH   1  20
HETATM   20  C4  UNL     1       3.139   8.916   5.002  1.00  0.00     0.273 C
BRANCH  20  21
HETATM   21  O2  UNL     1       2.207   9.903   4.610  1.00  0.00    -0.366 OA
BRANCH  21  22
HETATM   22  C3  UNL     1       1.106   9.409   3.981  1.00  0.00     0.204 C
BRANCH  22  23
HETATM   23  C2  UNL     1       1.018   9.949   2.569  1.00  0.00     0.175 C
BRANCH  23  24
HETATM   24  O1  UNL     1      -0.204  10.457   2.247  1.00  0.00    -0.386 OA
HETATM   25  C1  UNL     1      -1.260   9.982   2.978  1.00  0.00     0.202 C
ENDBRANCH  23  24
BRANCH  23  26
HETATM   26  C15 UNL     1       1.448   8.842   1.651  1.00  0.00     0.172 C
BRANCH  26  27
HETATM   27  O9  UNL     1       1.556   7.625   2.336  1.00  0.00    -0.391 OA
ATOM     28  H9  UNL     1       2.388   7.202   2.160  1.00  0.00     0.210 HD
ENDBRANCH  26  27
BRANCH  26  29
HETATM   29  C16 UNL     1       2.755   9.069   0.961  1.00  0.00     0.198 C
BRANCH  29  30
HETATM   30  O10 UNL     1       3.265   7.952   0.326  1.00  0.00    -0.398 OA
ATOM     31  H10 UNL     1       2.676   7.560  -0.307  1.00  0.00     0.209 HD
ENDBRANCH  29  30
ENDBRANCH  26  29
ENDBRANCH  23  26
ENDBRANCH  22  23
ENDBRANCH  21  22
ENDBRANCH  20  21
BRANCH  20  32
HETATM   32  C5  UNL     1       3.190   9.029   6.484  1.00  0.00     0.209 C
HETATM   33  O3  UNL     1       2.375   9.579   7.229  1.00  0.00    -0.646 OA
HETATM   34  O4  UNL     1       4.308   8.427   7.080  1.00  0.00    -0.646 OA
ENDBRANCH  20  32
ENDBRANCH   1  20
BRANCH  19  35
HETATM   35  N8  UNL     1       5.868   5.918   4.297  1.00  0.00    -0.117 NA
BRANCH  35  36
HETATM   36  N9  UNL     1       5.949   5.965   5.669  1.00  0.00    -0.346 N
ATOM     37  H92 UNL     1       6.437   6.701   6.180  1.00  0.00     0.172 HD
ATOM     38  H91 UNL     1       5.462   5.177   6.096  1.00  0.00     0.172 HD
ENDBRANCH  35  36
ENDBRANCH  19  35
BRANCH   9  39
HETATM   39  O7  UNL     1       3.352  11.780   5.713  1.00  0.00    -0.343 OA
ATOM     40  H7  UNL     1       2.835  12.572   5.624  1.00  0.00     0.219 HD
ENDBRANCH   9  39
BRANCH   4  41
HETATM   41  O5  UNL     1       8.021  10.046   2.563  1.00  0.00    -0.355 OA
ATOM     42  H5  UNL     1       8.498  10.817   2.847  1.00  0.00     0.218 HD
ENDBRANCH   4  41
BRANCH   8  43
HETATM   43  O6  UNL     1       5.350  13.860   5.090  1.00  0.00    -0.343 OA
ATOM     44  H6  UNL     1       5.994  14.393   5.542  1.00  0.00     0.219 HD
ENDBRANCH   8  43
BRANCH  13  45
HETATM   45  O8  UNL     1       7.847   6.761   0.295  1.00  0.00    -0.362 OA
ATOM     46  H8  UNL     1       8.641   6.301   0.541  1.00  0.00     0.213 HD
ENDBRANCH  13  45
TORSDOF 16
ENDMDL