MODEL 3
REMARK VINA RESULT: -5.378539069      2.489      4.750
REMARK  17 active torsions:
REMARK  status: ('A' for Active; 'I' for Inactive)
REMARK    1  A    between atoms: N1_1  and  C1_4
REMARK    2  A    between atoms: C2_7  and  N3_8
REMARK    3  A    between atoms: N6_16  and  C4_17
REMARK    4  A    between atoms: C4_17  and  C5_18
REMARK    5  A    between atoms: C5_18  and  O1_19
REMARK    6  A    between atoms: C5_18  and  C6_21
REMARK    7  A    between atoms: C6_21  and  O2_22
REMARK    8  A    between atoms: C6_21  and  C7_24
REMARK    9  A    between atoms: C7_24  and  C8_25
REMARK   10  A    between atoms: N9_30  and  C9_31
REMARK   11  A    between atoms: C10_35  and  C11_36
REMARK   12  A    between atoms: C11_36  and  O3_37
REMARK   13  A    between atoms: C11_36  and  O4_39
REMARK   14  A    between atoms: C12_41  and  O5_42
REMARK   15  A    between atoms: C13_44  and  O6_45
REMARK   16  A    between atoms: C14_47  and  O7_48
REMARK   17  A    between atoms: C15_50  and  O8_51
ROOT
HETATM    1  C8  UNL     1       9.584   8.476   6.683  1.00  0.00     0.082 A
HETATM    2  N7  UNL     1       8.591   9.247   7.189  1.00  0.00    -0.286 N
ATOM      3  H7  UNL     1       8.675   9.878   7.987  1.00  0.00     0.188 HD
HETATM    4  N8  UNL     1       7.513   9.051   6.491  1.00  0.00    -0.236 N
ATOM      5  H8  UNL     1       6.623   9.516   6.669  1.00  0.00     0.208 HD
HETATM    6  N9  UNL     1       7.715   8.167   5.508  1.00  0.00    -0.220 N
HETATM    7  C15 UNL     1       9.015   7.800   5.622  1.00  0.00     0.185 A
ENDROOT
BRANCH   1   8
HETATM    8  C7  UNL     1      10.989   8.377   7.162  1.00  0.00     0.097 C
BRANCH   8   9
HETATM    9  C6  UNL     1      11.760   9.653   6.991  1.00  0.00     0.154 C
BRANCH   9  10
HETATM   10  C5  UNL     1      12.911   9.453   6.041  1.00  0.00     0.167 C
BRANCH  10  11
HETATM   11  C4  UNL     1      12.608  10.011   4.657  1.00  0.00     0.186 C
BRANCH  11  12
HETATM   12  N6  UNL     1      12.257   8.916   3.772  1.00  0.00    -0.257 N
HETATM   13  N5  UNL     1      12.579   7.644   3.886  1.00  0.00    -0.238 N
HETATM   14  N4  UNL     1      12.086   6.935   2.888  1.00  0.00    -0.279 N
ATOM     15  H5  UNL     1      13.137   7.258   4.647  1.00  0.00     0.208 HD
HETATM   16  C3  UNL     1      11.406   7.756   2.066  1.00  0.00     0.140 A
ATOM     17  H4  UNL     1      12.202   5.929   2.761  1.00  0.00     0.189 HD
HETATM   18  C2  UNL     1      10.708   7.538   0.896  1.00  0.00     0.147 A
HETATM   19  C16 UNL     1      11.525   9.017   2.646  1.00  0.00     0.171 A
HETATM   20  N2  UNL     1      10.132   8.603   0.318  1.00  0.00    -0.175 N
HETATM   21  C1  UNL     1      10.220   9.851   0.845  1.00  0.00     0.679 A
ATOM     22  H2  UNL     1       9.610   8.471  -0.548  1.00  0.00     0.186 HD
HETATM   23  N11 UNL     1      10.915  10.022   1.994  1.00  0.00    -0.173 N
ATOM     24  H11 UNL     1      10.979  10.962   2.385  1.00  0.00     0.186 HD
BRANCH  18  25
HETATM   25  N3  UNL     1      10.609   6.347   0.372  1.00  0.00    -0.383 N
ATOM     26  H32 UNL     1       9.820   6.089  -0.221  1.00  0.00     0.157 HD
ATOM     27  H31 UNL     1      11.321   5.634   0.539  1.00  0.00     0.157 HD
ENDBRANCH  18  25
BRANCH  21  28
HETATM   28  N1  UNL     1       9.644  10.856   0.247  1.00  0.00    -0.234 N
ATOM     29  H12 UNL     1       9.339  10.790  -0.725  1.00  0.00     0.174 HD
ATOM     30  H11 UNL     1       9.488  11.729   0.750  1.00  0.00     0.174 HD
ENDBRANCH  21  28
ENDBRANCH  11  12
ENDBRANCH  10  11
BRANCH  10  31
HETATM   31  O1  UNL     1      14.091  10.009   6.535  1.00  0.00    -0.391 OA
ATOM     32  H1  UNL     1      14.153   9.864   7.473  1.00  0.00     0.210 HD
ENDBRANCH  10  31
ENDBRANCH   9  10
BRANCH   9  33
HETATM   33  O2  UNL     1      11.002  10.751   6.668  1.00  0.00    -0.393 OA
ATOM     34  H2  UNL     1      10.609  11.156   7.433  1.00  0.00     0.210 HD
ENDBRANCH   9  33
ENDBRANCH   8   9
ENDBRANCH   1   8
BRANCH   7  35
HETATM   35  O8  UNL     1       9.710   6.910   4.847  1.00  0.00    -0.344 OA
ATOM     36  H8  UNL     1       9.578   5.970   4.894  1.00  0.00     0.219 HD
ENDBRANCH   7  35
BRANCH   6  37
HETATM   37  C9  UNL     1       6.747   7.714   4.550  1.00  0.00     0.342 C
HETATM   38  N10 UNL     1       7.306   7.699   3.237  1.00  0.00    -0.038 N
HETATM   39  C10 UNL     1       6.415   7.210   2.229  1.00  0.00     0.273 C
ATOM     40 2H10 UNL     1       7.657   8.623   2.987  1.00  0.00     0.280 HD
ATOM     41 1H10 UNL     1       8.181   7.174   3.226  1.00  0.00     0.280 HD
HETATM   42  C12 UNL     1       5.078   6.813   2.755  1.00  0.00     0.185 C
HETATM   43  C13 UNL     1       5.113   5.963   3.982  1.00  0.00     0.181 C
HETATM   44  C14 UNL     1       6.175   6.372   4.949  1.00  0.00     0.201 C
BRANCH  39  45
HETATM   45  C11 UNL     1       7.076   6.118   1.418  1.00  0.00     0.287 C
BRANCH  45  46
HETATM   46  O3  UNL     1       8.129   5.528   2.086  1.00  0.00    -0.369 OA
ATOM     47  H3  UNL     1       8.071   4.580   2.091  1.00  0.00     0.212 HD
ENDBRANCH  45  46
BRANCH  45  48
HETATM   48  O4  UNL     1       7.574   6.614   0.216  1.00  0.00    -0.369 OA
ATOM     49  H4  UNL     1       7.130   6.223  -0.528  1.00  0.00     0.212 HD
ENDBRANCH  45  48
ENDBRANCH  39  45
BRANCH  42  50
HETATM   50  O5  UNL     1       4.337   6.212   1.746  1.00  0.00    -0.391 OA
ATOM     51  H5  UNL     1       4.111   5.325   1.998  1.00  0.00     0.210 HD
ENDBRANCH  42  50
BRANCH  43  52
HETATM   52  O6  UNL     1       3.872   6.102   4.638  1.00  0.00    -0.390 OA
ATOM     53  H6  UNL     1       3.194   6.131   3.973  1.00  0.00     0.210 HD
ENDBRANCH  43  52
BRANCH  44  54
HETATM   54  O7  UNL     1       5.655   6.531   6.254  1.00  0.00    -0.389 OA
ATOM     55  H7  UNL     1       5.478   5.657   6.581  1.00  0.00     0.210 HD
ENDBRANCH  44  54
ENDBRANCH   6  37
TORSDOF 17
ENDMDL