MODEL 1
REMARK VINA RESULT: -6.275001666      0.000      0.000
REMARK  18 active torsions:
REMARK  status: ('A' for Active; 'I' for Inactive)
REMARK    1  A    between atoms: N1_1  and  N2_4
REMARK    2  A    between atoms: N2_4  and  C1_5
REMARK    3  A    between atoms: C1_5  and  N3_6
REMARK    4  A    between atoms: C2_11  and  S1_12
REMARK    5  A    between atoms: S1_12  and  C3_13
REMARK    6  A    between atoms: C4_17  and  C5_18
REMARK    7  A    between atoms: C5_18  and  N5_19
REMARK    8  A    between atoms: C5_18  and  C12_37
REMARK    9  A    between atoms: N5_19  and  C6_21
REMARK   10  A    between atoms: C7_24  and  C8_25
REMARK   11  A    between atoms: C9_28  and  O4_29
REMARK   12  A    between atoms: C10_31  and  O5_32
REMARK   13  A    between atoms: C11_34  and  O6_35
REMARK   14  A    between atoms: C12_37  and  O7_38
REMARK   15  A    between atoms: C12_37  and  O8_40
REMARK   16  A    between atoms: C13_44  and  C14_45
REMARK   17  A    between atoms: C14_45  and  O11_46
REMARK   18  A    between atoms: C15_48  and  O12_49
ROOT
HETATM    1  C3  UNL     1       9.303   7.050   4.988  1.00  0.00     0.395 C
HETATM    2  N4  UNL     1       9.683   5.915   4.121  1.00  0.00    -0.011 N
ATOM      3  H41 UNL     1       9.063   5.496   3.428  1.00  0.00     0.284 HD
ATOM      4  H42 UNL     1       9.815   4.961   4.459  1.00  0.00     0.284 HD
HETATM    5  C4  UNL     1      10.761   6.801   3.795  1.00  0.00     0.355 C
HETATM    6  O9  UNL     1       9.802   7.846   3.917  1.00  0.00    -0.315 OA
ENDROOT
BRANCH   5   7
HETATM    7  C5  UNL     1      11.448   6.693   2.497  1.00  0.00     0.194 C
BRANCH   7   8
HETATM    8  N5  UNL     1      11.763   8.018   1.998  1.00  0.00    -0.360 N
ATOM      9  H5  UNL     1      12.221   8.656   2.648  1.00  0.00     0.162 HD
BRANCH   8  10
HETATM   10  C6  UNL     1      11.504   8.505   0.726  1.00  0.00     0.139 A
HETATM   11  N6  UNL     1      12.268   8.145  -0.319  1.00  0.00    -0.333 N
HETATM   12  C7  UNL     1      12.116   8.562  -1.575  1.00  0.00     0.147 A
ATOM     13  H6  UNL     1      13.032   7.496  -0.134  1.00  0.00     0.168 HD
HETATM   14  C9  UNL     1      11.065   9.448  -1.800  1.00  0.00     0.136 A
HETATM   15  C10 UNL     1      10.233   9.873  -0.803  1.00  0.00     0.139 A
HETATM   16  C11 UNL     1      10.478   9.375   0.484  1.00  0.00     0.146 A
BRANCH  12  17
HETATM   17  C8  UNL     1      12.961   8.148  -2.663  1.00  0.00     0.229 C
HETATM   18  O2  UNL     1      13.268   6.947  -2.797  1.00  0.00    -0.643 OA
HETATM   19  O3  UNL     1      13.439   9.072  -3.567  1.00  0.00    -0.643 OA
ENDBRANCH  12  17
BRANCH  14  20
HETATM   20  O4  UNL     1      10.853   9.919  -3.086  1.00  0.00    -0.356 OA
ATOM     21  H4  UNL     1      10.022  10.330  -3.291  1.00  0.00     0.218 HD
ENDBRANCH  14  20
BRANCH  15  22
HETATM   22  O5  UNL     1       9.184  10.751  -1.006  1.00  0.00    -0.355 OA
ATOM     23  H5  UNL     1       8.303  10.474  -1.229  1.00  0.00     0.218 HD
ENDBRANCH  15  22
BRANCH  16  24
HETATM   24  O6  UNL     1       9.624   9.820   1.463  1.00  0.00    -0.355 OA
ATOM     25  H6  UNL     1       9.798  10.588   1.994  1.00  0.00     0.218 HD
ENDBRANCH  16  24
ENDBRANCH   8  10
ENDBRANCH   7   8
BRANCH   7  26
HETATM   26  C12 UNL     1      12.608   5.766   2.477  1.00  0.00     0.280 C
BRANCH  26  27
HETATM   27  O7  UNL     1      12.328   4.539   3.092  1.00  0.00    -0.369 OA
ATOM     28  H7  UNL     1      12.556   3.796   2.546  1.00  0.00     0.212 HD
ENDBRANCH  26  27
BRANCH  26  29
HETATM   29  O8  UNL     1      13.064   5.451   1.195  1.00  0.00    -0.369 OA
ATOM     30  H8  UNL     1      13.584   6.135   0.789  1.00  0.00     0.212 HD
ENDBRANCH  26  29
ENDBRANCH   7  26
ENDBRANCH   5   7
BRANCH   1  31
HETATM   31  S1  UNL     1       7.576   7.230   5.351  1.00  0.00    -0.049 SA
BRANCH  31  32
HETATM   32  C2  UNL     1       6.539   7.599   3.939  1.00  0.00     0.334 C
HETATM   33  O1  UNL     1       5.184   7.540   4.234  1.00  0.00    -0.298 OA
HETATM   34  C1  UNL     1       4.571   6.385   3.817  1.00  0.00     0.348 C
HETATM   35  C15 UNL     1       4.689   6.159   2.327  1.00  0.00     0.232 C
HETATM   36  C13 UNL     1       5.950   6.814   1.850  1.00  0.00     0.184 C
HETATM   37  O10 UNL     1       6.894   6.803   2.869  1.00  0.00    -0.342 OA
BRANCH  34  38
HETATM   38  N2  UNL     1       4.970   5.197   4.499  1.00  0.00    -0.078 NA
BRANCH  38  39
HETATM   39  N1  UNL     1       3.895   4.424   4.943  1.00  0.00    -0.344 N
ATOM     40  H12 UNL     1       3.133   4.814   5.497  1.00  0.00     0.172 HD
ATOM     41  H11 UNL     1       3.953   3.446   4.658  1.00  0.00     0.172 HD
ENDBRANCH  38  39
ENDBRANCH  34  38
BRANCH  34  42
HETATM   42  N3  UNL     1       3.132   6.559   4.078  1.00  0.00    -0.027 N
ATOM     43  H33 UNL     1       2.705   7.286   3.503  1.00  0.00     0.279 HD
ATOM     44  H32 UNL     1       2.564   5.781   3.743  1.00  0.00     0.279 HD
ATOM     45  H31 UNL     1       3.033   6.727   5.079  1.00  0.00     0.279 HD
ENDBRANCH  34  42
BRANCH  35  46
HETATM   46  O12 UNL     1       4.620   4.801   2.016  1.00  0.00    -0.386 OA
ATOM     47  H12 UNL     1       5.312   4.315   2.449  1.00  0.00     0.210 HD
ENDBRANCH  35  46
BRANCH  36  48
HETATM   48  C14 UNL     1       6.493   5.969   0.712  1.00  0.00     0.199 C
BRANCH  48  49
HETATM   49  O11 UNL     1       7.620   6.599   0.170  1.00  0.00    -0.398 OA
ATOM     50  H11 UNL     1       7.546   6.609  -0.777  1.00  0.00     0.209 HD
ENDBRANCH  48  49
ENDBRANCH  36  48
ENDBRANCH  31  32
ENDBRANCH   1  31
TORSDOF 18
ENDMDL