MODEL 3
REMARK VINA RESULT: -6.582921662      1.453      1.833
REMARK  17 active torsions:
REMARK  status: ('A' for Active; 'I' for Inactive)
REMARK    1  A    between atoms: N1_1  and  C1_4
REMARK    2  A    between atoms: C2_10  and  N4_11
REMARK    3  A    between atoms: N5_13  and  C3_15
REMARK    4  A    between atoms: C5_21  and  O2_22
REMARK    5  A    between atoms: C6_26  and  C7_27
REMARK    6  A    between atoms: C9_34  and  N10_35
REMARK    7  A    between atoms: N10_35  and  O5_36
REMARK    8  A    between atoms: N10_35  and  C10_38
REMARK    9  A    between atoms: C10_38  and  O6_39
REMARK   10  A    between atoms: C10_38  and  C13_48
REMARK   11  A    between atoms: O6_39  and  C11_40
REMARK   12  A    between atoms: C11_40  and  O7_41
REMARK   13  A    between atoms: C11_40  and  C12_43
REMARK   14  A    between atoms: C12_43  and  O8_44
REMARK   15  A    between atoms: C12_43  and  O9_46
REMARK   16  A    between atoms: C13_48  and  O10_49
REMARK   17  A    between atoms: N11_51  and  O11_53
ROOT
HETATM    1  C3  UNL     1       9.378   6.829   1.705  1.00  0.00     0.709 C
HETATM    2  N6  UNL     1       8.792   5.981   2.510  1.00  0.00    -0.134 N
ATOM      3  H6  UNL     1       9.027   4.992   2.435  1.00  0.00     0.205 HD
HETATM    4  N7  UNL     1       7.852   6.381   3.473  1.00  0.00    -0.303 N
ATOM      5  H7  UNL     1       7.567   5.696   4.173  1.00  0.00     0.182 HD
HETATM    6  C4  UNL     1       7.260   7.697   3.540  1.00  0.00     0.148 C
HETATM    7  C5  UNL     1       7.679   8.500   2.348  1.00  0.00     0.269 C
HETATM    8  N8  UNL     1       8.986   8.186   1.873  1.00  0.00    -0.195 N
ATOM      9  H8  UNL     1       9.641   8.937   1.654  1.00  0.00     0.180 HD
HETATM   10  C6  UNL     1       7.482   8.341   4.873  1.00  0.00     0.150 C
HETATM   11  C8  UNL     1       6.431   9.419   4.901  1.00  0.00     0.252 C
HETATM   12  N9  UNL     1       5.410   9.002   3.978  1.00  0.00    -0.053 N
ATOM     13  H91 UNL     1       5.276   9.667   3.216  1.00  0.00     0.279 HD
ATOM     14  H92 UNL     1       4.473   9.059   4.379  1.00  0.00     0.279 HD
HETATM   15  C9  UNL     1       5.732   7.672   3.505  1.00  0.00     0.322 C
ENDROOT
BRANCH   7  16
HETATM   16  O2  UNL     1       7.511   9.855   2.437  1.00  0.00    -0.373 OA
ATOM     17  H2  UNL     1       6.726  10.156   2.879  1.00  0.00     0.212 HD
ENDBRANCH   7  16
BRANCH  10  18
HETATM   18  C7  UNL     1       8.835   8.768   5.181  1.00  0.00     0.181 C
HETATM   19  O3  UNL     1       9.023   9.886   5.719  1.00  0.00    -0.648 OA
HETATM   20  O4  UNL     1       9.935   7.991   4.905  1.00  0.00    -0.648 OA
ENDBRANCH  10  18
BRANCH  15  21
HETATM   21  N10 UNL     1       5.171   6.630   4.291  1.00  0.00    -0.129 NA
BRANCH  21  22
HETATM   22  O5  UNL     1       6.062   5.584   4.215  1.00  0.00    -0.308 OA
ATOM     23  H5  UNL     1       6.065   5.184   5.077  1.00  0.00     0.237 HD
ENDBRANCH  21  22
BRANCH  21  24
HETATM   24  C10 UNL     1       3.867   6.191   3.817  1.00  0.00     0.303 C
BRANCH  24  25
HETATM   25  O6  UNL     1       3.519   6.747   2.618  1.00  0.00    -0.327 OA
BRANCH  25  26
HETATM   26  C11 UNL     1       2.437   7.586   2.697  1.00  0.00     0.314 C
BRANCH  26  27
HETATM   27  O7  UNL     1       2.311   8.220   3.942  1.00  0.00    -0.367 OA
ATOM     28  H7  UNL     1       1.504   8.712   4.035  1.00  0.00     0.212 HD
ENDBRANCH  26  27
BRANCH  26  29
HETATM   29  C12 UNL     1       2.458   8.710   1.666  1.00  0.00     0.309 C
BRANCH  29  30
HETATM   30  O8  UNL     1       3.141   9.821   2.149  1.00  0.00    -0.367 OA
ATOM     31  H8  UNL     1       3.228  10.488   1.479  1.00  0.00     0.212 HD
ENDBRANCH  29  30
BRANCH  29  32
HETATM   32  O9  UNL     1       2.994   8.349   0.459  1.00  0.00    -0.367 OA
ATOM     33  H9  UNL     1       2.494   8.650  -0.291  1.00  0.00     0.212 HD
ENDBRANCH  29  32
ENDBRANCH  26  29
ENDBRANCH  25  26
ENDBRANCH  24  25
BRANCH  24  34
HETATM   34  C13 UNL     1       3.848   4.704   3.800  1.00  0.00     0.182 C
HETATM   35  N11 UNL     1       3.771   3.996   4.873  1.00  0.00    -0.248 N
ATOM     36  H11 UNL     1       3.720   4.479   5.771  1.00  0.00     0.196 HD
BRANCH  34  37
HETATM   37  O10 UNL     1       3.916   3.990   2.593  1.00  0.00    -0.345 OA
ATOM     38  H10 UNL     1       4.507   3.254   2.490  1.00  0.00     0.219 HD
ENDBRANCH  34  37
BRANCH  35  39
HETATM   39  O11 UNL     1       3.752   2.627   4.869  1.00  0.00    -0.288 OA
ATOM     40  H11 UNL     1       4.037   2.100   5.606  1.00  0.00     0.244 HD
ENDBRANCH  35  39
ENDBRANCH  24  34
ENDBRANCH  21  24
ENDBRANCH  15  21
BRANCH   1  41
HETATM   41  N5  UNL     1      10.325   6.428   0.735  1.00  0.00    -0.129 N
HETATM   42  N4  UNL     1      11.564   6.377   0.944  1.00  0.00    -0.267 N
ATOM     43  H4  UNL     1      12.194   6.078   0.201  1.00  0.00     0.189 HD
ATOM     44  H5  UNL     1       9.983   6.165  -0.189  1.00  0.00     0.205 HD
BRANCH  42  45
HETATM   45  C2  UNL     1      12.084   6.733   2.212  1.00  0.00     0.188 A
HETATM   46  C1  UNL     1      12.396   5.794   3.195  1.00  0.00     0.169 A
HETATM   47  N2  UNL     1      12.857   6.481   4.246  1.00  0.00    -0.222 N
HETATM   48  O1  UNL     1      12.836   7.739   3.950  1.00  0.00    -0.153 OA
ATOM     49  H2  UNL     1      13.171   6.081   5.130  1.00  0.00     0.198 HD
HETATM   50  N3  UNL     1      12.382   7.916   2.747  1.00  0.00    -0.221 N
ATOM     51  H3  UNL     1      12.270   8.818   2.286  1.00  0.00     0.198 HD
BRANCH  46  52
HETATM   52  N1  UNL     1      12.254   4.528   3.072  1.00  0.00    -0.381 N
ATOM     53  H12 UNL     1      12.905   3.829   3.430  1.00  0.00     0.157 HD
ATOM     54  H11 UNL     1      11.499   4.016   2.615  1.00  0.00     0.157 HD
ENDBRANCH  46  52
ENDBRANCH  42  45
ENDBRANCH   1  41
TORSDOF 17
ENDMDL