MODEL 4
REMARK VINA RESULT: -5.790721169      2.967      6.495
REMARK  17 active torsions:
REMARK  status: ('A' for Active; 'I' for Inactive)
REMARK    1  A    between atoms: N1_1  and  C1_4
REMARK    2  A    between atoms: C2_7  and  N3_8
REMARK    3  A    between atoms: C4_14  and  N5_15
REMARK    4  A    between atoms: N5_15  and  C5_17
REMARK    5  A    between atoms: C6_18  and  O1_19
REMARK    6  A    between atoms: C7_21  and  O2_22
REMARK    7  A    between atoms: C8_24  and  N6_25
REMARK    8  A    between atoms: C9_30  and  C10_31
REMARK    9  A    between atoms: C10_31  and  O3_32
REMARK   10  A    between atoms: C10_31  and  C11_34
REMARK   11  A    between atoms: C10_31  and  C12_37
REMARK   12  A    between atoms: C11_34  and  O4_35
REMARK   13  A    between atoms: C12_37  and  O5_38
REMARK   14  A    between atoms: C13_40  and  O6_41
REMARK   15  A    between atoms: N9_43  and  N10_44
REMARK   16  A    between atoms: N11_47  and  C14_48
REMARK   17  A    between atoms: C14_48  and  C15_49
ROOT
HETATM    1  C5  UNL     1       5.308   6.204   3.821  1.00  0.00     0.227 C
HETATM    2  C6  UNL     1       4.578   6.097   2.529  1.00  0.00     0.189 C
HETATM    3  C7  UNL     1       5.583   6.519   1.442  1.00  0.00     0.191 C
HETATM    4  C8  UNL     1       6.862   6.074   2.059  1.00  0.00     0.238 C
HETATM    5  N9  UNL     1       6.722   6.336   3.454  1.00  0.00    -0.183 NA
ENDROOT
BRANCH   1   6
HETATM    6  N5  UNL     1       4.960   7.301   4.649  1.00  0.00    -0.205 N
ATOM      7  H5  UNL     1       4.007   7.256   5.011  1.00  0.00     0.179 HD
BRANCH   6   8
HETATM    8  C4  UNL     1       5.669   8.435   5.068  1.00  0.00     0.684 A
HETATM    9  N4  UNL     1       6.861   8.308   5.776  1.00  0.00    -0.184 N
HETATM   10  C3  UNL     1       7.326   9.499   6.107  1.00  0.00     0.138 A
ATOM     11  H4  UNL     1       7.311   7.422   6.007  1.00  0.00     0.184 HD
HETATM   12  C2  UNL     1       8.448   9.954   6.801  1.00  0.00     0.146 A
HETATM   13  C16 UNL     1       6.447  10.423   5.621  1.00  0.00     0.170 A
HETATM   14  N2  UNL     1       8.668  11.262   6.992  1.00  0.00    -0.175 N
HETATM   15  C1  UNL     1       7.788  12.149   6.502  1.00  0.00     0.679 A
ATOM     16  H2  UNL     1       9.493  11.579   7.502  1.00  0.00     0.186 HD
HETATM   17  N12 UNL     1       6.687  11.724   5.823  1.00  0.00    -0.174 N
ATOM     18  H12 UNL     1       6.030  12.414   5.459  1.00  0.00     0.186 HD
HETATM   19  N11 UNL     1       5.438   9.720   4.983  1.00  0.00    -0.155 N
BRANCH  12  20
HETATM   20  N3  UNL     1       9.260   9.062   7.249  1.00  0.00    -0.383 N
ATOM     21  H32 UNL     1       9.923   9.357   7.966  1.00  0.00     0.157 HD
ATOM     22  H31 UNL     1       9.243   8.103   6.903  1.00  0.00     0.157 HD
ENDBRANCH  12  20
BRANCH  15  23
HETATM   23  N1  UNL     1       7.996  13.408   6.684  1.00  0.00    -0.234 N
ATOM     24  H12 UNL     1       7.564  13.893   7.470  1.00  0.00     0.174 HD
ATOM     25  H11 UNL     1       8.598  13.913   6.033  1.00  0.00     0.174 HD
ENDBRANCH  15  23
BRANCH  19  26
HETATM   26  C14 UNL     1       4.396  10.460   4.331  1.00  0.00     0.262 C
BRANCH  26  27
HETATM   27  C15 UNL     1       4.141   9.962   2.930  1.00  0.00     0.192 C
HETATM   28  O7  UNL     1       3.156   9.268   2.635  1.00  0.00    -0.647 OA
HETATM   29  O8  UNL     1       5.048  10.301   1.944  1.00  0.00    -0.647 OA
ENDBRANCH  26  27
ENDBRANCH  19  26
ENDBRANCH   6   8
ENDBRANCH   1   6
BRANCH   2  30
HETATM   30  O1  UNL     1       4.253   4.732   2.345  1.00  0.00    -0.389 OA
ATOM     31  H1  UNL     1       4.312   4.554   1.414  1.00  0.00     0.210 HD
ENDBRANCH   2  30
BRANCH   5  32
HETATM   32  N10 UNL     1       7.530   5.498   4.229  1.00  0.00    -0.359 NA
ATOM     33 2H10 UNL     1       7.442   5.696   5.226  1.00  0.00     0.171 HD
ATOM     34 1H10 UNL     1       8.512   5.579   3.963  1.00  0.00     0.171 HD
ENDBRANCH   5  32
BRANCH   3  35
HETATM   35  O2  UNL     1       5.212   5.738   0.323  1.00  0.00    -0.389 OA
ATOM     36  H2  UNL     1       5.930   5.863  -0.285  1.00  0.00     0.210 HD
ENDBRANCH   3  35
BRANCH   4  37
HETATM   37  N6  UNL     1       8.035   6.755   1.591  1.00  0.00    -0.232 N
HETATM   38  N7  UNL     1       9.021   6.252   0.856  1.00  0.00    -0.236 N
HETATM   39  N8  UNL     1       9.911   7.174   0.630  1.00  0.00    -0.283 N
ATOM     40  H7  UNL     1       9.072   5.289   0.521  1.00  0.00     0.208 HD
HETATM   41  C9  UNL     1       9.549   8.335   1.211  1.00  0.00     0.118 A
ATOM     42  H8  UNL     1      10.765   7.037   0.089  1.00  0.00     0.188 HD
HETATM   43  C13 UNL     1       8.338   8.040   1.824  1.00  0.00     0.188 A
BRANCH  41  44
HETATM   44  C10 UNL     1      10.298   9.581   1.171  1.00  0.00     0.147 C
BRANCH  44  45
HETATM   45  O3  UNL     1       9.926  10.369   2.259  1.00  0.00    -0.379 OA
ATOM     46  H3  UNL     1      10.654  10.421   2.866  1.00  0.00     0.211 HD
ENDBRANCH  44  45
BRANCH  44  47
HETATM   47  C11 UNL     1      11.794   9.409   1.250  1.00  0.00     0.211 C
BRANCH  47  48
HETATM   48  O4  UNL     1      12.218   8.898   0.028  1.00  0.00    -0.397 OA
ATOM     49  H4  UNL     1      12.259   7.953   0.114  1.00  0.00     0.209 HD
ENDBRANCH  47  48
ENDBRANCH  44  47
BRANCH  44  50
HETATM   50  C12 UNL     1       9.964  10.418  -0.073  1.00  0.00     0.211 C
BRANCH  50  51
HETATM   51  O5  UNL     1       9.549   9.488  -1.043  1.00  0.00    -0.397 OA
ATOM     52  H5  UNL     1       8.602   9.460  -0.973  1.00  0.00     0.209 HD
ENDBRANCH  50  51
ENDBRANCH  44  50
ENDBRANCH  41  44
BRANCH  43  53
HETATM   53  O6  UNL     1       7.630   8.973   2.534  1.00  0.00    -0.343 OA
ATOM     54  H6  UNL     1       7.632   9.135   3.470  1.00  0.00     0.219 HD
ENDBRANCH  43  53
ENDBRANCH   4  37
TORSDOF 17
ENDMDL