MODEL 5
REMARK VINA RESULT: -5.932378265      3.799      7.411
REMARK  15 active torsions:
REMARK  status: ('A' for Active; 'I' for Inactive)
REMARK    1  A    between atoms: C1_4  and  O1_5
REMARK    2  A    between atoms: C1_4  and  O2_29
REMARK    3  A    between atoms: O1_5  and  C2_6
REMARK    4  A    between atoms: C2_6  and  C3_7
REMARK    5  A    between atoms: C3_7  and  N2_8
REMARK    6  A    between atoms: C5_14  and  C6_15
REMARK    7  A    between atoms: O2_29  and  C10_30
REMARK    8  A    between atoms: C10_30  and  O3_31
REMARK    9  A    between atoms: O3_31  and  C11_32
REMARK   10  A    between atoms: C12_36  and  O4_37
REMARK   11  A    between atoms: C12_36  and  C13_39
REMARK   12  A    between atoms: C13_39  and  O5_40
REMARK   13  A    between atoms: C14_42  and  O6_43
REMARK   14  A    between atoms: C15_45  and  O7_46
REMARK   15  A    between atoms: C16_48  and  O8_49
ROOT
HETATM    1  N1  UNL     1       3.289   5.317   4.271  1.00  0.00    -0.359 N
ATOM      2  H11 UNL     1       2.482   5.366   3.649  1.00  0.00     0.160 HD
ATOM      3  H12 UNL     1       3.202   5.178   5.277  1.00  0.00     0.160 HD
HETATM    4  C1  UNL     1       4.444   5.438   3.743  1.00  0.00     0.260 C
ENDROOT
BRANCH   4   5
HETATM    5  O1  UNL     1       5.535   5.371   4.586  1.00  0.00    -0.315 OA
BRANCH   5   6
HETATM    6  C2  UNL     1       5.815   6.285   5.569  1.00  0.00     0.201 C
BRANCH   6   7
HETATM    7  C3  UNL     1       6.608   7.491   5.251  1.00  0.00     0.177 C
BRANCH   7   8
HETATM    8  N2  UNL     1       8.011   7.260   4.992  1.00  0.00    -0.274 N
HETATM    9  N3  UNL     1       8.495   6.364   4.108  1.00  0.00    -0.281 N
HETATM   10  C4  UNL     1       9.837   6.366   4.124  1.00  0.00     0.139 A
ATOM     11  H3  UNL     1       7.921   5.768   3.511  1.00  0.00     0.189 HD
HETATM   12  N4  UNL     1      10.771   5.656   3.431  1.00  0.00    -0.328 N
HETATM   13  C8  UNL     1      10.241   7.297   5.051  1.00  0.00     0.095 A
HETATM   14  C5  UNL     1      12.079   5.831   3.619  1.00  0.00     0.122 A
ATOM     15  H4  UNL     1      10.459   4.968   2.745  1.00  0.00     0.169 HD
HETATM   16  N9  UNL     1      12.457   6.743   4.525  1.00  0.00    -0.329 N
HETATM   17  C7  UNL     1      11.585   7.490   5.256  1.00  0.00     0.117 A
ATOM     18  H9  UNL     1      13.455   6.886   4.675  1.00  0.00     0.168 HD
HETATM   19  N10 UNL     1      12.056   8.332   6.096  1.00  0.00    -0.385 N
ATOM     20 2H10 UNL     1      13.054   8.475   6.248  1.00  0.00     0.157 HD
ATOM     21 1H10 UNL     1      11.402   8.892   6.644  1.00  0.00     0.157 HD
HETATM   22  C9  UNL     1       9.060   7.831   5.567  1.00  0.00     0.150 A
HETATM   23  N11 UNL     1       9.112   8.866   6.545  1.00  0.00    -0.080 NA
BRANCH  14  24
HETATM   24  C6  UNL     1      13.020   5.027   2.833  1.00  0.00     0.274 C
HETATM   25  N5  UNL     1      13.018   5.293   1.431  1.00  0.00    -0.098 NA
HETATM   26  N6  UNL     1      13.626   4.122   0.916  1.00  0.00    -0.019 NA
HETATM   27  N7  UNL     1      13.372   3.105   1.807  1.00  0.00    -0.019 NA
HETATM   28  N8  UNL     1      12.652   3.613   2.876  1.00  0.00    -0.098 NA
ENDBRANCH  14  24
ENDBRANCH   7   8
ENDBRANCH   6   7
ENDBRANCH   5   6
ENDBRANCH   4   5
BRANCH   4  29
HETATM   29  O2  UNL     1       4.562   5.627   2.373  1.00  0.00    -0.291 OA
BRANCH  29  30
HETATM   30  C10 UNL     1       5.281   6.723   1.848  1.00  0.00     0.351 C
BRANCH  30  31
HETATM   31  O3  UNL     1       4.500   7.403   0.921  1.00  0.00    -0.332 OA
BRANCH  31  32
HETATM   32  C11 UNL     1       4.053   8.605   1.455  1.00  0.00     0.358 C
HETATM   33  N12 UNL     1       4.112   8.478   2.901  1.00  0.00    -0.009 N
HETATM   34  C12 UNL     1       3.284   9.417   3.593  1.00  0.00     0.277 C
ATOM     35 2H12 UNL     1       3.893   7.524   3.188  1.00  0.00     0.284 HD
ATOM     36 1H12 UNL     1       5.076   8.538   3.229  1.00  0.00     0.284 HD
HETATM   37  C14 UNL     1       1.837   9.369   3.203  1.00  0.00     0.215 C
HETATM   38  C15 UNL     1       1.636   8.485   1.967  1.00  0.00     0.184 C
HETATM   39  C16 UNL     1       2.677   8.956   0.960  1.00  0.00     0.206 C
BRANCH  34  40
HETATM   40  O4  UNL     1       3.346   9.075   4.959  1.00  0.00    -0.361 OA
ATOM     41  H4  UNL     1       4.266   9.078   5.197  1.00  0.00     0.212 HD
ENDBRANCH  34  40
BRANCH  34  42
HETATM   42  C13 UNL     1       3.893  10.793   3.460  1.00  0.00     0.235 C
BRANCH  42  43
HETATM   43  O5  UNL     1       2.815  11.682   3.281  1.00  0.00    -0.396 OA
ATOM     44  H5  UNL     1       2.430  11.465   2.440  1.00  0.00     0.209 HD
ENDBRANCH  42  43
ENDBRANCH  34  42
BRANCH  37  45
HETATM   45  O6  UNL     1       1.037   8.798   4.204  1.00  0.00    -0.388 OA
ATOM     46  H6  UNL     1       0.352   9.388   4.496  1.00  0.00     0.210 HD
ENDBRANCH  37  45
BRANCH  38  47
HETATM   47  O7  UNL     1       1.796   7.147   2.290  1.00  0.00    -0.390 OA
ATOM     48  H7  UNL     1       1.481   6.592   1.586  1.00  0.00     0.210 HD
ENDBRANCH  38  47
BRANCH  39  49
HETATM   49  O8  UNL     1       2.382   8.441  -0.286  1.00  0.00    -0.388 OA
ATOM     50  H8  UNL     1       1.818   8.997  -0.809  1.00  0.00     0.210 HD
ENDBRANCH  39  49
ENDBRANCH  31  32
ENDBRANCH  30  31
ENDBRANCH  29  30
ENDBRANCH   4  29
TORSDOF 15
ENDMDL