MODEL 4
REMARK VINA RESULT: -8.203277731      2.601      3.442
REMARK  7 active torsions:
REMARK  status: ('A' for Active; 'I' for Inactive)
REMARK    1  A    between atoms: C4_4  and  O1_5
REMARK    2  A    between atoms: C9_11  and  C10_12
REMARK    3  A    between atoms: C10_12  and  C12_14
REMARK    4  A    between atoms: C10_12  and  C18_21
REMARK    5  A    between atoms: C13_15  and  C14_16
REMARK    6  A    between atoms: C18_21  and  C19_22
REMARK    7  A    between atoms: C19_22  and  C20_23
ROOT
HETATM    1  C14 UNL     1     -11.392  -7.548 -21.968  1.00  0.00     0.040 C
HETATM    2  C15 UNL     1     -10.130  -7.908 -22.574  1.00  0.00     0.099 C
HETATM    3  N1  UNL     1      -9.122  -8.216 -23.068  1.00  0.00    -0.191 NA
HETATM    4  C16 UNL     1     -12.226  -6.835 -22.706  1.00  0.00    -0.008 C
HETATM    5  C17 UNL     1     -11.896  -6.419 -24.089  1.00  0.00     0.037 C
ENDROOT
BRANCH   1   6
HETATM    6  C13 UNL     1     -11.719  -7.954 -20.614  1.00  0.00     0.019 C
HETATM    7  C12 UNL     1     -12.261  -7.085 -19.788  1.00  0.00    -0.016 C
BRANCH   7   8
HETATM    8  C10 UNL     1     -12.635  -7.382 -18.395  1.00  0.00    -0.022 C
HETATM    9  C11 UNL     1     -14.139  -7.118 -18.265  1.00  0.00     0.020 C
BRANCH   8  10
HETATM   10  C9  UNL     1     -12.413  -8.794 -17.987  1.00  0.00    -0.001 C
HETATM   11  C8  UNL     1     -12.161  -9.036 -16.545  1.00  0.00     0.015 C
HETATM   12  C6  UNL     1     -12.199 -10.552 -16.435  1.00  0.00    -0.034 C
HETATM   13  C5  UNL     1     -10.891 -11.206 -16.574  1.00  0.00     0.041 C
HETATM   14  C7  UNL     1     -12.726 -10.859 -15.024  1.00  0.00     0.016 C
HETATM   15  C25 UNL     1     -13.257 -10.962 -17.403  1.00  0.00     0.022 C
HETATM   16  C4  UNL     1     -10.419 -11.563 -17.923  1.00  0.00     0.122 C
HETATM   17  C3  UNL     1     -11.477 -11.981 -18.894  1.00  0.00     0.065 C
HETATM   18  C2  UNL     1     -12.802 -12.089 -18.239  1.00  0.00    -0.082 C
HETATM   19  C1  UNL     1     -13.537 -13.174 -18.416  1.00  0.00     0.015 C
HETATM   20  C24 UNL     1     -13.568  -9.726 -18.266  1.00  0.00     0.015 C
BRANCH  16  21
HETATM   21  O1  UNL     1      -9.538 -12.667 -17.790  1.00  0.00    -0.395 OA
ATOM     22  H1  UNL     1      -9.911 -13.228 -17.121  1.00  0.00     0.210 HD
ENDBRANCH  16  21
ENDBRANCH   8  10
BRANCH   8  23
HETATM   23  C18 UNL     1     -11.991  -6.412 -17.418  1.00  0.00     0.017 C
BRANCH  23  24
HETATM   24  C19 UNL     1     -10.544  -6.158 -17.784  1.00  0.00     0.028 C
BRANCH  24  25
HETATM   25  C20 UNL     1      -9.608  -6.779 -16.819  1.00  0.00    -0.025 C
HETATM   26  C21 UNL     1      -8.787  -7.760 -17.087  1.00  0.00    -0.091 C
HETATM   27  C22 UNL     1      -7.899  -8.297 -16.040  1.00  0.00     0.042 C
HETATM   28  C23 UNL     1      -8.744  -8.338 -18.446  1.00  0.00     0.042 C
ENDBRANCH  24  25
ENDBRANCH  23  24
ENDBRANCH   8  23
ENDBRANCH   7   8
ENDBRANCH   1   6
TORSDOF 7
ENDMDL