MODEL 5
REMARK VINA RESULT: -7.788616293      1.913      3.728
REMARK  8 active torsions:
REMARK  status: ('A' for Active; 'I' for Inactive)
REMARK    1  A    between atoms: C2_2  and  C3_3
REMARK    2  A    between atoms: C12_12  and  O1_13
REMARK    3  A    between atoms: C14_16  and  C15_17
REMARK    4  A    between atoms: C15_17  and  O2_19
REMARK    5  A    between atoms: O2_19  and  C17_20
REMARK    6  A    between atoms: C17_20  and  C18_21
REMARK    7  A    between atoms: C18_21  and  C19_22
REMARK    8  A    between atoms: C19_22  and  C20_23
ROOT
HETATM    1  C3  UNL     1      -9.216  -8.527 -21.971  1.00  0.00     0.013 C
HETATM    2  C4  UNL     1     -10.480  -9.139 -21.362  1.00  0.00     0.019 C
HETATM    3  C5  UNL     1     -10.674  -7.866 -20.601  1.00  0.00    -0.035 C
HETATM    4  C6  UNL     1     -11.727  -6.972 -21.253  1.00  0.00     0.016 C
HETATM    5  C7  UNL     1      -9.304  -7.386 -20.982  1.00  0.00     0.002 C
HETATM    6  C8  UNL     1      -8.511  -7.627 -19.689  1.00  0.00     0.012 C
HETATM    7  C9  UNL     1      -9.515  -7.156 -18.677  1.00  0.00    -0.001 C
HETATM    8  C10 UNL     1     -10.751  -7.950 -19.121  1.00  0.00     0.001 C
HETATM    9  C11 UNL     1     -10.672  -9.348 -18.561  1.00  0.00     0.038 C
HETATM   10  C12 UNL     1     -10.941  -9.202 -17.056  1.00  0.00     0.123 C
HETATM   11  C13 UNL     1     -10.445  -7.891 -16.533  1.00  0.00     0.029 C
HETATM   12  C14 UNL     1      -9.991  -7.880 -15.127  1.00  0.00     0.021 C
HETATM   13  C22 UNL     1      -9.039  -6.680 -15.050  1.00  0.00     0.008 C
HETATM   14  C23 UNL     1      -8.905  -6.159 -16.462  1.00  0.00     0.010 C
HETATM   15  C24 UNL     1      -9.172  -7.435 -17.262  1.00  0.00    -0.034 C
HETATM   16  C25 UNL     1      -8.019  -8.345 -17.039  1.00  0.00     0.016 C
ENDROOT
BRANCH  12  17
HETATM   17  C15 UNL     1     -11.052  -7.631 -14.092  1.00  0.00     0.121 C
HETATM   18  C16 UNL     1     -11.502  -8.979 -13.591  1.00  0.00     0.040 C
BRANCH  17  19
HETATM   19  O2  UNL     1     -12.032  -6.818 -14.530  1.00  0.00    -0.386 OA
BRANCH  19  20
HETATM   20  C17 UNL     1     -13.287  -7.332 -14.630  1.00  0.00     0.168 C
BRANCH  20  21
HETATM   21  C18 UNL     1     -13.915  -7.174 -16.001  1.00  0.00     0.026 C
BRANCH  21  22
HETATM   22  C19 UNL     1     -13.195  -6.115 -16.813  1.00  0.00     0.002 C
BRANCH  22  23
HETATM   23  C20 UNL     1     -13.732  -6.152 -18.227  1.00  0.00    -0.004 C
HETATM   24  C21 UNL     1     -14.290  -4.799 -18.619  1.00  0.00     0.005 C
ENDBRANCH  22  23
ENDBRANCH  21  22
ENDBRANCH  20  21
ENDBRANCH  19  20
ENDBRANCH  17  19
ENDBRANCH  12  17
BRANCH  10  25
HETATM   25  O1  UNL     1     -10.522 -10.304 -16.342  1.00  0.00    -0.395 OA
ATOM     26  H1  UNL     1     -11.250 -10.825 -16.024  1.00  0.00     0.210 HD
ENDBRANCH  10  25
BRANCH   1  27
HETATM   27  C2  UNL     1      -9.442  -8.013 -23.345  1.00  0.00    -0.032 C
HETATM   28  C1  UNL     1      -8.461  -7.410 -23.976  1.00  0.00     0.007 C
ENDBRANCH   1  27
TORSDOF 8
ENDMDL