MODEL 3
REMARK VINA RESULT: -7.248990091      1.630      3.684
REMARK  6 active torsions:
REMARK  status: ('A' for Active; 'I' for Inactive)
REMARK    1  A    between atoms: C2_2  and  S1_4
REMARK    2  A    between atoms: S1_4  and  C4_5
REMARK    3  A    between atoms: C4_5  and  C5_6
REMARK    4  A    between atoms: C5_6  and  C6_7
REMARK    5  A    between atoms: C6_7  and  N1_8
REMARK    6  A    between atoms: N1_8  and  C7_10
ROOT
HETATM    1  C7  UNL     1     -11.906  -8.050 -16.226  1.00  0.00    -0.005 C
HETATM    2  C8  UNL     1     -10.515  -8.315 -15.659  1.00  0.00     0.057 C
HETATM    3  C9  UNL     1      -9.741  -8.705 -16.936  1.00  0.00    -0.008 C
HETATM    4  C10 UNL     1      -8.269  -8.456 -16.573  1.00  0.00     0.011 C
HETATM    5  C11 UNL     1     -10.263  -7.733 -17.903  1.00  0.00     0.008 C
HETATM    6  C12 UNL     1     -10.081  -7.946 -19.340  1.00  0.00    -0.001 C
HETATM    7  C13 UNL     1      -8.687  -7.653 -19.864  1.00  0.00     0.006 C
HETATM    8  C14 UNL     1      -8.826  -7.354 -21.324  1.00  0.00     0.005 C
HETATM    9  C15 UNL     1      -9.780  -8.160 -22.087  1.00  0.00    -0.010 C
HETATM   10  C16 UNL     1     -10.997  -7.358 -22.568  1.00  0.00     0.005 C
HETATM   11  C17 UNL     1     -11.855  -8.507 -22.071  1.00  0.00     0.006 C
HETATM   12  C18 UNL     1     -10.656  -9.120 -21.427  1.00  0.00    -0.002 C
HETATM   13  C19 UNL     1     -10.599  -9.222 -19.929  1.00  0.00    -0.036 C
HETATM   14  C20 UNL     1      -9.711 -10.427 -19.618  1.00  0.00     0.016 C
HETATM   15  C21 UNL     1     -11.929  -9.498 -19.280  1.00  0.00     0.011 C
HETATM   16  C22 UNL     1     -12.583  -8.395 -18.577  1.00  0.00     0.016 C
HETATM   17  C23 UNL     1     -11.749  -7.582 -17.612  1.00  0.00    -0.001 C
HETATM   18  C24 UNL     1     -12.061  -6.118 -17.778  1.00  0.00     0.022 C
ENDROOT
BRANCH   1  19
HETATM   19  N1  UNL     1     -12.798  -7.485 -15.324  1.00  0.00    -0.375 N
ATOM     20  H1  UNL     1     -13.699  -7.146 -15.658  1.00  0.00     0.164 HD
BRANCH  19  21
HETATM   21  C6  UNL     1     -12.485  -7.370 -13.964  1.00  0.00     0.061 C
BRANCH  21  22
HETATM   22  C5  UNL     1     -13.302  -8.347 -13.123  1.00  0.00     0.054 C
BRANCH  22  23
HETATM   23  C4  UNL     1     -12.601  -9.646 -12.900  1.00  0.00     0.079 C
BRANCH  23  24
HETATM   24  S1  UNL     1     -13.326 -10.936 -13.986  1.00  0.00    -0.165 SA
BRANCH  24  25
HETATM   25  C2  UNL     1     -11.996 -11.638 -15.006  1.00  0.00     0.039 C
HETATM   26  C1  UNL     1     -11.718 -13.078 -14.576  1.00  0.00     0.021 C
HETATM   27  C3  UNL     1     -12.382 -11.687 -16.457  1.00  0.00     0.021 C
ENDBRANCH  24  25
ENDBRANCH  23  24
ENDBRANCH  22  23
ENDBRANCH  21  22
ENDBRANCH  19  21
ENDBRANCH   1  19
TORSDOF 6
ENDMDL