MODEL 2
REMARK VINA RESULT: -7.805752545      2.329      6.663
REMARK  7 active torsions:
REMARK  status: ('A' for Active; 'I' for Inactive)
REMARK    1  A    between atoms: O1_2  and  C2_3
REMARK    2  A    between atoms: C2_3  and  C3_4
REMARK    3  A    between atoms: C3_4  and  C4_5
REMARK    4  A    between atoms: C4_5  and  C5_6
REMARK    5  A    between atoms: C5_6  and  C6_7
REMARK    6  A    between atoms: C6_7  and  C7_8
REMARK    7  A    between atoms: C18_19  and  O2_20
ROOT
HETATM    1  C7  UNL     1      -9.971  -8.133 -21.745  1.00  0.00    -0.014 C
HETATM    2  C8  UNL     1     -11.019  -9.192 -21.702  1.00  0.00     0.005 C
HETATM    3  C9  UNL     1     -11.348  -9.676 -20.317  1.00  0.00     0.010 C
HETATM    4  C10 UNL     1     -10.063  -9.952 -19.564  1.00  0.00    -0.036 C
HETATM    5  C11 UNL     1      -9.402 -11.139 -20.251  1.00  0.00     0.016 C
HETATM    6  C12 UNL     1      -9.160  -8.763 -19.563  1.00  0.00    -0.006 C
HETATM    7  C13 UNL     1      -8.680  -8.351 -18.207  1.00  0.00     0.006 C
HETATM    8  C14 UNL     1      -9.782  -8.114 -17.224  1.00  0.00     0.006 C
HETATM    9  C15 UNL     1     -10.824  -9.193 -17.299  1.00  0.00    -0.005 C
HETATM   10  C16 UNL     1     -10.998  -9.736 -15.879  1.00  0.00     0.001 C
HETATM   11  C17 UNL     1     -11.224  -8.635 -14.891  1.00  0.00     0.037 C
HETATM   12  C18 UNL     1     -12.589  -8.860 -14.284  1.00  0.00     0.119 C
HETATM   13  C19 UNL     1     -13.294  -9.848 -15.191  1.00  0.00     0.041 C
HETATM   14  C20 UNL     1     -12.194 -10.641 -15.847  1.00  0.00    -0.038 C
HETATM   15  C21 UNL     1     -11.852 -11.849 -15.010  1.00  0.00     0.015 C
HETATM   16  C22 UNL     1     -12.555 -11.037 -17.247  1.00  0.00     0.010 C
HETATM   17  C23 UNL     1     -11.288 -11.479 -17.990  1.00  0.00     0.006 C
HETATM   18  C24 UNL     1     -10.321 -10.356 -18.139  1.00  0.00    -0.002 C
HETATM   19  C25 UNL     1      -9.828  -7.601 -20.312  1.00  0.00     0.010 C
ENDROOT
BRANCH   1  20
HETATM   20  C6  UNL     1     -10.272  -7.013 -22.707  1.00  0.00     0.005 C
BRANCH  20  21
HETATM   21  C5  UNL     1     -11.771  -7.000 -22.933  1.00  0.00     0.000 C
BRANCH  21  22
HETATM   22  C4  UNL     1     -12.427  -5.822 -22.285  1.00  0.00     0.002 C
BRANCH  22  23
HETATM   23  C3  UNL     1     -13.163  -6.122 -21.029  1.00  0.00     0.026 C
BRANCH  23  24
HETATM   24  C2  UNL     1     -13.586  -4.953 -20.209  1.00  0.00     0.167 C
BRANCH  24  25
HETATM   25  O1  UNL     1     -13.048  -4.848 -18.958  1.00  0.00    -0.396 OA
HETATM   26  C1  UNL     1     -12.694  -6.103 -18.495  1.00  0.00     0.201 C
ENDBRANCH  24  25
ENDBRANCH  23  24
ENDBRANCH  22  23
ENDBRANCH  21  22
ENDBRANCH  20  21
ENDBRANCH   1  20
BRANCH  12  27
HETATM   27  O2  UNL     1     -12.507  -9.341 -12.991  1.00  0.00    -0.396 OA
ATOM     28  H2  UNL     1     -11.656  -9.177 -12.603  1.00  0.00     0.210 HD
ENDBRANCH  12  27
TORSDOF 7
ENDMDL