MODEL 5
REMARK VINA RESULT: -8.065385507      1.668      2.444
REMARK  7 active torsions:
REMARK  status: ('A' for Active; 'I' for Inactive)
REMARK    1  A    between atoms: C2_2  and  C3_3
REMARK    2  A    between atoms: C4_4  and  C5_5
REMARK    3  A    between atoms: C5_5  and  O1_6
REMARK    4  A    between atoms: C20_22  and  C21_23
REMARK    5  A    between atoms: C22_24  and  C23_25
REMARK    6  A    between atoms: C23_25  and  C24_26
REMARK    7  A    between atoms: C24_26  and  N1_27
ROOT
HETATM    1  C5  UNL     1      -9.886  -8.556 -19.025  1.00  0.00     0.090 C
HETATM    2  C6  UNL     1     -10.303  -9.973 -18.955  1.00  0.00    -0.012 C
HETATM    3  C7  UNL     1     -11.776 -10.084 -19.340  1.00  0.00     0.018 C
HETATM    4  C8  UNL     1      -9.544 -10.878 -19.938  1.00  0.00     0.018 C
HETATM    5  C9  UNL     1     -10.184 -10.661 -17.623  1.00  0.00     0.012 C
HETATM    6  C10 UNL     1     -10.684  -9.871 -16.464  1.00  0.00     0.007 C
HETATM    7  C11 UNL     1     -10.775  -8.390 -16.778  1.00  0.00     0.005 C
HETATM    8  C12 UNL     1     -10.952  -7.557 -15.542  1.00  0.00    -0.043 C
HETATM    9  C13 UNL     1     -12.073  -6.543 -15.740  1.00  0.00     0.015 C
HETATM   10  C14 UNL     1     -11.339  -8.378 -14.325  1.00  0.00     0.015 C
HETATM   11  C15 UNL     1      -9.723  -6.761 -15.157  1.00  0.00     0.009 C
HETATM   12  C16 UNL     1      -9.121  -6.000 -16.296  1.00  0.00     0.002 C
HETATM   13  C17 UNL     1      -9.483  -6.544 -17.652  1.00  0.00     0.013 C
HETATM   14  C18 UNL     1      -9.567  -8.056 -17.573  1.00  0.00    -0.004 C
HETATM   15  C19 UNL     1      -8.272  -8.561 -17.076  1.00  0.00     0.019 C
ENDROOT
BRANCH   1  16
HETATM   16  C4  UNL     1      -8.767  -8.203 -19.874  1.00  0.00     0.013 C
HETATM   17  C3  UNL     1      -8.546  -7.837 -21.086  1.00  0.00     0.006 C
BRANCH  17  18
HETATM   18  C2  UNL     1      -9.278  -7.576 -22.275  1.00  0.00    -0.062 C
HETATM   19  C1  UNL     1      -8.924  -7.793 -23.678  1.00  0.00     0.048 C
HETATM   20  C20 UNL     1     -10.521  -7.033 -22.104  1.00  0.00     0.006 C
BRANCH  20  21
HETATM   21  C21 UNL     1     -11.332  -6.734 -23.232  1.00  0.00    -0.003 C
HETATM   22  C22 UNL     1     -12.631  -6.666 -23.206  1.00  0.00    -0.025 C
BRANCH  22  23
HETATM   23  C23 UNL     1     -13.416  -6.893 -21.990  1.00  0.00     0.057 C
BRANCH  23  24
HETATM   24  C24 UNL     1     -13.345  -5.641 -21.117  1.00  0.00     0.275 C
BRANCH  24  25
HETATM   25  N1  UNL     1     -14.359  -5.737 -20.112  1.00  0.00     0.080 N
HETATM   26  C25 UNL     1     -14.915  -4.470 -19.780  1.00  0.00     0.309 C
HETATM   27  C26 UNL     1     -14.027  -6.574 -19.004  1.00  0.00     0.309 C
ENDBRANCH  24  25
ENDBRANCH  23  24
ENDBRANCH  22  23
ENDBRANCH  20  21
ENDBRANCH  17  18
ENDBRANCH   1  16
BRANCH   1  28
HETATM   28  O1  UNL     1     -10.960  -7.690 -19.352  1.00  0.00    -0.384 OA
ATOM     29  H1  UNL     1     -10.695  -6.806 -19.126  1.00  0.00     0.211 HD
ENDBRANCH   1  28
TORSDOF 7
ENDMDL