MODEL 4
REMARK VINA RESULT: -7.747237408      2.680      6.546
REMARK  6 active torsions:
REMARK  status: ('A' for Active; 'I' for Inactive)
REMARK    1  A    between atoms: N1_2  and  C3_4
REMARK    2  A    between atoms: C3_4  and  C4_5
REMARK    3  A    between atoms: C4_5  and  C5_6
REMARK    4  A    between atoms: C5_6  and  C6_7
REMARK    5  A    between atoms: C6_7  and  C7_8
REMARK    6  A    between atoms: C24_25  and  O1_26
ROOT
HETATM    1  C7  UNL     1     -11.867  -7.289 -14.181  1.00  0.00    -0.005 C
HETATM    2  C8  UNL     1     -10.943  -7.542 -13.023  1.00  0.00     0.006 C
HETATM    3  C9  UNL     1      -9.757  -8.232 -13.621  1.00  0.00     0.006 C
HETATM    4  C10 UNL     1      -9.737  -7.843 -15.095  1.00  0.00    -0.000 A
HETATM    5  C11 UNL     1      -9.887  -6.416 -15.432  1.00  0.00    -0.000 A
HETATM    6  C12 UNL     1      -9.551  -5.829 -16.739  1.00  0.00     0.006 C
HETATM    7  C13 UNL     1      -9.100  -6.767 -17.800  1.00  0.00     0.008 C
HETATM    8  C14 UNL     1     -10.316  -7.170 -18.611  1.00  0.00     0.025 C
HETATM    9  C15 UNL     1      -9.866  -7.593 -19.953  1.00  0.00     0.001 C
HETATM   10  C16 UNL     1      -8.768  -8.615 -19.962  1.00  0.00     0.006 C
HETATM   11  C17 UNL     1      -8.263  -8.822 -21.366  1.00  0.00     0.000 C
HETATM   12  C18 UNL     1      -9.089  -8.135 -22.408  1.00  0.00     0.001 C
HETATM   13  C19 UNL     1     -10.544  -8.546 -22.159  1.00  0.00     0.009 C
HETATM   14  C20 UNL     1     -11.027  -8.038 -20.835  1.00  0.00    -0.040 C
HETATM   15  C21 UNL     1     -11.973  -6.889 -21.094  1.00  0.00     0.015 C
HETATM   16  C22 UNL     1     -11.721  -9.147 -20.073  1.00  0.00     0.012 C
HETATM   17  C23 UNL     1     -12.255  -8.627 -18.779  1.00  0.00     0.039 C
HETATM   18  C24 UNL     1     -11.129  -8.150 -17.847  1.00  0.00     0.062 C
HETATM   19  C25 UNL     1     -11.774  -7.479 -16.695  1.00  0.00     0.048 C
HETATM   20  C26 UNL     1     -11.044  -7.369 -15.438  1.00  0.00    -0.026 A
ENDROOT
BRANCH   1  21
HETATM   21  C6  UNL     1     -13.027  -8.218 -14.121  1.00  0.00     0.005 C
BRANCH  21  22
HETATM   22  C5  UNL     1     -12.834  -9.357 -13.152  1.00  0.00     0.002 C
BRANCH  22  23
HETATM   23  C4  UNL     1     -13.112 -10.690 -13.803  1.00  0.00     0.030 C
BRANCH  23  24
HETATM   24  C3  UNL     1     -12.303 -10.890 -15.060  1.00  0.00     0.271 C
BRANCH  24  25
HETATM   25  N1  UNL     1     -12.455 -12.207 -15.613  1.00  0.00     0.080 N
HETATM   26  C1  UNL     1     -12.548 -12.072 -17.061  1.00  0.00     0.309 C
HETATM   27  C2  UNL     1     -11.351 -13.078 -15.333  1.00  0.00     0.309 C
ENDBRANCH  24  25
ENDBRANCH  23  24
ENDBRANCH  22  23
ENDBRANCH  21  22
ENDBRANCH   1  21
BRANCH  18  28
HETATM   28  O1  UNL     1     -10.420  -9.299 -17.513  1.00  0.00    -0.389 OA
ATOM     29  H1  UNL     1     -10.954  -9.946 -17.067  1.00  0.00     0.210 HD
ENDBRANCH  18  28
TORSDOF 6
ENDMDL