MODEL 4
REMARK VINA RESULT: -7.909970770      1.169      1.644
REMARK  7 active torsions:
REMARK  status: ('A' for Active; 'I' for Inactive)
REMARK    1  A    between atoms: C2_2  and  C3_3
REMARK    2  A    between atoms: C3_3  and  C4_4
REMARK    3  A    between atoms: C4_4  and  O1_7
REMARK    4  A    between atoms: C8_10  and  C9_11
REMARK    5  A    between atoms: C18_20  and  C20_22
REMARK    6  A    between atoms: C20_22  and  C21_23
REMARK    7  A    between atoms: C21_23  and  C22_24
ROOT
HETATM    1  C3  UNL     1     -11.723 -10.447 -16.884  1.00  0.00     0.109 C
HETATM    2  C7  UNL     1     -12.127  -9.451 -15.807  1.00  0.00     0.055 C
HETATM    3  C8  UNL     1     -10.826  -8.776 -15.363  1.00  0.00     0.027 C
HETATM    4  C12 UNL     1     -10.300  -7.964 -16.511  1.00  0.00    -0.009 C
HETATM    5  C13 UNL     1     -10.791  -6.517 -16.412  1.00  0.00     0.018 C
HETATM    6  C14 UNL     1      -8.817  -7.935 -16.491  1.00  0.00     0.013 C
HETATM    7  C15 UNL     1      -8.411  -6.900 -17.530  1.00  0.00     0.006 C
HETATM    8  C16 UNL     1      -8.917  -7.192 -18.890  1.00  0.00    -0.008 C
HETATM    9  C17 UNL     1      -7.677  -7.607 -19.703  1.00  0.00     0.011 C
HETATM   10  C18 UNL     1     -10.045  -8.119 -19.043  1.00  0.00    -0.013 C
HETATM   11  C19 UNL     1      -9.466  -9.386 -19.713  1.00  0.00     0.018 C
HETATM   12  C26 UNL     1     -10.835  -8.493 -17.823  1.00  0.00     0.140 C
HETATM   13  O2  UNL     1     -10.802  -9.873 -17.753  1.00  0.00    -0.366 OA
ENDROOT
BRANCH   1  14
HETATM   14  C2  UNL     1     -11.030 -11.584 -16.219  1.00  0.00     0.004 C
HETATM   15  C1  UNL     1      -9.949 -12.190 -16.666  1.00  0.00     0.010 C
ENDBRANCH   1  14
BRANCH   1  16
HETATM   16  C4  UNL     1     -12.924 -10.980 -17.598  1.00  0.00     0.085 C
HETATM   17  C5  UNL     1     -14.015  -9.926 -17.626  1.00  0.00     0.049 C
HETATM   18  C6  UNL     1     -12.616 -11.329 -19.028  1.00  0.00     0.049 C
BRANCH  16  19
HETATM   19  O1  UNL     1     -13.359 -12.142 -16.977  1.00  0.00    -0.387 OA
ATOM     20  H1  UNL     1     -12.653 -12.778 -16.958  1.00  0.00     0.210 HD
ENDBRANCH  16  19
ENDBRANCH   1  16
BRANCH   3  21
HETATM   21  C9  UNL     1     -10.970  -8.108 -14.080  1.00  0.00    -0.088 C
HETATM   22  C10 UNL     1     -12.184  -7.919 -13.522  1.00  0.00     0.014 C
HETATM   23  C11 UNL     1      -9.808  -7.645 -13.293  1.00  0.00     0.043 C
ENDBRANCH   3  21
BRANCH  10  24
HETATM   24  C20 UNL     1     -11.081  -7.605 -20.042  1.00  0.00     0.016 C
BRANCH  24  25
HETATM   25  C21 UNL     1     -12.476  -7.559 -19.550  1.00  0.00     0.028 C
BRANCH  25  26
HETATM   26  C22 UNL     1     -12.926  -6.129 -19.741  1.00  0.00    -0.025 C
HETATM   27  C23 UNL     1     -13.754  -5.528 -18.896  1.00  0.00    -0.091 C
HETATM   28  C24 UNL     1     -14.181  -4.122 -19.107  1.00  0.00     0.042 C
HETATM   29  C25 UNL     1     -14.277  -6.254 -17.715  1.00  0.00     0.042 C
ENDBRANCH  25  26
ENDBRANCH  24  25
ENDBRANCH  10  24
TORSDOF 7
ENDMDL