MODEL 2
REMARK VINA RESULT: -8.849404151      2.002      4.767
REMARK  7 active torsions:
REMARK  status: ('A' for Active; 'I' for Inactive)
REMARK    1  A    between atoms: C6_7  and  O2_9
REMARK    2  A    between atoms: C8_11  and  C9_12
REMARK    3  A    between atoms: C10_13  and  C11_14
REMARK    4  A    between atoms: C11_14  and  C13_16
REMARK    5  A    between atoms: C14_17  and  C15_18
REMARK    6  A    between atoms: C16_19  and  C18_21
REMARK    7  A    between atoms: C19_22  and  C20_23
ROOT
HETATM    1  C11 UNL     1      -8.937  -7.924 -18.541  1.00  0.00     0.026 C
HETATM    2  C12 UNL     1      -7.848  -8.345 -19.536  1.00  0.00     0.018 C
ENDROOT
BRANCH   1   3
HETATM    3  C10 UNL     1      -9.266  -9.054 -17.594  1.00  0.00    -0.022 C
HETATM    4  C9  UNL     1     -10.440  -9.580 -17.551  1.00  0.00    -0.018 C
BRANCH   4   5
HETATM    5  C8  UNL     1     -10.942 -10.677 -16.698  1.00  0.00     0.073 C
HETATM    6  C2  UNL     1     -12.369 -10.275 -16.396  1.00  0.00    -0.076 C
HETATM    7  C1  UNL     1     -12.793  -9.955 -15.202  1.00  0.00     0.015 C
HETATM    8  C3  UNL     1     -13.271 -10.268 -17.562  1.00  0.00     0.068 C
HETATM    9  C4  UNL     1     -13.283 -11.643 -18.140  1.00  0.00     0.158 A
HETATM   10  O1  UNL     1     -12.501 -11.989 -19.232  1.00  0.00    -0.372 OA
HETATM   11  C5  UNL     1     -12.180 -12.492 -17.968  1.00  0.00     0.186 A
HETATM   12  C6  UNL     1     -10.956 -12.045 -17.260  1.00  0.00     0.093 C
HETATM   13  C7  UNL     1     -10.840 -12.988 -16.032  1.00  0.00     0.050 C
BRANCH  12  14
HETATM   14  O2  UNL     1      -9.823 -12.387 -18.010  1.00  0.00    -0.387 OA
ATOM     15  H2  UNL     1      -9.859 -13.307 -18.243  1.00  0.00     0.210 HD
ENDBRANCH  12  14
ENDBRANCH   4   5
ENDBRANCH   1   3
BRANCH   1  16
HETATM   16  C13 UNL     1      -8.414  -6.804 -17.768  1.00  0.00    -0.019 C
HETATM   17  C14 UNL     1      -9.125  -5.986 -17.050  1.00  0.00    -0.003 C
BRANCH  17  18
HETATM   18  C15 UNL     1     -10.542  -6.093 -16.925  1.00  0.00     0.006 C
HETATM   19  C16 UNL     1     -11.222  -6.618 -15.871  1.00  0.00    -0.062 C
HETATM   20  C17 UNL     1     -10.498  -7.141 -14.719  1.00  0.00     0.048 C
BRANCH  19  21
HETATM   21  C18 UNL     1     -12.649  -6.643 -16.007  1.00  0.00     0.007 C
HETATM   22  C19 UNL     1     -13.619  -6.449 -16.764  1.00  0.00     0.009 C
BRANCH  22  23
HETATM   23  C20 UNL     1     -13.914  -6.040 -18.125  1.00  0.00    -0.041 A
HETATM   24  C21 UNL     1     -13.364  -6.462 -19.288  1.00  0.00    -0.057 A
HETATM   25  C22 UNL     1     -12.287  -7.464 -19.637  1.00  0.00     0.048 C
HETATM   26  C23 UNL     1     -14.194  -5.641 -20.096  1.00  0.00    -0.006 A
HETATM   27  C24 UNL     1     -14.743  -5.095 -18.826  1.00  0.00    -0.002 A
HETATM   28  C25 UNL     1     -16.252  -5.269 -18.821  1.00  0.00     0.024 C
HETATM   29  C26 UNL     1     -14.341  -3.619 -18.653  1.00  0.00     0.024 C
ENDBRANCH  22  23
ENDBRANCH  19  21
ENDBRANCH  17  18
ENDBRANCH   1  16
TORSDOF 7
ENDMDL