MODEL 1
REMARK VINA RESULT: -8.374238510      0.000      0.000
REMARK  7 active torsions:
REMARK  status: ('A' for Active; 'I' for Inactive)
REMARK    1  A    between atoms: C2_2  and  C3_3
REMARK    2  A    between atoms: C2_2  and  C22_24
REMARK    3  A    between atoms: C3_3  and  C4_4
REMARK    4  A    between atoms: C4_4  and  C5_5
REMARK    5  A    between atoms: C5_5  and  C6_6
REMARK    6  A    between atoms: C6_6  and  N1_9
REMARK    7  A    between atoms: N1_9  and  C9_11
ROOT
HETATM    1  N1  UNL     1     -12.982  -6.211 -18.302  1.00  0.00    -0.405 N
ATOM      2  H1  UNL     1     -12.220  -5.702 -18.751  1.00  0.00     0.154 HD
ENDROOT
BRANCH   1   3
HETATM    3  C6  UNL     1     -14.260  -5.902 -18.704  1.00  0.00     0.019 C
HETATM    4  C7  UNL     1     -15.380  -6.806 -18.268  1.00  0.00     0.037 C
HETATM    5  C8  UNL     1     -14.723  -4.469 -18.408  1.00  0.00     0.037 C
BRANCH   3   6
HETATM    6  C5  UNL     1     -14.278  -5.963 -20.249  1.00  0.00     0.030 C
BRANCH   6   7
HETATM    7  C4  UNL     1     -12.870  -5.882 -20.783  1.00  0.00     0.003 C
BRANCH   7   8
HETATM    8  C3  UNL     1     -12.631  -6.740 -21.960  1.00  0.00     0.007 C
BRANCH   8   9
HETATM    9  C2  UNL     1     -11.270  -6.683 -22.547  1.00  0.00     0.011 C
HETATM   10  C1  UNL     1     -11.385  -6.714 -24.065  1.00  0.00     0.012 C
BRANCH   9  11
HETATM   11  C22 UNL     1     -10.521  -7.962 -22.187  1.00  0.00     0.136 A
HETATM   12  C23 UNL     1      -9.640  -7.826 -20.998  1.00  0.00     0.043 A
HETATM   13  C24 UNL     1      -9.989  -8.991 -20.135  1.00  0.00     0.113 A
HETATM   14  C25 UNL     1     -11.145  -9.668 -20.792  1.00  0.00     0.259 A
HETATM   15  O1  UNL     1     -11.823 -10.627 -20.363  1.00  0.00    -0.265 OA
HETATM   16  O2  UNL     1     -11.365  -9.051 -21.996  1.00  0.00    -0.316 OA
ENDBRANCH   9  11
ENDBRANCH   8   9
ENDBRANCH   7   8
ENDBRANCH   6   7
ENDBRANCH   3   6
ENDBRANCH   1   3
BRANCH   1  17
HETATM   17  C9  UNL     1     -12.632  -7.149 -17.346  1.00  0.00     0.028 C
HETATM   18  C10 UNL     1     -13.178  -6.907 -15.957  1.00  0.00     0.039 C
HETATM   19  C11 UNL     1     -12.556  -7.823 -14.926  1.00  0.00    -0.040 C
HETATM   20  C12 UNL     1     -13.132  -7.445 -13.576  1.00  0.00     0.015 C
HETATM   21  C13 UNL     1     -11.071  -7.571 -14.860  1.00  0.00     0.018 C
HETATM   22  C19 UNL     1     -12.878  -9.241 -15.278  1.00  0.00     0.018 C
HETATM   23  C14 UNL     1     -10.517  -7.942 -16.218  1.00  0.00    -0.040 C
HETATM   24  C15 UNL     1      -9.037  -7.740 -16.182  1.00  0.00     0.015 C
HETATM   25  C16 UNL     1     -10.821  -9.374 -16.581  1.00  0.00     0.018 C
HETATM   26  C21 UNL     1     -11.103  -7.057 -17.244  1.00  0.00     0.039 C
HETATM   27  C17 UNL     1     -12.300  -9.521 -16.660  1.00  0.00    -0.040 C
HETATM   28  C18 UNL     1     -12.643 -10.950 -16.988  1.00  0.00     0.015 C
HETATM   29  C20 UNL     1     -12.930  -8.592 -17.693  1.00  0.00     0.039 C
ENDBRANCH   1  17
TORSDOF 7
ENDMDL