MODEL 1
REMARK VINA RESULT: -7.958633950      0.000      0.000
REMARK  7 active torsions:
REMARK  status: ('A' for Active; 'I' for Inactive)
REMARK    1  A    between atoms: C2_2  and  C3_3
REMARK    2  A    between atoms: C3_3  and  C4_4
REMARK    3  A    between atoms: C4_4  and  C5_5
REMARK    4  A    between atoms: C5_5  and  C6_6
REMARK    5  A    between atoms: C6_6  and  O1_7
REMARK    6  A    between atoms: O1_7  and  C7_8
REMARK    7  A    between atoms: C14_15  and  O2_16
ROOT
HETATM    1  C7  UNL     1     -13.258  -5.949 -18.043  1.00  0.00     0.121 C
HETATM    2  C8  UNL     1     -14.290  -7.011 -18.354  1.00  0.00     0.033 C
HETATM    3  C9  UNL     1     -14.228  -8.138 -17.381  1.00  0.00     0.012 C
HETATM    4  C10 UNL     1     -12.870  -8.801 -17.303  1.00  0.00    -0.034 C
HETATM    5  C11 UNL     1     -12.582  -9.476 -18.622  1.00  0.00     0.016 C
HETATM    6  C12 UNL     1     -11.817  -7.750 -17.041  1.00  0.00     0.025 C
HETATM    7  C13 UNL     1     -11.915  -6.618 -18.025  1.00  0.00     0.039 C
HETATM    8  C14 UNL     1     -11.864  -7.190 -15.657  1.00  0.00     0.123 C
HETATM    9  C15 UNL     1     -12.037  -8.274 -14.594  1.00  0.00     0.037 C
HETATM   10  C16 UNL     1     -11.789  -9.576 -15.238  1.00  0.00    -0.003 C
HETATM   11  C17 UNL     1     -11.915 -10.783 -14.373  1.00  0.00    -0.002 C
HETATM   12  C18 UNL     1     -13.177 -10.890 -13.604  1.00  0.00     0.006 C
HETATM   13  C19 UNL     1     -13.905 -12.139 -14.080  1.00  0.00     0.005 C
HETATM   14  C20 UNL     1     -12.858 -12.900 -14.812  1.00  0.00    -0.010 C
HETATM   15  C21 UNL     1     -13.406 -13.911 -15.782  1.00  0.00     0.011 C
HETATM   16  C22 UNL     1     -11.987 -11.873 -15.443  1.00  0.00    -0.036 C
HETATM   17  C23 UNL     1     -10.582 -12.350 -15.693  1.00  0.00     0.016 C
HETATM   18  C24 UNL     1     -12.608 -11.226 -16.663  1.00  0.00     0.015 C
HETATM   19  C25 UNL     1     -12.922  -9.832 -16.240  1.00  0.00    -0.001 C
ENDROOT
BRANCH   1  20
HETATM   20  O1  UNL     1     -13.253  -5.032 -19.092  1.00  0.00    -0.386 OA
BRANCH  20  21
HETATM   21  C6  UNL     1     -13.816  -5.608 -20.244  1.00  0.00     0.168 C
BRANCH  21  22
HETATM   22  C5  UNL     1     -12.857  -5.613 -21.392  1.00  0.00     0.026 C
BRANCH  22  23
HETATM   23  C4  UNL     1     -12.445  -7.016 -21.702  1.00  0.00     0.002 C
BRANCH  23  24
HETATM   24  C3  UNL     1     -10.955  -7.170 -21.909  1.00  0.00    -0.000 C
BRANCH  24  25
HETATM   25  C2  UNL     1     -10.692  -7.128 -23.408  1.00  0.00    -0.005 C
HETATM   26  C1  UNL     1      -9.247  -7.532 -23.702  1.00  0.00     0.005 C
ENDBRANCH  24  25
ENDBRANCH  23  24
ENDBRANCH  22  23
ENDBRANCH  21  22
ENDBRANCH  20  21
ENDBRANCH   1  20
BRANCH   8  27
HETATM   27  O2  UNL     1     -10.597  -6.616 -15.404  1.00  0.00    -0.395 OA
ATOM     28  H2  UNL     1     -10.674  -5.687 -15.589  1.00  0.00     0.210 HD
ENDBRANCH   8  27
TORSDOF 7
ENDMDL