MODEL 1
REMARK VINA RESULT: -8.780486215      0.000      0.000
REMARK  7 active torsions:
REMARK  status: ('A' for Active; 'I' for Inactive)
REMARK    1  A    between atoms: C17_21  and  C18_22
REMARK    2  A    between atoms: C18_22  and  C19_23
REMARK    3  A    between atoms: C19_23  and  C20_24
REMARK    4  A    between atoms: C20_24  and  N3_25
REMARK    5  A    between atoms: N3_25  and  C21_28
REMARK    6  A    between atoms: C21_28  and  C22_29
REMARK    7  A    between atoms: C22_29  and  C23_30
ROOT
HETATM    1  C1  UNL     1       0.122   6.061  18.378  1.00  0.00     0.066 C
HETATM    2  C2  UNL     1       1.576   6.230  18.018  1.00  0.00     0.015 C
HETATM    3  N1  UNL     1       1.689   6.816  16.861  1.00  0.00    -0.274 N
ATOM      4  H1  UNL     1       0.809   7.056  16.404  1.00  0.00     0.193 HD
HETATM    5  O1  UNL     1       2.836   7.161  16.159  1.00  0.00    -0.267 OA
HETATM    6  C3  UNL     1       4.079   7.439  16.873  1.00  0.00     0.110 C
HETATM    7  C4  UNL     1       3.558   8.659  17.593  1.00  0.00     0.055 C
HETATM    8  C5  UNL     1       4.781   9.287  18.169  1.00  0.00    -0.023 C
HETATM    9  C6  UNL     1       4.599  10.822  18.131  1.00  0.00     0.019 C
HETATM   10  C7  UNL     1       4.838   8.925  19.565  1.00  0.00    -0.021 C
HETATM   11  C8  UNL     1       5.100   7.609  20.089  1.00  0.00    -0.025 C
HETATM   12  C9  UNL     1       4.238   6.455  20.026  1.00  0.00     0.015 A
HETATM   13  C10 UNL     1       2.758   6.508  20.284  1.00  0.00     0.024 A
HETATM   14  C11 UNL     1       2.473   5.724  18.991  1.00  0.00     0.002 A
HETATM   15  C12 UNL     1       1.910   4.348  19.438  1.00  0.00     0.022 C
HETATM   16  C13 UNL     1       3.921   5.748  18.779  1.00  0.00     0.028 A
HETATM   17  C14 UNL     1       4.444   6.219  17.477  1.00  0.00     0.136 C
HETATM   18  C15 UNL     1       5.887   5.827  17.494  1.00  0.00     0.067 C
HETATM   19  N2  UNL     1       7.019   5.491  17.529  1.00  0.00    -0.197 NA
HETATM   20  C16 UNL     1       5.811   8.935  17.167  1.00  0.00     0.021 C
HETATM   21  C17 UNL     1       5.049   8.234  16.059  1.00  0.00     0.025 C
ENDROOT
BRANCH  21  22
HETATM   22  C18 UNL     1       5.737   7.677  14.943  1.00  0.00     0.009 C
BRANCH  22  23
HETATM   23  C19 UNL     1       5.216   8.292  13.633  1.00  0.00     0.028 C
BRANCH  23  24
HETATM   24  C20 UNL     1       3.859   7.850  13.246  1.00  0.00     0.232 C
BRANCH  24  25
HETATM   25  N3  UNL     1       2.928   8.927  13.470  1.00  0.00    -0.075 N
ATOM     26  H32 UNL     1       2.108   8.822  12.872  1.00  0.00     0.277 HD
ATOM     27  H31 UNL     1       2.486   8.835  14.385  1.00  0.00     0.277 HD
BRANCH  25  28
HETATM   28  C21 UNL     1       3.502  10.234  13.316  1.00  0.00     0.232 C
BRANCH  28  29
HETATM   29  C22 UNL     1       3.242  11.079  14.575  1.00  0.00     0.032 C
BRANCH  29  30
HETATM   30  C23 UNL     1       3.592  12.506  14.308  1.00  0.00    -0.013 C
HETATM   31  C24 UNL     1       4.504  13.039  15.407  1.00  0.00     0.005 C
HETATM   32  C25 UNL     1       3.229  13.478  16.126  1.00  0.00     0.001 C
HETATM   33  C26 UNL     1       2.575  13.532  14.771  1.00  0.00     0.005 C
ENDBRANCH  29  30
ENDBRANCH  28  29
ENDBRANCH  25  28
ENDBRANCH  24  25
ENDBRANCH  23  24
ENDBRANCH  22  23
ENDBRANCH  21  22
TORSDOF 7
ENDMDL