MODEL 2
REMARK VINA RESULT: -8.751384468      1.587      2.352
REMARK  9 active torsions:
REMARK  status: ('A' for Active; 'I' for Inactive)
REMARK    1  A    between atoms: C2_2  and  C4_4
REMARK    2  A    between atoms: C4_4  and  C5_5
REMARK    3  A    between atoms: C5_5  and  C6_6
REMARK    4  A    between atoms: C6_6  and  C7_7
REMARK    5  A    between atoms: C7_7  and  C9_9
REMARK    6  A    between atoms: C11_11  and  C12_12
REMARK    7  A    between atoms: C12_12  and  C13_13
REMARK    8  A    between atoms: C14_14  and  C15_15
REMARK    9  A    between atoms: C23_25  and  O3_27
ROOT
HETATM    1  C13 UNL     1       6.104  11.415  18.588  1.00  0.00    -0.003 C
HETATM    2  C14 UNL     1       5.548  10.756  17.586  1.00  0.00    -0.019 C
ENDROOT
BRANCH   1   3
HETATM    3  C12 UNL     1       5.712  11.312  19.980  1.00  0.00     0.009 C
BRANCH   3   4
HETATM    4  C11 UNL     1       5.687  10.125  20.597  1.00  0.00    -0.027 C
HETATM    5  C10 UNL     1       4.766   9.605  21.580  1.00  0.00     0.042 C
HETATM    6  C9  UNL     1       4.979   8.324  21.741  1.00  0.00     0.051 C
HETATM    7  O4  UNL     1       6.027   7.922  20.896  1.00  0.00    -0.345 OA
HETATM    8  C25 UNL     1       6.679   9.050  20.357  1.00  0.00     0.157 C
HETATM    9  C26 UNL     1       7.943   9.391  21.081  1.00  0.00     0.045 C
BRANCH   6  10
HETATM   10  C7  UNL     1       4.266   7.396  22.649  1.00  0.00     0.038 C
HETATM   11  C8  UNL     1       5.175   7.036  23.825  1.00  0.00     0.017 C
BRANCH  10  12
HETATM   12  C6  UNL     1       3.937   6.109  21.947  1.00  0.00     0.011 C
BRANCH  12  13
HETATM   13  C5  UNL     1       2.689   6.247  21.125  1.00  0.00     0.001 C
BRANCH  13  14
HETATM   14  C4  UNL     1       2.822   5.525  19.825  1.00  0.00     0.004 C
BRANCH  14  15
HETATM   15  C2  UNL     1       1.584   4.702  19.572  1.00  0.00    -0.023 C
HETATM   16  C1  UNL     1       1.999   3.552  18.667  1.00  0.00     0.009 C
HETATM   17  C3  UNL     1       0.549   5.569  18.870  1.00  0.00     0.009 C
ENDBRANCH  14  15
ENDBRANCH  13  14
ENDBRANCH  12  13
ENDBRANCH  10  12
ENDBRANCH   6  10
ENDBRANCH   3   4
ENDBRANCH   1   3
BRANCH   2  18
HETATM   18  C15 UNL     1       4.441   9.814  17.736  1.00  0.00     0.048 C
HETATM   19  C16 UNL     1       4.747   8.440  17.209  1.00  0.00     0.025 C
HETATM   20  C17 UNL     1       5.953   8.398  16.303  1.00  0.00     0.184 C
HETATM   21  C20 UNL     1       3.593   7.807  16.476  1.00  0.00     0.002 C
HETATM   22  O1  UNL     1       6.338   7.016  16.237  1.00  0.00    -0.321 OA
HETATM   23  C18 UNL     1       5.319   6.063  16.051  1.00  0.00     0.259 C
HETATM   24  O2  UNL     1       5.657   4.930  15.647  1.00  0.00    -0.265 OA
HETATM   25  C19 UNL     1       3.900   6.339  16.306  1.00  0.00     0.116 C
HETATM   26  C21 UNL     1       2.357   8.030  17.322  1.00  0.00     0.008 C
HETATM   27  C22 UNL     1       2.006   9.483  17.243  1.00  0.00     0.038 C
HETATM   28  C23 UNL     1       3.174  10.405  17.118  1.00  0.00     0.061 C
HETATM   29  C24 UNL     1       3.394  10.916  15.730  1.00  0.00     0.046 C
BRANCH  28  30
HETATM   30  O3  UNL     1       2.879  11.534  17.922  1.00  0.00    -0.390 OA
ATOM     31  H3  UNL     1       3.622  12.114  17.798  1.00  0.00     0.210 HD
ENDBRANCH  28  30
ENDBRANCH   2  18
TORSDOF 9
ENDMDL