MODEL 5
REMARK VINA RESULT: -8.383775820      2.185      5.598
REMARK  8 active torsions:
REMARK  status: ('A' for Active; 'I' for Inactive)
REMARK    1  A    between atoms: C2_2  and  C4_4
REMARK    2  A    between atoms: C7_7  and  C8_8
REMARK    3  A    between atoms: C9_11  and  C10_12
REMARK    4  A    between atoms: C11_13  and  C12_14
REMARK    5  A    between atoms: C13_15  and  C14_16
REMARK    6  A    between atoms: C15_17  and  C16_18
REMARK    7  A    between atoms: C21_23  and  C22_24
REMARK    8  A    between atoms: C22_24  and  O3_27
ROOT
HETATM    1  C14 UNL     1       6.777   8.355  21.287  1.00  0.00    -0.003 C
HETATM    2  C15 UNL     1       6.101   7.275  21.566  1.00  0.00    -0.014 C
ENDROOT
BRANCH   1   3
HETATM    3  C13 UNL     1       6.231   9.621  20.843  1.00  0.00    -0.000 C
HETATM    4  C12 UNL     1       6.425  10.049  19.590  1.00  0.00    -0.000 C
BRANCH   4   5
HETATM    5  C11 UNL     1       5.869  11.312  19.183  1.00  0.00    -0.004 C
HETATM    6  C10 UNL     1       5.242  11.484  18.049  1.00  0.00    -0.021 C
BRANCH   6   7
HETATM    7  C9  UNL     1       4.992  10.478  17.020  1.00  0.00     0.027 C
HETATM    8  C4  UNL     1       4.763  10.944  15.639  1.00  0.00    -0.003 C
HETATM    9  C5  UNL     1       3.716   9.990  15.093  1.00  0.00     0.006 C
HETATM   10  C6  UNL     1       3.634   8.836  16.061  1.00  0.00     0.016 C
HETATM   11  C7  UNL     1       3.848   9.547  17.373  1.00  0.00     0.095 C
BRANCH   8  12
HETATM   12  C2  UNL     1       4.325  12.381  15.475  1.00  0.00    -0.018 C
HETATM   13  C1  UNL     1       3.120  12.435  14.507  1.00  0.00     0.010 C
HETATM   14  C3  UNL     1       5.391  13.220  14.806  1.00  0.00     0.010 C
ENDBRANCH   8  12
BRANCH  11  15
HETATM   15  C8  UNL     1       2.607  10.190  17.764  1.00  0.00     0.177 C
HETATM   16  O1  UNL     1       1.513   9.613  17.555  1.00  0.00    -0.648 OA
HETATM   17  O2  UNL     1       2.498  11.443  18.376  1.00  0.00    -0.648 OA
ENDBRANCH  11  15
ENDBRANCH   6   7
ENDBRANCH   4   5
ENDBRANCH   1   3
BRANCH   2  18
HETATM   18  C16 UNL     1       4.609   7.188  21.463  1.00  0.00     0.007 C
HETATM   19  C17 UNL     1       3.902   7.952  22.530  1.00  0.00     0.017 C
HETATM   20  C18 UNL     1       3.479   6.685  23.222  1.00  0.00     0.007 C
HETATM   21  C19 UNL     1       4.059   5.890  22.045  1.00  0.00     0.003 C
HETATM   22  C20 UNL     1       2.987   5.270  21.214  1.00  0.00     0.047 C
HETATM   23  C21 UNL     1       2.933   5.887  19.841  1.00  0.00     0.094 C
HETATM   24  C25 UNL     1       2.675   7.376  19.905  1.00  0.00     0.074 C
HETATM   25  O4  UNL     1       4.174   6.166  19.327  1.00  0.00    -0.370 OA
HETATM   26  C26 UNL     1       4.158   7.372  20.052  1.00  0.00     0.138 C
BRANCH  23  27
HETATM   27  C22 UNL     1       1.961   5.215  18.919  1.00  0.00     0.082 C
HETATM   28  C23 UNL     1       1.260   4.050  19.583  1.00  0.00     0.049 C
HETATM   29  C24 UNL     1       0.967   6.242  18.434  1.00  0.00     0.049 C
BRANCH  27  30
HETATM   30  O3  UNL     1       2.679   4.724  17.831  1.00  0.00    -0.388 OA
ATOM     31  H3  UNL     1       2.973   3.848  18.051  1.00  0.00     0.210 HD
ENDBRANCH  27  30
ENDBRANCH  23  27
ENDBRANCH   2  18
TORSDOF 8
ENDMDL