MODEL 4
REMARK VINA RESULT: -8.152078439      2.356      4.488
REMARK  9 active torsions:
REMARK  status: ('A' for Active; 'I' for Inactive)
REMARK    1  A    between atoms: C2_2  and  O2_4
REMARK    2  A    between atoms: O2_4  and  C3_5
REMARK    3  A    between atoms: C7_9  and  C8_10
REMARK    4  A    between atoms: C8_10  and  C9_11
REMARK    5  A    between atoms: C9_11  and  C10_12
REMARK    6  A    between atoms: C11_13  and  C13_15
REMARK    7  A    between atoms: C13_15  and  C14_16
REMARK    8  A    between atoms: C14_16  and  C15_17
REMARK    9  A    between atoms: C16_18  and  O3_20
ROOT
HETATM    1  C3  UNL     1       3.342  10.374  15.967  1.00  0.00     0.145 A
HETATM    2  C4  UNL     1       2.927   9.033  16.196  1.00  0.00     0.031 A
HETATM    3  C5  UNL     1       2.617   8.344  17.516  1.00  0.00    -0.004 C
HETATM    4  C6  UNL     1       2.385   6.868  17.342  1.00  0.00     0.010 C
HETATM    5  C7  UNL     1       3.009   5.784  18.076  1.00  0.00    -0.014 C
HETATM    6  C18 UNL     1       4.346   5.645  18.567  1.00  0.00     0.007 C
HETATM    7  C19 UNL     1       5.584   5.803  17.645  1.00  0.00     0.041 C
HETATM    8  C20 UNL     1       5.763   7.311  17.439  1.00  0.00     0.087 A
HETATM    9  C21 UNL     1       6.320   7.916  16.107  1.00  0.00     0.041 C
HETATM   10  C22 UNL     1       5.518   9.199  15.728  1.00  0.00     0.015 C
HETATM   11  C23 UNL     1       4.093   9.101  15.437  1.00  0.00    -0.010 A
HETATM   12  C24 UNL     1       3.892   8.851  13.905  1.00  0.00     0.018 C
HETATM   13  O4  UNL     1       4.616   7.519  17.082  1.00  0.00    -0.369 OA
HETATM   14  C25 UNL     1       5.067   8.217  18.181  1.00  0.00     0.157 A
HETATM   15  C26 UNL     1       3.712   8.623  18.568  1.00  0.00     0.040 C
ENDROOT
BRANCH   5  16
HETATM   16  C8  UNL     1       2.084   5.460  19.222  1.00  0.00     0.008 C
BRANCH  16  17
HETATM   17  C9  UNL     1       2.324   5.947  20.584  1.00  0.00     0.028 C
BRANCH  17  18
HETATM   18  C10 UNL     1       3.700   6.089  21.056  1.00  0.00    -0.024 C
HETATM   19  C11 UNL     1       4.008   6.541  22.253  1.00  0.00    -0.087 C
HETATM   20  C12 UNL     1       2.972   6.940  23.226  1.00  0.00     0.043 C
BRANCH  19  21
HETATM   21  C13 UNL     1       5.436   6.661  22.621  1.00  0.00     0.037 C
BRANCH  21  22
HETATM   22  C14 UNL     1       6.336   7.231  21.589  1.00  0.00     0.034 C
BRANCH  22  23
HETATM   23  C15 UNL     1       6.681   8.646  21.707  1.00  0.00     0.005 C
HETATM   24  C16 UNL     1       7.611   9.139  20.895  1.00  0.00     0.035 C
HETATM   25  C17 UNL     1       8.292   8.274  19.886  1.00  0.00     0.075 C
BRANCH  24  26
HETATM   26  O3  UNL     1       7.956  10.489  20.991  1.00  0.00    -0.366 OA
ATOM     27  H3  UNL     1       7.295  11.151  20.821  1.00  0.00     0.217 HD
ENDBRANCH  24  26
ENDBRANCH  22  23
ENDBRANCH  21  22
ENDBRANCH  19  21
ENDBRANCH  17  18
ENDBRANCH  16  17
ENDBRANCH   5  16
BRANCH   1  28
HETATM   28  O2  UNL     1       3.999  11.207  16.874  1.00  0.00    -0.315 OA
BRANCH  28  29
HETATM   29  C2  UNL     1       3.431  12.156  17.677  1.00  0.00     0.255 C
HETATM   30  C1  UNL     1       3.567  12.178  19.156  1.00  0.00     0.126 C
HETATM   31  O1  UNL     1       2.757  13.061  17.130  1.00  0.00    -0.266 OA
ENDBRANCH  28  29
ENDBRANCH   1  28
TORSDOF 9
ENDMDL