MODEL 5
REMARK VINA RESULT: -8.238437555      2.933      6.394
REMARK  7 active torsions:
REMARK  status: ('A' for Active; 'I' for Inactive)
REMARK    1  A    between atoms: N1_10  and  C8_11
REMARK    2  A    between atoms: C8_11  and  C9_12
REMARK    3  A    between atoms: C9_12  and  C11_14
REMARK    4  A    between atoms: C11_14  and  C12_15
REMARK    5  A    between atoms: C12_15  and  C13_16
REMARK    6  A    between atoms: C12_15  and  S1_18
REMARK    7  A    between atoms: S1_18  and  C15_19
ROOT
HETATM    1  C9  UNL     1       3.939  10.762  18.558  1.00  0.00     0.033 C
HETATM    2  C10 UNL     1       3.341  12.095  18.886  1.00  0.00     0.016 C
ENDROOT
BRANCH   1   3
HETATM    3  C8  UNL     1       3.581  10.426  17.077  1.00  0.00     0.280 C
BRANCH   3   4
HETATM    4  N1  UNL     1       3.981   9.084  16.794  1.00  0.00     0.094 N
HETATM    5  C6  UNL     1       2.913   8.142  16.768  1.00  0.00     0.221 C
HETATM    6  C5  UNL     1       3.436   6.750  17.062  1.00  0.00     0.068 C
HETATM    7  C7  UNL     1       1.768   8.513  17.683  1.00  0.00     0.043 C
HETATM    8  C4  UNL     1       4.812   6.663  16.505  1.00  0.00     0.144 C
HETATM    9  O2  UNL     1       5.207   5.417  16.021  1.00  0.00    -0.311 OA
HETATM   10  C24 UNL     1       4.820   7.502  15.219  1.00  0.00     0.082 C
HETATM   11  C3  UNL     1       6.282   5.684  15.146  1.00  0.00     0.289 C
HETATM   12  C2  UNL     1       6.092   7.032  14.618  1.00  0.00     0.016 C
HETATM   13  O1  UNL     1       7.237   4.886  14.876  1.00  0.00    -0.260 OA
HETATM   14  C1  UNL     1       6.921   7.626  13.792  1.00  0.00     0.025 C
HETATM   15  C23 UNL     1       4.869   8.942  15.670  1.00  0.00     0.285 C
ENDBRANCH   3   4
ENDBRANCH   1   3
BRANCH   1  16
HETATM   16  C11 UNL     1       5.380  10.668  18.768  1.00  0.00    -0.007 C
BRANCH  16  17
HETATM   17  C12 UNL     1       5.982   9.848  19.822  1.00  0.00    -0.025 C
BRANCH  17  18
HETATM   18  C13 UNL     1       7.404   9.924  20.164  1.00  0.00     0.041 C
HETATM   19  C14 UNL     1       8.089   8.558  19.920  1.00  0.00     0.010 C
ENDBRANCH  17  18
BRANCH  17  20
HETATM   20  S1  UNL     1       4.911   9.768  21.307  1.00  0.00    -0.129 SA
BRANCH  20  21
HETATM   21  C15 UNL     1       4.244   8.152  21.534  1.00  0.00     0.056 C
HETATM   22  C16 UNL     1       4.283   7.200  20.397  1.00  0.00     0.016 C
HETATM   23  C17 UNL     1       3.208   6.128  20.678  1.00  0.00     0.002 C
HETATM   24  C18 UNL     1       3.527   5.414  21.974  1.00  0.00     0.005 C
HETATM   25  C19 UNL     1       3.872   6.325  23.103  1.00  0.00    -0.014 C
HETATM   26  C20 UNL     1       2.643   6.895  23.780  1.00  0.00     0.010 C
HETATM   27  C21 UNL     1       4.857   7.414  22.735  1.00  0.00    -0.001 C
HETATM   28  C22 UNL     1       6.182   6.818  22.399  1.00  0.00     0.011 C
ENDBRANCH  20  21
ENDBRANCH  17  20
ENDBRANCH  16  17
ENDBRANCH   1  16
TORSDOF 7
ENDMDL