MODEL 2
REMARK VINA RESULT: -8.704125985      1.656      2.897
REMARK  8 active torsions:
REMARK  status: ('A' for Active; 'I' for Inactive)
REMARK    1  A    between atoms: C4_4  and  C5_5
REMARK    2  A    between atoms: C5_5  and  C6_6
REMARK    3  A    between atoms: C15_17  and  C16_18
REMARK    4  A    between atoms: C16_18  and  C18_20
REMARK    5  A    between atoms: C18_20  and  C19_21
REMARK    6  A    between atoms: C19_21  and  C20_22
REMARK    7  A    between atoms: C22_24  and  C23_25
REMARK    8  A    between atoms: C23_25  and  C24_26
ROOT
HETATM    1  C1  UNL     1       3.556   9.327  14.941  1.00  0.00     0.036 C
HETATM    2  C2  UNL     1       4.676   9.475  15.871  1.00  0.00    -0.025 C
HETATM    3  C3  UNL     1       5.122   8.619  16.796  1.00  0.00    -0.037 C
HETATM    4  C4  UNL     1       6.276   8.825  17.735  1.00  0.00     0.110 C
HETATM    5  C10 UNL     1       7.504   8.159  17.220  1.00  0.00     0.148 C
HETATM    6  O1  UNL     1       8.390   8.089  18.041  1.00  0.00    -0.296 OA
HETATM    7  C11 UNL     1       7.843   7.568  15.902  1.00  0.00     0.091 C
HETATM    8  C12 UNL     1       6.708   6.647  15.427  1.00  0.00     0.060 C
HETATM    9  C13 UNL     1       7.271   5.401  14.807  1.00  0.00     0.018 C
HETATM   10  C14 UNL     1       5.937   6.315  16.647  1.00  0.00     0.151 C
HETATM   11  O2  UNL     1       6.019   5.233  17.144  1.00  0.00    -0.296 OA
HETATM   12  C15 UNL     1       4.991   7.297  17.364  1.00  0.00     0.111 C
HETATM   13  C27 UNL     1       5.605   7.738  18.608  1.00  0.00     0.168 C
HETATM   14  O3  UNL     1       5.617   7.439  19.768  1.00  0.00    -0.295 OA
ENDROOT
BRANCH  12  15
HETATM   15  C16 UNL     1       3.695   6.543  17.506  1.00  0.00     0.010 C
HETATM   16  C17 UNL     1       3.266   6.033  16.147  1.00  0.00     0.012 C
BRANCH  15  17
HETATM   17  C18 UNL     1       2.643   7.373  18.148  1.00  0.00     0.010 C
BRANCH  17  18
HETATM   18  C19 UNL     1       1.678   6.637  18.995  1.00  0.00     0.034 C
BRANCH  18  19
HETATM   19  C20 UNL     1       2.103   5.407  19.670  1.00  0.00    -0.087 C
HETATM   20  C21 UNL     1       1.823   4.055  19.137  1.00  0.00     0.043 C
HETATM   21  C22 UNL     1       2.757   5.429  20.853  1.00  0.00    -0.024 C
BRANCH  21  22
HETATM   22  C23 UNL     1       3.129   6.617  21.612  1.00  0.00     0.031 C
BRANCH  22  23
HETATM   23  C24 UNL     1       3.805   6.270  22.934  1.00  0.00    -0.019 C
HETATM   24  C25 UNL     1       2.828   6.604  24.036  1.00  0.00     0.010 C
HETATM   25  C26 UNL     1       5.065   7.075  23.151  1.00  0.00     0.010 C
ENDBRANCH  22  23
ENDBRANCH  21  22
ENDBRANCH  18  19
ENDBRANCH  17  18
ENDBRANCH  15  17
ENDBRANCH  12  15
BRANCH   4  26
HETATM   26  C5  UNL     1       6.461  10.043  18.524  1.00  0.00     0.057 C
BRANCH  26  27
HETATM   27  C6  UNL     1       5.436  11.068  18.456  1.00  0.00    -0.023 C
HETATM   28  C7  UNL     1       4.474  11.260  19.345  1.00  0.00    -0.091 C
HETATM   29  C8  UNL     1       3.485  12.349  19.156  1.00  0.00     0.042 C
HETATM   30  C9  UNL     1       4.334  10.408  20.540  1.00  0.00     0.042 C
ENDBRANCH  26  27
ENDBRANCH   4  26
TORSDOF 8
ENDMDL