MODEL 3
REMARK VINA RESULT: -8.702408202      1.276      1.597
REMARK  10 active torsions:
REMARK  status: ('A' for Active; 'I' for Inactive)
REMARK    1  A    between atoms: C2_2  and  C3_3
REMARK    2  A    between atoms: C2_2  and  C13_13
REMARK    3  A    between atoms: C4_4  and  C5_5
REMARK    4  A    between atoms: C5_5  and  C6_6
REMARK    5  A    between atoms: C6_6  and  C8_8
REMARK    6  A    between atoms: C8_8  and  C9_9
REMARK    7  A    between atoms: C9_9  and  C10_10
REMARK    8  A    between atoms: C13_13  and  C14_14
REMARK    9  A    between atoms: C14_14  and  C15_15
REMARK   10  A    between atoms: C22_25  and  O4_26
ROOT
HETATM    1  C15 UNL     1       3.531   9.225  17.370  1.00  0.00     0.007 C
HETATM    2  C16 UNL     1       3.555  10.589  17.925  1.00  0.00     0.286 C
HETATM    3  O1  UNL     1       2.407  10.917  18.399  1.00  0.00    -0.260 OA
HETATM    4  O2  UNL     1       4.497  11.548  18.043  1.00  0.00    -0.313 OA
HETATM    5  C17 UNL     1       5.564  11.809  17.185  1.00  0.00     0.130 C
HETATM    6  C18 UNL     1       5.081  12.633  16.012  1.00  0.00     0.040 C
HETATM    7  C19 UNL     1       6.338  10.592  16.779  1.00  0.00     0.065 C
HETATM    8  C20 UNL     1       5.523   9.685  15.965  1.00  0.00     0.137 C
HETATM    9  O3  UNL     1       4.569  10.228  15.161  1.00  0.00    -0.382 OA
HETATM   10  C21 UNL     1       4.195   9.345  14.156  1.00  0.00     0.200 C
HETATM   11  C22 UNL     1       3.749   8.007  14.679  1.00  0.00     0.146 C
HETATM   12  C23 UNL     1       4.569   7.536  15.853  1.00  0.00     0.027 C
HETATM   13  C24 UNL     1       4.083   6.245  16.344  1.00  0.00     0.014 C
HETATM   14  C25 UNL     1       4.770   8.657  16.869  1.00  0.00     0.017 C
HETATM   15  C26 UNL     1       5.807   8.204  17.844  1.00  0.00     0.023 C
ENDROOT
BRANCH   1  16
HETATM   16  C14 UNL     1       2.661   8.401  18.270  1.00  0.00     0.046 C
BRANCH  16  17
HETATM   17  C13 UNL     1       1.378   7.910  17.650  1.00  0.00     0.042 C
BRANCH  17  18
HETATM   18  C2  UNL     1       0.824   6.719  18.338  1.00  0.00    -0.067 C
HETATM   19  C1  UNL     1      -0.462   6.744  18.738  1.00  0.00     0.019 C
BRANCH  18  20
HETATM   20  C3  UNL     1       1.524   5.501  18.629  1.00  0.00     0.006 C
HETATM   21  C4  UNL     1       2.134   5.077  19.671  1.00  0.00     0.001 C
BRANCH  21  22
HETATM   22  C5  UNL     1       2.382   5.616  20.972  1.00  0.00     0.006 C
BRANCH  22  23
HETATM   23  C6  UNL     1       3.307   6.363  21.459  1.00  0.00    -0.066 C
HETATM   24  C7  UNL     1       3.093   6.741  22.952  1.00  0.00     0.048 C
BRANCH  23  25
HETATM   25  C8  UNL     1       4.505   6.936  20.920  1.00  0.00    -0.020 C
BRANCH  25  26
HETATM   26  C9  UNL     1       5.187   8.096  21.506  1.00  0.00     0.031 C
BRANCH  26  27
HETATM   27  C10 UNL     1       6.662   7.656  21.754  1.00  0.00    -0.019 C
HETATM   28  C11 UNL     1       6.860   7.477  23.225  1.00  0.00     0.010 C
HETATM   29  C12 UNL     1       7.515   8.741  21.163  1.00  0.00     0.010 C
ENDBRANCH  26  27
ENDBRANCH  25  26
ENDBRANCH  23  25
ENDBRANCH  22  23
ENDBRANCH  21  22
ENDBRANCH  18  20
ENDBRANCH  17  18
ENDBRANCH  16  17
ENDBRANCH   1  16
BRANCH  11  30
HETATM   30  O4  UNL     1       3.916   7.075  13.655  1.00  0.00    -0.393 OA
ATOM     31  H4  UNL     1       4.688   7.327  13.159  1.00  0.00     0.210 HD
ENDBRANCH  11  30
TORSDOF 10
ENDMDL