MODEL 3
REMARK VINA RESULT: -8.055094727      2.064      3.624
REMARK  9 active torsions:
REMARK  status: ('A' for Active; 'I' for Inactive)
REMARK    1  A    between atoms: C2_2  and  C3_3
REMARK    2  A    between atoms: C2_2  and  C13_20
REMARK    3  A    between atoms: C3_3  and  C4_4
REMARK    4  A    between atoms: C4_4  and  C5_5
REMARK    5  A    between atoms: C5_5  and  C6_6
REMARK    6  A    between atoms: C6_6  and  N2_16
REMARK       I    between atoms: N1_7  and  C7_9
REMARK    7  A    between atoms: C7_9  and  O2_11
REMARK    8  A    between atoms: O2_11  and  C8_12
REMARK    9  A    between atoms: N2_16  and  C12_18
ROOT
HETATM    1  C3  UNL     1       6.307   7.816  20.255  1.00  0.00     0.005 C
ENDROOT
BRANCH   1   2
HETATM    2  C2  UNL     1       5.348   6.886  20.943  1.00  0.00    -0.014 C
HETATM    3  C1  UNL     1       5.380   6.962  22.425  1.00  0.00     0.010 C
BRANCH   2   4
HETATM    4  C13 UNL     1       3.980   7.196  20.435  1.00  0.00    -0.002 C
HETATM    5  C14 UNL     1       4.019   8.419  19.505  1.00  0.00     0.006 C
HETATM    6  C15 UNL     1       2.766   8.336  18.675  1.00  0.00     0.007 C
HETATM    7  C16 UNL     1       2.128   7.086  19.120  1.00  0.00     0.009 C
HETATM    8  C17 UNL     1       1.162   6.451  18.212  1.00  0.00     0.017 C
HETATM    9  C23 UNL     1       3.332   6.220  19.520  1.00  0.00    -0.035 C
HETATM   10  C18 UNL     1      -0.138   7.265  18.311  1.00  0.00     0.023 C
HETATM   11  C19 UNL     1       1.516   6.366  16.780  1.00  0.00     0.023 C
HETATM   12  C20 UNL     1       0.828   5.098  18.737  1.00  0.00     0.135 C
HETATM   13  O4  UNL     1      -0.340   4.692  18.812  1.00  0.00    -0.297 OA
HETATM   14  C21 UNL     1       1.900   4.207  19.184  1.00  0.00     0.080 C
HETATM   15  C22 UNL     1       2.894   4.928  20.110  1.00  0.00     0.017 C
HETATM   16  C24 UNL     1       4.209   5.924  18.311  1.00  0.00     0.016 C
ENDBRANCH   2   4
ENDBRANCH   1   2
BRANCH   1  17
HETATM   17  C4  UNL     1       7.177   7.191  19.233  1.00  0.00     0.008 C
BRANCH  17  18
HETATM   18  C5  UNL     1       7.836   8.198  18.288  1.00  0.00     0.076 C
BRANCH  18  19
HETATM   19  C6  UNL     1       6.979   8.279  17.085  1.00  0.00     0.087 C
HETATM   20  N1  UNL     1       5.902   9.025  17.083  1.00  0.00    -0.292 N
HETATM   21  C7  UNL     1       5.060   9.133  15.964  1.00  0.00     0.366 C
ATOM     22  H1  UNL     1       5.666   9.548  17.927  1.00  0.00     0.172 HD
HETATM   23  O1  UNL     1       4.276   8.208  15.576  1.00  0.00    -0.238 OA
BRANCH  21  24
HETATM   24  O2  UNL     1       5.056  10.297  15.217  1.00  0.00    -0.294 OA
BRANCH  24  25
HETATM   25  C8  UNL     1       4.241  11.406  15.457  1.00  0.00     0.061 C
HETATM   26  C9  UNL     1       4.979  12.719  15.291  1.00  0.00     0.046 C
HETATM   27  C10 UNL     1       3.128  11.398  14.406  1.00  0.00     0.046 C
HETATM   28  C11 UNL     1       3.570  11.394  16.800  1.00  0.00     0.046 C
ENDBRANCH  24  25
ENDBRANCH  21  24
BRANCH  19  29
HETATM   29  N2  UNL     1       7.287   7.570  15.912  1.00  0.00    -0.324 N
ATOM     30  H2  UNL     1       7.472   8.096  15.058  1.00  0.00     0.169 HD
BRANCH  29  31
HETATM   31  C12 UNL     1       7.351   6.171  15.865  1.00  0.00     0.354 C
HETATM   32  O3  UNL     1       6.388   5.492  15.502  1.00  0.00    -0.283 OA
ENDBRANCH  29  31
ENDBRANCH  19  29
ENDBRANCH  18  19
ENDBRANCH  17  18
ENDBRANCH   1  17
TORSDOF 9
ENDMDL