MODEL 5
REMARK VINA RESULT: -7.714538522      2.031      4.851
REMARK  10 active torsions:
REMARK  status: ('A' for Active; 'I' for Inactive)
REMARK    1  A    between atoms: C2_2  and  C5_5
REMARK    2  A    between atoms: C5_5  and  C6_6
REMARK    3  A    between atoms: C6_6  and  N1_7
REMARK       I    between atoms: N1_7  and  C7_9
REMARK    4  A    between atoms: C7_9  and  C8_11
REMARK    5  A    between atoms: C8_11  and  C9_12
REMARK    6  A    between atoms: C9_12  and  O2_13
REMARK    7  A    between atoms: C9_12  and  C20_24
REMARK    8  A    between atoms: O2_13  and  C10_14
REMARK    9  A    between atoms: C20_24  and  O4_26
REMARK   10  A    between atoms: O4_26  and  C21_27
ROOT
HETATM    1  C9  UNL     1       4.620   6.916  16.057  1.00  0.00     0.230 C
ENDROOT
BRANCH   1   2
HETATM    2  C8  UNL     1       6.008   6.481  15.780  1.00  0.00     0.145 C
BRANCH   2   3
HETATM    3  C7  UNL     1       6.900   6.540  16.949  1.00  0.00     0.220 C
HETATM    4  N1  UNL     1       6.995   7.725  17.721  1.00  0.00    -0.361 N
ATOM      5  H1  UNL     1       6.439   8.540  17.464  1.00  0.00     0.162 HD
HETATM    6  O1  UNL     1       7.590   5.557  17.290  1.00  0.00    -0.274 OA
BRANCH   4   7
HETATM    7  C6  UNL     1       7.864   7.789  18.857  1.00  0.00     0.123 C
BRANCH   7   8
HETATM    8  C5  UNL     1       7.241   7.416  20.168  1.00  0.00     0.028 C
BRANCH   8   9
HETATM    9  C2  UNL     1       7.002   8.626  21.048  1.00  0.00    -0.050 C
HETATM   10  C1  UNL     1       8.187   9.588  20.971  1.00  0.00     0.014 C
HETATM   11  C3  UNL     1       6.865   8.144  22.459  1.00  0.00     0.014 C
HETATM   12  C4  UNL     1       5.762   9.377  20.664  1.00  0.00     0.014 C
ENDBRANCH   8   9
ENDBRANCH   7   8
ENDBRANCH   4   7
ENDBRANCH   2   3
ENDBRANCH   1   2
BRANCH   1  13
HETATM   13  O2  UNL     1       3.597   6.071  15.933  1.00  0.00    -0.370 OA
BRANCH  13  14
HETATM   14  C10 UNL     1       2.766   5.726  16.937  1.00  0.00     0.124 C
HETATM   15  C11 UNL     1       3.651   5.806  18.197  1.00  0.00     0.040 C
HETATM   16  C12 UNL     1       2.898   5.770  19.478  1.00  0.00    -0.045 C
HETATM   17  C13 UNL     1       2.703   4.366  20.001  1.00  0.00     0.015 C
HETATM   18  C14 UNL     1       3.782   6.485  20.516  1.00  0.00     0.015 C
HETATM   19  C15 UNL     1       1.604   6.532  19.503  1.00  0.00     0.017 C
HETATM   20  C16 UNL     1       0.760   6.339  18.300  1.00  0.00    -0.045 C
HETATM   21  C17 UNL     1      -0.366   7.382  18.349  1.00  0.00     0.015 C
HETATM   22  C18 UNL     1       0.086   5.000  18.224  1.00  0.00     0.015 C
HETATM   23  C19 UNL     1       1.596   6.660  17.091  1.00  0.00     0.040 C
ENDBRANCH  13  14
ENDBRANCH   1  13
BRANCH   1  24
HETATM   24  C20 UNL     1       4.332   8.236  15.372  1.00  0.00     0.289 C
HETATM   25  O3  UNL     1       3.445   8.249  14.492  1.00  0.00    -0.262 OA
BRANCH  24  26
HETATM   26  O4  UNL     1       5.000   9.387  15.680  1.00  0.00    -0.309 OA
BRANCH  26  27
HETATM   27  C21 UNL     1       4.544  10.370  16.571  1.00  0.00     0.060 C
HETATM   28  C22 UNL     1       5.760  10.979  17.243  1.00  0.00     0.045 C
HETATM   29  C23 UNL     1       3.817  11.424  15.732  1.00  0.00     0.045 C
HETATM   30  C24 UNL     1       3.587   9.866  17.601  1.00  0.00     0.045 C
ENDBRANCH  26  27
ENDBRANCH  24  26
ENDBRANCH   1  24
TORSDOF 10
ENDMDL