MODEL 1
REMARK VINA RESULT: -8.023433875      0.000      0.000
REMARK  8 active torsions:
REMARK  status: ('A' for Active; 'I' for Inactive)
REMARK    1  A    between atoms: C2_2  and  O1_3
REMARK    2  A    between atoms: O1_3  and  C3_4
REMARK       I    between atoms: C3_4  and  N1_6
REMARK    3  A    between atoms: N1_6  and  C4_8
REMARK    4  A    between atoms: C13_17  and  O3_18
REMARK    5  A    between atoms: O3_18  and  C14_19
REMARK    6  A    between atoms: C14_19  and  C15_20
REMARK    7  A    between atoms: C14_19  and  C17_22
REMARK    8  A    between atoms: C17_22  and  C18_23
ROOT
HETATM    1  C4  UNL     1       5.762   7.168  16.075  1.00  0.00     0.060 C
HETATM    2  C5  UNL     1       6.960   6.500  15.367  1.00  0.00     0.041 C
HETATM    3  C6  UNL     1       4.729   6.110  16.215  1.00  0.00     0.037 C
HETATM    4  C7  UNL     1       3.338   6.573  16.520  1.00  0.00     0.030 C
HETATM    5  C8  UNL     1       2.722   5.703  17.569  1.00  0.00    -0.024 C
HETATM    6  C9  UNL     1       2.722   5.927  18.854  1.00  0.00    -0.087 C
HETATM    7  C10 UNL     1       2.046   4.934  19.772  1.00  0.00     0.043 C
HETATM    8  C11 UNL     1       3.354   7.125  19.526  1.00  0.00     0.036 C
HETATM    9  C12 UNL     1       4.676   6.680  20.001  1.00  0.00     0.037 C
HETATM   10  C13 UNL     1       5.686   7.729  20.377  1.00  0.00     0.128 C
HETATM   11  C21 UNL     1       5.720   8.914  19.501  1.00  0.00     0.042 C
HETATM   12  C22 UNL     1       4.635   9.927  19.904  1.00  0.00     0.015 C
HETATM   13  C23 UNL     1       5.636   8.628  18.025  1.00  0.00     0.159 A
HETATM   14  O4  UNL     1       6.868   8.972  17.250  1.00  0.00    -0.372 OA
HETATM   15  C24 UNL     1       6.310   7.636  17.410  1.00  0.00     0.179 A
ENDROOT
BRANCH   1  16
HETATM   16  N1  UNL     1       5.351   8.255  15.238  1.00  0.00    -0.325 N
HETATM   17  C3  UNL     1       5.201   8.156  13.848  1.00  0.00     0.361 C
HETATM   18  O2  UNL     1       5.428   7.081  13.261  1.00  0.00    -0.238 OA
ATOM     19  H1  UNL     1       5.157   9.154  15.680  1.00  0.00     0.165 HD
BRANCH  17  20
HETATM   20  O1  UNL     1       4.798   9.250  13.111  1.00  0.00    -0.304 OA
BRANCH  20  21
HETATM   21  C2  UNL     1       3.453   9.676  13.227  1.00  0.00     0.176 C
HETATM   22  C1  UNL     1       3.430  10.820  14.220  1.00  0.00     0.034 C
ENDBRANCH  20  21
ENDBRANCH  17  20
ENDBRANCH   1  16
BRANCH  10  23
HETATM   23  O3  UNL     1       5.569   7.992  21.710  1.00  0.00    -0.380 OA
BRANCH  23  24
HETATM   24  C14 UNL     1       5.831   6.878  22.566  1.00  0.00     0.122 C
BRANCH  24  25
HETATM   25  C15 UNL     1       7.272   6.934  22.912  1.00  0.00     0.027 C
HETATM   26  C16 UNL     1       7.588   7.659  24.223  1.00  0.00     0.007 C
ENDBRANCH  24  25
BRANCH  24  27
HETATM   27  C17 UNL     1       4.966   7.018  23.771  1.00  0.00     0.035 C
BRANCH  27  28
HETATM   28  C18 UNL     1       3.687   6.296  23.815  1.00  0.00    -0.020 C
HETATM   29  C19 UNL     1       3.052   5.962  25.124  1.00  0.00     0.009 C
HETATM   30  C20 UNL     1       2.593   7.098  23.044  1.00  0.00     0.009 C
ENDBRANCH  27  28
ENDBRANCH  24  27
ENDBRANCH  23  24
ENDBRANCH  10  23
TORSDOF 8
ENDMDL