MODEL 5
REMARK VINA RESULT: -8.056274609      2.638      6.453
REMARK  10 active torsions:
REMARK  status: ('A' for Active; 'I' for Inactive)
REMARK    1  A    between atoms: C9_9  and  O1_10
REMARK    2  A    between atoms: C14_16  and  C15_17
REMARK    3  A    between atoms: C15_17  and  C16_19
REMARK    4  A    between atoms: C16_19  and  O3_20
REMARK    5  A    between atoms: O3_20  and  C17_21
REMARK    6  A    between atoms: C17_21  and  C18_23
REMARK    7  A    between atoms: C19_24  and  C20_25
REMARK    8  A    between atoms: C20_25  and  C21_26
REMARK    9  A    between atoms: C21_26  and  C22_27
REMARK   10  A    between atoms: C22_27  and  C23_28
ROOT
HETATM    1  C1  UNL     1       7.115   6.573  20.991  1.00  0.00     0.014 C
HETATM    2  C2  UNL     1       6.313   7.635  21.046  1.00  0.00    -0.085 C
HETATM    3  C3  UNL     1       5.248   7.861  22.052  1.00  0.00     0.034 C
HETATM    4  C4  UNL     1       4.298   8.828  21.438  1.00  0.00     0.010 C
HETATM    5  C5  UNL     1       4.803   9.079  20.000  1.00  0.00     0.002 C
HETATM    6  C6  UNL     1       6.277   8.821  20.148  1.00  0.00     0.018 C
HETATM    7  C7  UNL     1       7.065   9.917  20.740  1.00  0.00     0.012 C
HETATM    8  C8  UNL     1       6.480  11.272  20.608  1.00  0.00     0.039 C
HETATM    9  C9  UNL     1       5.519  11.446  19.458  1.00  0.00     0.062 C
HETATM   10  C10 UNL     1       6.273  11.524  18.175  1.00  0.00     0.039 C
HETATM   11  C11 UNL     1       5.366  11.718  16.973  1.00  0.00     0.013 C
HETATM   12  C12 UNL     1       4.326  10.671  16.949  1.00  0.00    -0.026 C
HETATM   13  C13 UNL     1       4.956   9.381  16.472  1.00  0.00     0.016 C
HETATM   14  C14 UNL     1       3.144  10.929  16.057  1.00  0.00     0.066 C
HETATM   15  C25 UNL     1       2.212   9.813  16.504  1.00  0.00     0.014 C
HETATM   16  C26 UNL     1       2.658   9.418  17.923  1.00  0.00     0.011 C
HETATM   17  C27 UNL     1       3.606  10.515  18.265  1.00  0.00    -0.029 C
HETATM   18  C28 UNL     1       2.717  11.764  18.419  1.00  0.00     0.016 C
HETATM   19  C29 UNL     1       4.408  10.410  19.483  1.00  0.00     0.034 C
ENDROOT
BRANCH  14  20
HETATM   20  C15 UNL     1       3.427  10.887  14.612  1.00  0.00     0.155 C
HETATM   21  O2  UNL     1       4.331  11.551  14.155  1.00  0.00    -0.295 OA
BRANCH  20  22
HETATM   22  C16 UNL     1       2.616  10.041  13.721  1.00  0.00     0.257 C
BRANCH  22  23
HETATM   23  O3  UNL     1       3.434   9.147  13.025  1.00  0.00    -0.311 OA
BRANCH  23  24
HETATM   24  C17 UNL     1       3.549   7.784  13.422  1.00  0.00     0.282 C
HETATM   25  O4  UNL     1       4.623   7.262  13.101  1.00  0.00    -0.260 OA
BRANCH  24  26
HETATM   26  C18 UNL     1       2.458   7.154  14.131  1.00  0.00     0.078 C
HETATM   27  C19 UNL     1       2.599   6.453  15.211  1.00  0.00    -0.021 C
BRANCH  27  28
HETATM   28  C20 UNL     1       3.806   6.132  15.953  1.00  0.00     0.027 C
BRANCH  28  29
HETATM   29  C21 UNL     1       3.503   5.938  17.447  1.00  0.00     0.004 C
BRANCH  29  30
HETATM   30  C22 UNL     1       4.792   5.955  18.216  1.00  0.00    -0.000 C
BRANCH  30  31
HETATM   31  C23 UNL     1       5.980   5.523  17.394  1.00  0.00    -0.005 C
HETATM   32  C24 UNL     1       7.042   6.611  17.431  1.00  0.00     0.005 C
ENDBRANCH  30  31
ENDBRANCH  29  30
ENDBRANCH  28  29
ENDBRANCH  27  28
ENDBRANCH  24  26
ENDBRANCH  23  24
ENDBRANCH  22  23
ENDBRANCH  20  22
ENDBRANCH  14  20
BRANCH   9  33
HETATM   33  O1  UNL     1       4.976  12.742  19.666  1.00  0.00    -0.389 OA
ATOM     34  H1  UNL     1       4.661  12.714  20.561  1.00  0.00     0.210 HD
ENDBRANCH   9  33
TORSDOF 10
ENDMDL