MODEL 2
REMARK VINA RESULT: -5.827681458      2.672      4.032
REMARK  10 active torsions:
REMARK  status: ('A' for Active; 'I' for Inactive)
REMARK    1  A    between atoms: C2_2  and  C3_3
REMARK    2  A    between atoms: C3_3  and  C4_4
REMARK    3  A    between atoms: C4_4  and  C5_5
REMARK    4  A    between atoms: C5_5  and  O1_6
REMARK    5  A    between atoms: C5_5  and  C6_8
REMARK    6  A    between atoms: C5_5  and  C28_34
REMARK    7  A    between atoms: C7_9  and  C8_10
REMARK    8  A    between atoms: C13_15  and  C14_16
REMARK    9  A    between atoms: C15_17  and  C16_18
REMARK   10  A    between atoms: C26_30  and  O4_31
ROOT
HETATM    1  C14 UNL     1       3.188  10.331  17.873  1.00  0.00    -0.021 C
HETATM    2  C15 UNL     1       4.367  10.330  18.413  1.00  0.00    -0.001 C
ENDROOT
BRANCH   1   3
HETATM    3  C13 UNL     1       2.509  11.518  17.277  1.00  0.00     0.016 C
HETATM    4  C8  UNL     1       3.232  12.802  17.401  1.00  0.00     0.015 C
HETATM    5  C9  UNL     1       4.137  13.158  16.261  1.00  0.00     0.009 C
HETATM    6  C10 UNL     1       3.554  12.828  14.908  1.00  0.00     0.001 C
HETATM    7  C11 UNL     1       3.070  11.402  14.828  1.00  0.00     0.001 C
HETATM    8  C12 UNL     1       2.022  11.211  15.872  1.00  0.00     0.009 C
BRANCH   4   9
HETATM    9  C7  UNL     1       2.146  13.883  17.370  1.00  0.00    -0.022 C
HETATM   10  C6  UNL     1       1.737  14.439  18.460  1.00  0.00     0.011 C
BRANCH  10  11
HETATM   11  C5  UNL     1       0.603  15.549  18.293  1.00  0.00     0.093 C
BRANCH  11  12
HETATM   12  C4  UNL     1      -0.346  15.170  19.321  1.00  0.00     0.011 C
BRANCH  12  13
HETATM   13  C3  UNL     1      -1.623  15.788  19.620  1.00  0.00    -0.028 C
BRANCH  13  14
HETATM   14  C2  UNL     1      -2.368  15.568  20.848  1.00  0.00     0.022 C
HETATM   15  C1  UNL     1      -1.958  14.415  21.669  1.00  0.00     0.009 C
ENDBRANCH  13  14
ENDBRANCH  12  13
ENDBRANCH  11  12
BRANCH  11  16
HETATM   16  O1  UNL     1       0.212  15.382  16.966  1.00  0.00    -0.382 OA
ATOM     17  H1  UNL     1       0.853  15.024  16.363  1.00  0.00     0.211 HD
ENDBRANCH  11  16
BRANCH  11  18
HETATM   18  C28 UNL     1       1.370  16.796  18.497  1.00  0.00     0.042 C
HETATM   19  C29 UNL     1       0.497  18.031  18.234  1.00  0.00     0.009 C
ENDBRANCH  11  18
ENDBRANCH  10  11
ENDBRANCH   4   9
ENDBRANCH   1   3
BRANCH   2  20
HETATM   20  C16 UNL     1       5.047   9.194  19.002  1.00  0.00    -0.072 C
HETATM   21  C17 UNL     1       6.281   8.690  18.280  1.00  0.00     0.034 C
HETATM   22  C18 UNL     1       6.346   7.191  18.507  1.00  0.00     0.005 C
HETATM   23  C19 UNL     1       6.039   6.723  19.874  1.00  0.00     0.014 C
HETATM   24  C20 UNL     1       5.041   7.477  20.681  1.00  0.00    -0.016 C
HETATM   25  C21 UNL     1       3.661   7.025  20.145  1.00  0.00     0.020 C
HETATM   26  C22 UNL     1       5.043   7.053  22.080  1.00  0.00    -0.011 C
HETATM   27  C27 UNL     1       5.070   8.975  20.460  1.00  0.00     0.057 C
HETATM   28  C23 UNL     1       5.820   7.125  23.137  1.00  0.00     0.079 C
HETATM   29  C24 UNL     1       7.139   7.734  23.329  1.00  0.00     0.282 C
HETATM   30  O2  UNL     1       7.754   7.215  24.273  1.00  0.00    -0.260 OA
HETATM   31  O3  UNL     1       7.811   8.772  22.653  1.00  0.00    -0.316 OA
HETATM   32  C25 UNL     1       7.482   9.297  21.343  1.00  0.00     0.211 C
HETATM   33  C26 UNL     1       6.088   9.697  21.248  1.00  0.00     0.151 C
BRANCH  33  34
HETATM   34  O4  UNL     1       6.076  11.056  20.846  1.00  0.00    -0.393 OA
ATOM     35  H4  UNL     1       6.788  11.485  21.305  1.00  0.00     0.210 HD
ENDBRANCH  33  34
ENDBRANCH   2  20
TORSDOF 10
ENDMDL