MODEL 3
REMARK VINA RESULT: -8.444358937      2.258      6.974
REMARK  11 active torsions:
REMARK  status: ('A' for Active; 'I' for Inactive)
REMARK    1  A    between atoms: C2_2  and  O2_4
REMARK    2  A    between atoms: O2_4  and  C3_5
REMARK    3  A    between atoms: C9_11  and  O3_12
REMARK    4  A    between atoms: C17_21  and  C18_22
REMARK    5  A    between atoms: C18_22  and  C19_23
REMARK    6  A    between atoms: C19_23  and  C20_24
REMARK    7  A    between atoms: C20_24  and  C21_25
REMARK    8  A    between atoms: C21_25  and  C22_26
REMARK    9  A    between atoms: C22_26  and  C23_27
REMARK   10  A    between atoms: C23_27  and  C24_28
REMARK   11  A    between atoms: C24_28  and  O4_29
ROOT
HETATM    1  C3  UNL     1       3.693   7.139  19.235  1.00  0.00     0.137 C
HETATM    2  C4  UNL     1       3.672   8.388  20.101  1.00  0.00     0.042 C
HETATM    3  C5  UNL     1       4.850   8.500  21.056  1.00  0.00    -0.037 C
HETATM    4  C6  UNL     1       4.925  10.016  21.354  1.00  0.00     0.015 C
HETATM    5  C7  UNL     1       4.479   7.852  22.336  1.00  0.00     0.012 C
HETATM    6  C8  UNL     1       5.264   6.700  22.816  1.00  0.00     0.032 C
HETATM    7  C9  UNL     1       6.722   6.959  22.563  1.00  0.00     0.118 C
HETATM    8  C10 UNL     1       6.852   6.958  21.052  1.00  0.00     0.037 C
HETATM    9  C11 UNL     1       6.139   8.120  20.426  1.00  0.00     0.001 C
HETATM   10  C12 UNL     1       6.059   7.874  18.932  1.00  0.00    -0.002 C
HETATM   11  C13 UNL     1       6.066   9.141  18.148  1.00  0.00     0.006 C
HETATM   12  C14 UNL     1       5.253   9.149  16.908  1.00  0.00     0.011 C
HETATM   13  C15 UNL     1       5.261   7.792  16.198  1.00  0.00    -0.033 C
HETATM   14  C16 UNL     1       6.609   7.756  15.508  1.00  0.00     0.016 C
HETATM   15  C17 UNL     1       4.103   7.905  15.194  1.00  0.00    -0.006 C
HETATM   16  C25 UNL     1       3.436   6.573  15.218  1.00  0.00     0.006 C
HETATM   17  C26 UNL     1       3.835   5.901  16.524  1.00  0.00     0.011 C
HETATM   18  C27 UNL     1       5.003   6.639  17.090  1.00  0.00    -0.030 C
HETATM   19  C28 UNL     1       6.190   5.661  16.847  1.00  0.00     0.016 C
HETATM   20  C29 UNL     1       4.977   6.891  18.555  1.00  0.00     0.029 C
ENDROOT
BRANCH  15  21
HETATM   21  C18 UNL     1       4.568   8.304  13.864  1.00  0.00     0.005 C
BRANCH  21  22
HETATM   22  C19 UNL     1       4.165   9.575  13.249  1.00  0.00     0.000 C
BRANCH  22  23
HETATM   23  C20 UNL     1       2.740   9.972  13.367  1.00  0.00     0.000 C
BRANCH  23  24
HETATM   24  C21 UNL     1       2.630  11.309  14.146  1.00  0.00     0.000 C
BRANCH  24  25
HETATM   25  C22 UNL     1       3.983  11.914  14.362  1.00  0.00     0.002 C
BRANCH  25  26
HETATM   26  C23 UNL     1       4.117  12.670  15.664  1.00  0.00     0.026 C
BRANCH  26  27
HETATM   27  C24 UNL     1       2.813  13.438  15.889  1.00  0.00     0.164 C
BRANCH  27  28
HETATM   28  O4  UNL     1       2.482  13.463  17.235  1.00  0.00    -0.401 OA
ATOM     29  H4  UNL     1       2.192  14.330  17.494  1.00  0.00     0.209 HD
ENDBRANCH  27  28
ENDBRANCH  26  27
ENDBRANCH  25  26
ENDBRANCH  24  25
ENDBRANCH  23  24
ENDBRANCH  22  23
ENDBRANCH  21  22
ENDBRANCH  15  21
BRANCH   1  30
HETATM   30  O2  UNL     1       3.288   6.102  20.122  1.00  0.00    -0.316 OA
BRANCH  30  31
HETATM   31  C2  UNL     1       2.367   5.158  19.743  1.00  0.00     0.255 C
HETATM   32  C1  UNL     1       1.202   5.608  18.906  1.00  0.00     0.126 C
HETATM   33  O1  UNL     1       2.438   3.944  20.054  1.00  0.00    -0.266 OA
ENDBRANCH  30  31
ENDBRANCH   1  30
BRANCH   7  34
HETATM   34  O3  UNL     1       7.187   8.114  23.145  1.00  0.00    -0.396 OA
ATOM     35  H3  UNL     1       7.033   8.893  22.623  1.00  0.00     0.210 HD
ENDBRANCH   7  34
TORSDOF 11
ENDMDL