MODEL 1
REMARK VINA RESULT: -8.143117968      0.000      0.000
REMARK  12 active torsions:
REMARK  status: ('A' for Active; 'I' for Inactive)
REMARK    1  A    between atoms: C2_2  and  C3_3
REMARK    2  A    between atoms: C3_3  and  C4_4
REMARK    3  A    between atoms: C9_9  and  C10_10
REMARK    4  A    between atoms: C11_11  and  C12_12
REMARK    5  A    between atoms: C12_12  and  C13_13
REMARK    6  A    between atoms: C13_13  and  C15_15
REMARK    7  A    between atoms: C15_15  and  C16_16
REMARK    8  A    between atoms: C16_16  and  C17_17
REMARK    9  A    between atoms: C20_20  and  O1_21
REMARK   10  A    between atoms: C20_20  and  C21_23
REMARK   11  A    between atoms: C21_23  and  C22_24
REMARK   12  A    between atoms: C28_30  and  O2_31
ROOT
HETATM    1  C17 UNL     1       1.605   6.845  16.722  1.00  0.00     0.017 C
HETATM    2  C18 UNL     1       1.533   8.218  17.150  1.00  0.00    -0.035 C
HETATM    3  C19 UNL     1       0.431   8.678  17.921  1.00  0.00     0.048 C
HETATM    4  C20 UNL     1       2.715   9.001  16.690  1.00  0.00     0.091 C
HETATM    5  C26 UNL     1       2.908   8.669  15.237  1.00  0.00     0.057 C
HETATM    6  C27 UNL     1       3.635   9.691  14.427  1.00  0.00     0.016 C
HETATM    7  C28 UNL     1       3.336   7.263  14.922  1.00  0.00     0.199 C
HETATM    8  C29 UNL     1       2.783   6.414  16.052  1.00  0.00     0.188 C
HETATM    9  O3  UNL     1       3.331   5.371  16.396  1.00  0.00    -0.289 OA
ENDROOT
BRANCH   1  10
HETATM   10  C16 UNL     1       0.511   6.119  17.141  1.00  0.00     0.017 C
BRANCH  10  11
HETATM   11  C15 UNL     1       0.587   4.814  17.728  1.00  0.00     0.016 C
BRANCH  11  12
HETATM   12  C13 UNL     1       1.313   4.899  18.834  1.00  0.00    -0.017 C
HETATM   13  C14 UNL     1       1.799   3.116  18.721  1.00  0.00     0.057 C
BRANCH  12  14
HETATM   14  C12 UNL     1       1.980   4.977  19.851  1.00  0.00    -0.122 C
BRANCH  14  15
HETATM   15  C11 UNL     1       2.927   5.301  20.862  1.00  0.00     0.054 C
HETATM   16  C10 UNL     1       3.769   6.308  20.405  1.00  0.00     0.014 C
BRANCH  16  17
HETATM   17  C9  UNL     1       4.861   6.940  21.062  1.00  0.00     0.155 C
HETATM   18  C7  UNL     1       4.466   8.014  22.018  1.00  0.00     0.018 C
HETATM   19  C6  UNL     1       5.474   9.120  22.162  1.00  0.00     0.036 C
HETATM   20  C8  UNL     1       4.254   7.353  23.374  1.00  0.00     0.013 C
HETATM   21  C5  UNL     1       6.724   8.952  21.413  1.00  0.00     0.006 C
HETATM   22  C4  UNL     1       6.875   8.160  20.382  1.00  0.00     0.043 C
HETATM   23  O4  UNL     1       5.734   7.434  20.029  1.00  0.00    -0.346 OA
BRANCH  22  24
HETATM   24  C3  UNL     1       8.068   7.934  19.557  1.00  0.00     0.064 C
BRANCH  24  25
HETATM   25  C2  UNL     1       7.900   7.062  18.362  1.00  0.00     0.002 C
HETATM   26  C1  UNL     1       7.485   7.845  17.150  1.00  0.00     0.005 C
ENDBRANCH  24  25
ENDBRANCH  22  24
ENDBRANCH  16  17
ENDBRANCH  14  15
ENDBRANCH  12  14
ENDBRANCH  11  12
ENDBRANCH  10  11
ENDBRANCH   1  10
BRANCH   4  27
HETATM   27  O1  UNL     1       2.383  10.374  16.722  1.00  0.00    -0.384 OA
ATOM     28  H1  UNL     1       3.117  10.869  16.375  1.00  0.00     0.211 HD
ENDBRANCH   4  27
BRANCH   4  29
HETATM   29  C21 UNL     1       3.842   8.803  17.623  1.00  0.00     0.070 C
BRANCH  29  30
HETATM   30  C22 UNL     1       3.992   9.887  18.621  1.00  0.00    -0.021 C
HETATM   31  C23 UNL     1       4.901  10.838  18.612  1.00  0.00    -0.091 C
HETATM   32  C24 UNL     1       4.906  11.853  19.719  1.00  0.00     0.042 C
HETATM   33  C25 UNL     1       5.953  11.028  17.566  1.00  0.00     0.042 C
ENDBRANCH  29  30
ENDBRANCH   4  29
BRANCH   7  34
HETATM   34  O2  UNL     1       2.661   6.862  13.751  1.00  0.00    -0.387 OA
ATOM     35  H2  UNL     1       2.649   5.912  13.736  1.00  0.00     0.210 HD
ENDBRANCH   7  34
TORSDOF 12
ENDMDL