MODEL 1
REMARK VINA RESULT: -8.717768223      0.000      0.000
REMARK  12 active torsions:
REMARK  status: ('A' for Active; 'I' for Inactive)
REMARK    1  A    between atoms: C2_2  and  O2_4
REMARK    2  A    between atoms: O2_4  and  C3_5
REMARK    3  A    between atoms: C7_9  and  O3_10
REMARK    4  A    between atoms: C11_15  and  C12_16
REMARK    5  A    between atoms: C12_16  and  C13_17
REMARK    6  A    between atoms: C13_17  and  C14_18
REMARK    7  A    between atoms: C14_18  and  C15_20
REMARK    8  A    between atoms: C15_20  and  C16_21
REMARK    9  A    between atoms: C16_21  and  C17_22
REMARK   10  A    between atoms: C17_22  and  C18_23
REMARK   11  A    between atoms: C18_23  and  N1_25
REMARK   12  A    between atoms: N1_25  and  C20_27
ROOT
HETATM    1  C3  UNL     1       4.686   7.194  21.325  1.00  0.00     0.137 C
HETATM    2  C4  UNL     1       5.699   8.255  21.528  1.00  0.00     0.045 C
HETATM    3  C5  UNL     1       6.155   8.951  20.292  1.00  0.00    -0.011 C
HETATM    4  C6  UNL     1       7.618   8.776  20.091  1.00  0.00     0.018 C
HETATM    5  C7  UNL     1       5.901  10.454  20.342  1.00  0.00     0.126 C
HETATM    6  C8  UNL     1       5.831  10.811  18.875  1.00  0.00     0.033 C
HETATM    7  C9  UNL     1       5.737   9.510  18.088  1.00  0.00     0.009 C
HETATM    8  C10 UNL     1       5.261   8.592  19.176  1.00  0.00     0.005 C
HETATM    9  C11 UNL     1       5.033   7.194  18.825  1.00  0.00    -0.030 C
HETATM   10  C24 UNL     1       3.783   7.179  17.928  1.00  0.00     0.010 C
HETATM   11  C25 UNL     1       2.534   7.636  18.589  1.00  0.00     0.001 C
HETATM   12  C26 UNL     1       2.214   6.736  19.765  1.00  0.00     0.001 C
HETATM   13  C27 UNL     1       3.320   5.763  19.963  1.00  0.00     0.008 C
HETATM   14  C28 UNL     1       4.707   6.429  20.058  1.00  0.00     0.024 C
ENDROOT
BRANCH   9  15
HETATM   15  C12 UNL     1       6.097   6.543  17.945  1.00  0.00     0.018 C
BRANCH  15  16
HETATM   16  C13 UNL     1       5.524   5.671  16.907  1.00  0.00     0.079 C
BRANCH  16  17
HETATM   17  C14 UNL     1       6.408   5.662  15.682  1.00  0.00     0.127 C
HETATM   18  O4  UNL     1       6.869   4.694  15.167  1.00  0.00    -0.298 OA
BRANCH  17  19
HETATM   19  C15 UNL     1       6.686   7.041  15.133  1.00  0.00     0.082 C
BRANCH  19  20
HETATM   20  C16 UNL     1       5.791   7.519  14.078  1.00  0.00     0.037 C
BRANCH  20  21
HETATM   21  C17 UNL     1       4.739   8.421  14.580  1.00  0.00     0.002 C
BRANCH  21  22
HETATM   22  C18 UNL     1       3.779   9.003  13.844  1.00  0.00     0.015 C
HETATM   23  C19 UNL     1       2.726   8.575  13.020  1.00  0.00     0.042 C
BRANCH  22  24
HETATM   24  N1  UNL     1       3.921  10.484  13.938  1.00  0.00    -0.383 N
ATOM     25  H1  UNL     1       4.569  10.963  13.313  1.00  0.00     0.160 HD
BRANCH  24  26
HETATM   26  C20 UNL     1       3.180  11.236  14.874  1.00  0.00     0.019 C
HETATM   27  C21 UNL     1       2.554  10.498  16.007  1.00  0.00     0.037 C
HETATM   28  C22 UNL     1       2.064  11.967  14.119  1.00  0.00     0.037 C
HETATM   29  C23 UNL     1       4.120  12.280  15.486  1.00  0.00     0.037 C
ENDBRANCH  24  26
ENDBRANCH  22  24
ENDBRANCH  21  22
ENDBRANCH  20  21
ENDBRANCH  19  20
ENDBRANCH  17  19
ENDBRANCH  16  17
ENDBRANCH  15  16
ENDBRANCH   9  15
BRANCH   1  30
HETATM   30  O2  UNL     1       4.838   6.273  22.422  1.00  0.00    -0.316 OA
BRANCH  30  31
HETATM   31  C2  UNL     1       4.454   6.629  23.728  1.00  0.00     0.255 C
HETATM   32  C1  UNL     1       2.983   6.644  23.979  1.00  0.00     0.126 C
HETATM   33  O1  UNL     1       5.335   6.892  24.545  1.00  0.00    -0.266 OA
ENDBRANCH  30  31
ENDBRANCH   1  30
BRANCH   5  34
HETATM   34  O3  UNL     1       6.930  11.148  20.992  1.00  0.00    -0.395 OA
ATOM     35  H3  UNL     1       7.051  12.025  20.645  1.00  0.00     0.210 HD
ENDBRANCH   5  34
TORSDOF 12
ENDMDL