MODEL 2
REMARK VINA RESULT: -8.603135913      1.996      3.325
REMARK  12 active torsions:
REMARK  status: ('A' for Active; 'I' for Inactive)
REMARK    1  A    between atoms: C4_4  and  C5_5
REMARK    2  A    between atoms: C5_5  and  C6_6
REMARK    3  A    between atoms: C9_9  and  O1_10
REMARK    4  A    between atoms: C11_13  and  C13_15
REMARK    5  A    between atoms: C13_15  and  O2_16
REMARK    6  A    between atoms: C13_15  and  C14_18
REMARK    7  A    between atoms: C14_18  and  C15_19
REMARK    8  A    between atoms: C16_20  and  C18_22
REMARK    9  A    between atoms: C18_22  and  C19_23
REMARK   10  A    between atoms: C20_24  and  C21_25
REMARK   11  A    between atoms: C21_25  and  O3_28
REMARK   12  A    between atoms: O3_28  and  C24_29
ROOT
HETATM    1  C14 UNL     1       1.966   6.367  17.540  1.00  0.00     0.059 C
ENDROOT
BRANCH   1   2
HETATM    2  C13 UNL     1       2.160   7.035  18.851  1.00  0.00     0.130 C
BRANCH   2   3
HETATM    3  C11 UNL     1       3.353   6.360  19.609  1.00  0.00    -0.011 C
HETATM    4  C6  UNL     1       4.367   7.426  19.888  1.00  0.00     0.006 C
HETATM    5  C7  UNL     1       4.080   7.804  21.280  1.00  0.00     0.015 C
HETATM    6  C8  UNL     1       5.029   8.643  22.030  1.00  0.00     0.013 C
HETATM    7  C9  UNL     1       3.709   6.523  21.999  1.00  0.00     0.123 C
HETATM    8  C10 UNL     1       2.831   5.855  20.939  1.00  0.00     0.044 C
HETATM    9  C12 UNL     1       3.809   5.236  18.751  1.00  0.00     0.018 C
BRANCH   4  10
HETATM   10  C5  UNL     1       5.727   6.968  19.526  1.00  0.00     0.033 C
BRANCH  10  11
HETATM   11  C4  UNL     1       6.412   7.696  18.452  1.00  0.00    -0.024 C
HETATM   12  C2  UNL     1       7.039   7.093  17.472  1.00  0.00    -0.091 C
HETATM   13  C1  UNL     1       7.153   5.636  17.295  1.00  0.00     0.042 C
HETATM   14  C3  UNL     1       7.716   7.945  16.426  1.00  0.00     0.042 C
ENDBRANCH  10  11
ENDBRANCH   4  10
BRANCH   7  15
HETATM   15  O1  UNL     1       4.772   5.740  22.361  1.00  0.00    -0.395 OA
ATOM     16  H1  UNL     1       5.146   5.946  23.210  1.00  0.00     0.210 HD
ENDBRANCH   7  15
ENDBRANCH   2   3
BRANCH   2  17
HETATM   17  O2  UNL     1       2.646   8.346  18.603  1.00  0.00    -0.395 OA
ATOM     18  H2  UNL     1       1.856   8.825  18.381  1.00  0.00     0.210 HD
ENDBRANCH   2  17
ENDBRANCH   1   2
BRANCH   1  19
HETATM   19  C15 UNL     1       2.048   7.134  16.311  1.00  0.00    -0.022 C
HETATM   20  C16 UNL     1       2.952   7.343  15.407  1.00  0.00    -0.084 C
HETATM   21  C17 UNL     1       4.323   6.824  15.320  1.00  0.00     0.043 C
BRANCH  20  22
HETATM   22  C18 UNL     1       2.562   8.256  14.236  1.00  0.00     0.060 C
BRANCH  22  23
HETATM   23  C19 UNL     1       3.717   8.940  13.658  1.00  0.00    -0.024 C
HETATM   24  C20 UNL     1       4.003  10.189  13.743  1.00  0.00     0.007 C
BRANCH  24  25
HETATM   25  C21 UNL     1       3.243  11.228  14.435  1.00  0.00     0.079 C
HETATM   26  C22 UNL     1       4.059  12.510  14.606  1.00  0.00     0.051 C
HETATM   27  C23 UNL     1       1.953  11.618  13.745  1.00  0.00     0.051 C
BRANCH  25  28
HETATM   28  O3  UNL     1       2.824  10.799  15.736  1.00  0.00    -0.325 OA
BRANCH  28  29
HETATM   29  C24 UNL     1       3.465  11.138  16.880  1.00  0.00     0.115 C
HETATM   30  N1  UNL     1       2.819  11.869  17.700  1.00  0.00    -0.374 N
HETATM   31  C25 UNL     1       3.256  12.384  18.998  1.00  0.00     0.121 C
ATOM     32  H1  UNL     1       1.875  12.129  17.413  1.00  0.00     0.161 HD
HETATM   33  C26 UNL     1       4.039  11.322  19.744  1.00  0.00     0.020 C
HETATM   34  C27 UNL     1       5.462  11.216  19.297  1.00  0.00     0.002 C
HETATM   35  C28 UNL     1       5.652  11.551  17.838  1.00  0.00     0.008 C
HETATM   36  C29 UNL     1       4.848  10.599  17.015  1.00  0.00     0.084 C
ENDBRANCH  28  29
ENDBRANCH  25  28
ENDBRANCH  24  25
ENDBRANCH  22  23
ENDBRANCH  20  22
ENDBRANCH   1  19
TORSDOF 12
ENDMDL