MODEL 3
REMARK VINA RESULT: -8.668885568      1.203      1.465
REMARK  11 active torsions:
REMARK  status: ('A' for Active; 'I' for Inactive)
REMARK    1  A    between atoms: C2_2  and  C3_3
REMARK    2  A    between atoms: C3_3  and  C4_4
REMARK    3  A    between atoms: C4_4  and  C5_5
REMARK    4  A    between atoms: C4_4  and  C7_7
REMARK    5  A    between atoms: C7_7  and  C8_8
REMARK    6  A    between atoms: C8_8  and  O1_10
REMARK    7  A    between atoms: O1_10  and  C10_11
REMARK    8  A    between atoms: C13_14  and  O2_15
REMARK    9  A    between atoms: C22_25  and  O3_26
REMARK   10  A    between atoms: C25_30  and  C26_31
REMARK   11  A    between atoms: C27_32  and  C29_34
ROOT
HETATM    1  C10 UNL     1       4.926   9.426  20.493  1.00  0.00     0.122 C
HETATM    2  C11 UNL     1       4.645  10.804  19.931  1.00  0.00     0.035 C
HETATM    3  C12 UNL     1       3.582  10.623  18.826  1.00  0.00     0.042 C
HETATM    4  C13 UNL     1       4.188   9.915  17.659  1.00  0.00     0.073 C
HETATM    5  C14 UNL     1       5.135   8.899  18.102  1.00  0.00     0.027 C
HETATM    6  C15 UNL     1       4.918   8.322  19.483  1.00  0.00     0.040 C
HETATM    7  C16 UNL     1       5.557   7.845  17.113  1.00  0.00    -0.011 C
HETATM    8  C17 UNL     1       6.226   6.712  17.819  1.00  0.00     0.010 C
HETATM    9  C18 UNL     1       4.403   7.410  16.277  1.00  0.00     0.011 C
HETATM   10  C19 UNL     1       3.826   8.654  15.647  1.00  0.00     0.007 C
HETATM   11  C20 UNL     1       3.240   8.486  14.311  1.00  0.00     0.015 C
HETATM   12  C21 UNL     1       4.201   7.615  13.505  1.00  0.00     0.013 C
HETATM   13  C22 UNL     1       3.202   9.832  13.646  1.00  0.00     0.122 C
HETATM   14  C23 UNL     1       3.125  10.984  14.564  1.00  0.00     0.033 C
HETATM   15  C24 UNL     1       2.730  10.782  15.969  1.00  0.00     0.019 C
HETATM   16  C25 UNL     1       3.100   9.506  16.648  1.00  0.00     0.013 C
ENDROOT
BRANCH   1  17
HETATM   17  O1  UNL     1       6.203   9.451  21.099  1.00  0.00    -0.377 OA
BRANCH  17  18
HETATM   18  C8  UNL     1       6.352   8.392  22.025  1.00  0.00     0.141 C
HETATM   19  C9  UNL     1       7.197   7.308  21.450  1.00  0.00     0.044 C
BRANCH  18  20
HETATM   20  C7  UNL     1       4.997   7.972  22.414  1.00  0.00     0.011 C
BRANCH  20  21
HETATM   21  C4  UNL     1       4.692   6.583  22.841  1.00  0.00    -0.064 C
BRANCH  21  22
HETATM   22  C3  UNL     1       3.857   5.718  22.023  1.00  0.00    -0.020 C
BRANCH  22  23
HETATM   23  C2  UNL     1       2.950   6.241  20.989  1.00  0.00     0.023 C
HETATM   24  C1  UNL     1       2.506   5.286  19.938  1.00  0.00     0.009 C
ENDBRANCH  22  23
ENDBRANCH  21  22
BRANCH  21  25
HETATM   25  C5  UNL     1       4.426   6.646  24.331  1.00  0.00     0.033 C
HETATM   26  C6  UNL     1       3.035   6.204  24.667  1.00  0.00     0.010 C
ENDBRANCH  21  25
ENDBRANCH  20  21
ENDBRANCH  18  20
ENDBRANCH  17  18
ENDBRANCH   1  17
BRANCH   4  27
HETATM   27  O2  UNL     1       4.975  10.941  17.019  1.00  0.00    -0.388 OA
ATOM     28  H2  UNL     1       4.552  11.746  17.293  1.00  0.00     0.210 HD
ENDBRANCH   4  27
BRANCH  16  29
HETATM   29  C26 UNL     1       1.986   8.929  17.331  1.00  0.00    -0.004 C
HETATM   30  C27 UNL     1       1.216   7.926  17.425  1.00  0.00    -0.027 C
HETATM   31  C28 UNL     1       0.083   7.953  18.500  1.00  0.00     0.051 C
BRANCH  30  32
HETATM   32  C29 UNL     1       1.170   6.690  16.745  1.00  0.00     0.265 C
HETATM   33  O4  UNL     1       0.490   5.701  17.044  1.00  0.00    -0.302 OA
ENDBRANCH  30  32
ENDBRANCH  16  29
BRANCH  13  34
HETATM   34  O3  UNL     1       2.163   9.898  12.701  1.00  0.00    -0.395 OA
ATOM     35  H3  UNL     1       2.267  10.653  12.133  1.00  0.00     0.210 HD
ENDBRANCH  13  34
TORSDOF 11
ENDMDL