MODEL 1
REMARK VINA RESULT: -8.980631465      0.000      0.000
REMARK  9 active torsions:
REMARK  status: ('A' for Active; 'I' for Inactive)
REMARK    1  A    between atoms: C2_2  and  C3_3
REMARK    2  A    between atoms: C3_3  and  C4_4
REMARK    3  A    between atoms: C8_10  and  C9_11
REMARK    4  A    between atoms: C9_11  and  C10_12
REMARK    5  A    between atoms: C21_23  and  C23_25
REMARK    6  A    between atoms: C23_25  and  C24_26
REMARK    7  A    between atoms: C24_26  and  C25_27
REMARK    8  A    between atoms: C25_27  and  C26_28
REMARK    9  A    between atoms: C26_28  and  O3_31
ROOT
HETATM    1  C10 UNL     1       6.253   9.260  18.797  1.00  0.00    -0.006 C
HETATM    2  C11 UNL     1       5.990   7.857  18.378  1.00  0.00     0.006 C
HETATM    3  C12 UNL     1       6.088   6.775  19.383  1.00  0.00     0.007 C
HETATM    4  C13 UNL     1       7.164   6.938  20.399  1.00  0.00     0.008 C
HETATM    5  C14 UNL     1       8.305   7.785  19.957  1.00  0.00     0.007 C
HETATM    6  C15 UNL     1       8.085   9.194  20.420  1.00  0.00     0.010 C
HETATM    7  C16 UNL     1       6.582   9.489  20.217  1.00  0.00    -0.035 C
HETATM    8  C17 UNL     1       6.524  11.004  20.499  1.00  0.00     0.016 C
HETATM    9  C18 UNL     1       5.895   8.840  21.319  1.00  0.00     0.017 C
HETATM   10  C19 UNL     1       4.400   8.909  21.396  1.00  0.00     0.010 C
HETATM   11  C20 UNL     1       3.988   8.288  22.720  1.00  0.00     0.031 C
HETATM   12  C21 UNL     1       4.390   6.815  22.775  1.00  0.00     0.022 C
HETATM   13  C22 UNL     1       4.545   6.503  24.282  1.00  0.00     0.038 C
HETATM   14  N1  UNL     1       5.562   6.490  22.070  1.00  0.00    -0.408 N
ATOM     15  H1  UNL     1       5.769   5.513  21.863  1.00  0.00     0.154 HD
HETATM   16  C29 UNL     1       6.457   7.499  21.644  1.00  0.00     0.086 C
ENDROOT
BRANCH   1  17
HETATM   17  C9  UNL     1       5.138  10.130  18.286  1.00  0.00     0.011 C
BRANCH  17  18
HETATM   18  C8  UNL     1       3.984   9.502  17.635  1.00  0.00     0.005 C
HETATM   19  C3  UNL     1       3.538   9.843  16.284  1.00  0.00     0.052 C
HETATM   20  C5  UNL     1       2.180   9.052  16.285  1.00  0.00     0.021 C
HETATM   21  C6  UNL     1       1.557   9.529  17.553  1.00  0.00     0.002 C
HETATM   22  C7  UNL     1       2.713   9.647  18.510  1.00  0.00     0.006 C
BRANCH  19  23
HETATM   23  C2  UNL     1       3.103  11.245  16.018  1.00  0.00     0.016 C
HETATM   24  C1  UNL     1       4.067  12.168  15.381  1.00  0.00     0.006 C
ENDBRANCH  19  23
BRANCH  19  25
HETATM   25  C4  UNL     1       4.238   9.220  15.140  1.00  0.00     0.182 C
HETATM   26  O1  UNL     1       5.437   8.894  15.088  1.00  0.00    -0.647 OA
HETATM   27  O2  UNL     1       3.492   8.958  13.978  1.00  0.00    -0.647 OA
ENDBRANCH  19  25
ENDBRANCH  17  18
ENDBRANCH   1  17
BRANCH  12  28
HETATM   28  C23 UNL     1       3.211   6.048  22.281  1.00  0.00     0.030 C
BRANCH  28  29
HETATM   29  C24 UNL     1       3.191   5.473  20.940  1.00  0.00     0.005 C
BRANCH  29  30
HETATM   30  C25 UNL     1       2.459   6.148  19.845  1.00  0.00     0.037 C
BRANCH  30  31
HETATM   31  C26 UNL     1       2.269   5.215  18.638  1.00  0.00     0.051 C
HETATM   32  C27 UNL     1       3.045   5.689  17.444  1.00  0.00     0.045 C
HETATM   33  C28 UNL     1       0.805   5.034  18.326  1.00  0.00     0.045 C
BRANCH  31  34
HETATM   34  O3  UNL     1       2.779   3.977  19.022  1.00  0.00    -0.391 OA
ATOM     35  H3  UNL     1       2.050   3.368  18.985  1.00  0.00     0.210 HD
ENDBRANCH  31  34
ENDBRANCH  30  31
ENDBRANCH  29  30
ENDBRANCH  28  29
ENDBRANCH  12  28
TORSDOF 9
ENDMDL