MODEL 3
REMARK VINA RESULT: -8.545352427      1.578      4.268
REMARK  12 active torsions:
REMARK  status: ('A' for Active; 'I' for Inactive)
REMARK    1  A    between atoms: C6_8  and  O3_9
REMARK    2  A    between atoms: C7_11  and  C8_12
REMARK    3  A    between atoms: C8_12  and  C9_13
REMARK    4  A    between atoms: C9_13  and  C10_14
REMARK    5  A    between atoms: C10_14  and  C11_15
REMARK    6  A    between atoms: C11_15  and  C12_16
REMARK    7  A    between atoms: C13_17  and  C14_18
REMARK    8  A    between atoms: C14_18  and  C15_19
REMARK    9  A    between atoms: C15_19  and  C16_20
REMARK   10  A    between atoms: C16_20  and  C17_21
REMARK   11  A    between atoms: C19_23  and  C21_25
REMARK   12  A    between atoms: C27_31  and  O4_32
ROOT
HETATM    1  C1  UNL     1       1.760  11.089  18.634  1.00  0.00     0.025 C
HETATM    2  C2  UNL     1       2.887  11.363  18.011  1.00  0.00     0.014 C
HETATM    3  C3  UNL     1       3.092  12.494  17.039  1.00  0.00     0.289 C
HETATM    4  O1  UNL     1       2.113  13.219  16.708  1.00  0.00    -0.260 OA
HETATM    5  O2  UNL     1       4.417  12.512  16.676  1.00  0.00    -0.311 OA
HETATM    6  C4  UNL     1       5.115  11.684  17.501  1.00  0.00     0.147 C
HETATM    7  C5  UNL     1       6.326  10.990  16.984  1.00  0.00     0.098 C
HETATM    8  C6  UNL     1       6.307   9.533  17.018  1.00  0.00     0.052 C
HETATM    9  C7  UNL     1       6.226   8.748  18.303  1.00  0.00    -0.020 C
HETATM   10  C19 UNL     1       5.746   9.351  19.523  1.00  0.00    -0.008 C
HETATM   11  C20 UNL     1       6.850  10.092  20.247  1.00  0.00     0.021 C
HETATM   12  C28 UNL     1       4.627  10.371  19.406  1.00  0.00     0.026 C
HETATM   13  C29 UNL     1       4.175  10.677  18.026  1.00  0.00     0.055 C
ENDROOT
BRANCH   9  14
HETATM   14  C8  UNL     1       7.445   7.859  18.266  1.00  0.00     0.010 C
BRANCH  14  15
HETATM   15  C9  UNL     1       7.486   6.590  17.620  1.00  0.00    -0.003 C
BRANCH  15  16
HETATM   16  C10 UNL     1       6.494   5.740  17.552  1.00  0.00    -0.023 C
BRANCH  16  17
HETATM   17  C11 UNL     1       5.507   5.611  16.422  1.00  0.00     0.054 C
BRANCH  17  18
HETATM   18  C12 UNL     1       4.164   5.793  16.970  1.00  0.00    -0.015 C
HETATM   19  C13 UNL     1       3.415   6.886  16.648  1.00  0.00     0.047 C
BRANCH  19  20
HETATM   20  C14 UNL     1       2.147   7.034  17.187  1.00  0.00    -0.156 C
BRANCH  20  21
HETATM   21  C15 UNL     1       1.013   7.117  17.662  1.00  0.00     0.085 C
BRANCH  21  22
HETATM   22  C16 UNL     1       0.194   6.192  18.439  1.00  0.00     0.011 C
BRANCH  22  23
HETATM   23  C17 UNL     1       0.558   4.742  18.294  1.00  0.00    -0.004 C
HETATM   24  C18 UNL     1       1.465   4.265  19.411  1.00  0.00     0.005 C
ENDBRANCH  22  23
ENDBRANCH  21  22
ENDBRANCH  20  21
ENDBRANCH  19  20
ENDBRANCH  17  18
ENDBRANCH  16  17
ENDBRANCH  15  16
ENDBRANCH  14  15
ENDBRANCH   9  14
BRANCH   8  25
HETATM   25  O3  UNL     1       5.594   8.916  15.949  1.00  0.00    -0.364 OA
ATOM     26  H3  UNL     1       5.972   8.105  15.631  1.00  0.00     0.217 HD
ENDBRANCH   8  25
BRANCH  10  27
HETATM   27  C21 UNL     1       5.201   8.370  20.560  1.00  0.00     0.027 C
HETATM   28  C22 UNL     1       3.877   7.774  20.230  1.00  0.00     0.009 C
HETATM   29  C23 UNL     1       3.702   6.551  21.163  1.00  0.00     0.005 C
HETATM   30  C24 UNL     1       3.670   7.134  22.561  1.00  0.00    -0.016 C
HETATM   31  C25 UNL     1       3.141   6.184  23.581  1.00  0.00     0.010 C
HETATM   32  C26 UNL     1       5.082   7.617  22.833  1.00  0.00     0.036 C
HETATM   33  C27 UNL     1       5.241   8.907  21.976  1.00  0.00     0.123 C
BRANCH  33  34
HETATM   34  O4  UNL     1       4.206   9.694  22.368  1.00  0.00    -0.395 OA
ATOM     35  H4  UNL     1       4.152   9.910  23.292  1.00  0.00     0.210 HD
ENDBRANCH  33  34
ENDBRANCH  10  27
TORSDOF 12
ENDMDL