MODEL 3
REMARK VINA RESULT: -8.906076227      1.640      5.188
REMARK  11 active torsions:
REMARK  status: ('A' for Active; 'I' for Inactive)
REMARK    1  A    between atoms: C2_2  and  C5_5
REMARK    2  A    between atoms: C5_5  and  C6_6
REMARK    3  A    between atoms: C6_6  and  C8_8
REMARK    4  A    between atoms: C6_6  and  C24_29
REMARK    5  A    between atoms: C9_9  and  C10_10
REMARK    6  A    between atoms: C11_11  and  C12_12
REMARK    7  A    between atoms: C17_17  and  C18_18
REMARK    8  A    between atoms: C18_18  and  C19_19
REMARK    9  A    between atoms: C21_22  and  O2_23
REMARK   10  A    between atoms: C22_25  and  O3_26
REMARK   11  A    between atoms: C25_30  and  C26_31
ROOT
HETATM    1  C10 UNL     1       2.845   5.196  20.919  1.00  0.00    -0.004 C
HETATM    2  C11 UNL     1       1.922   4.687  20.165  1.00  0.00    -0.018 C
ENDROOT
BRANCH   2   3
HETATM    3  C12 UNL     1       1.577   5.030  18.773  1.00  0.00    -0.026 C
HETATM    4  C13 UNL     1       1.083   3.875  17.965  1.00  0.00     0.019 C
HETATM    5  C14 UNL     1       0.606   6.189  18.842  1.00  0.00     0.013 C
HETATM    6  C15 UNL     1       0.235   6.578  17.457  1.00  0.00     0.001 C
HETATM    7  C16 UNL     1       1.362   6.934  16.546  1.00  0.00     0.005 C
HETATM    8  C17 UNL     1       2.605   6.130  16.739  1.00  0.00    -0.011 C
HETATM    9  C23 UNL     1       2.816   5.608  18.112  1.00  0.00     0.017 C
BRANCH   8  10
HETATM   10  C18 UNL     1       3.841   6.915  16.355  1.00  0.00     0.039 C
BRANCH  10  11
HETATM   11  C19 UNL     1       3.572   8.339  16.020  1.00  0.00     0.153 C
HETATM   12  O1  UNL     1       4.054   8.761  14.805  1.00  0.00    -0.381 OA
HETATM   13  C20 UNL     1       4.190  10.146  14.875  1.00  0.00     0.202 C
HETATM   14  C21 UNL     1       4.531  10.482  16.305  1.00  0.00     0.173 C
HETATM   15  C22 UNL     1       3.999   9.296  17.077  1.00  0.00     0.177 C
BRANCH  14  16
HETATM   16  O2  UNL     1       5.892  10.670  16.488  1.00  0.00    -0.391 OA
ATOM     17  H2  UNL     1       6.079  11.262  17.207  1.00  0.00     0.210 HD
ENDBRANCH  14  16
BRANCH  15  18
HETATM   18  O3  UNL     1       2.907   9.776  17.831  1.00  0.00    -0.390 OA
ATOM     19  H3  UNL     1       2.372  10.385  17.336  1.00  0.00     0.210 HD
ENDBRANCH  15  18
ENDBRANCH  10  11
ENDBRANCH   8  10
ENDBRANCH   2   3
BRANCH   1  20
HETATM   20  C9  UNL     1       3.787   6.242  20.592  1.00  0.00    -0.003 C
HETATM   21  C8  UNL     1       4.181   7.168  21.446  1.00  0.00    -0.013 C
BRANCH  21  22
HETATM   22  C6  UNL     1       5.137   8.224  21.104  1.00  0.00    -0.008 C
HETATM   23  C7  UNL     1       4.430   9.559  21.062  1.00  0.00     0.024 C
BRANCH  22  24
HETATM   24  C5  UNL     1       6.371   8.238  21.931  1.00  0.00     0.025 C
BRANCH  24  25
HETATM   25  C2  UNL     1       6.482   7.311  23.071  1.00  0.00    -0.050 C
HETATM   26  C1  UNL     1       7.599   7.894  23.965  1.00  0.00     0.014 C
HETATM   27  C3  UNL     1       6.962   5.925  22.696  1.00  0.00     0.014 C
HETATM   28  C4  UNL     1       5.301   7.184  23.971  1.00  0.00     0.014 C
ENDBRANCH  24  25
ENDBRANCH  22  24
BRANCH  22  29
HETATM   29  C24 UNL     1       5.583   7.985  19.693  1.00  0.00    -0.011 C
HETATM   30  C25 UNL     1       6.650   7.309  19.363  1.00  0.00     0.034 C
BRANCH  30  31
HETATM   31  C26 UNL     1       7.012   7.122  17.976  1.00  0.00     0.074 A
HETATM   32  C27 UNL     1       7.107   5.927  17.296  1.00  0.00     0.039 A
HETATM   33  C28 UNL     1       7.482   6.198  15.992  1.00  0.00     0.027 A
HETATM   34  C29 UNL     1       7.598   7.583  15.947  1.00  0.00     0.142 A
HETATM   35  O4  UNL     1       7.317   8.066  17.114  1.00  0.00    -0.323 OA
ENDBRANCH  30  31
ENDBRANCH  22  29
ENDBRANCH  21  22
ENDBRANCH   1  20
TORSDOF 11
ENDMDL