MODEL 2
REMARK VINA RESULT: -6.964506282      4.737      6.179
REMARK  4 active torsions:
REMARK  status: ('A' for Active; 'I' for Inactive)
REMARK    1  A    between atoms: C2_2  and  C3_3
REMARK    2  A    between atoms: C3_3  and  O1_4
REMARK    3  A    between atoms: C8_10  and  C9_11
REMARK    4  A    between atoms: C16_20  and  O4_22
ROOT
HETATM    1  C1  UNL     1       2.335  53.903  52.699  1.00  0.00     0.021 C
HETATM    2  C2  UNL     1       3.085  55.236  52.497  1.00  0.00     0.014 C
HETATM    3  C4  UNL     1       2.444  56.226  53.403  1.00  0.00     0.042 C
HETATM    4  C5  UNL     1       2.582  57.624  52.932  1.00  0.00    -0.020 C
HETATM    5  C6  UNL     1       2.906  57.980  51.719  1.00  0.00    -0.047 C
HETATM    6  C7  UNL     1       3.043  59.410  51.259  1.00  0.00     0.072 C
HETATM    7  C8  UNL     1       4.361  59.456  50.473  1.00  0.00     0.168 C
HETATM    8  O2  UNL     1       4.560  58.349  49.692  1.00  0.00    -0.234 OA
HETATM    9  O3  UNL     1       4.520  57.200  50.308  1.00  0.00    -0.228 OA
HETATM   10  C15 UNL     1       3.168  56.964  50.687  1.00  0.00     0.224 C
HETATM   11  C16 UNL     1       2.958  55.550  51.048  1.00  0.00     0.096 C
HETATM   12  C17 UNL     1       1.581  55.129  50.505  1.00  0.00     0.050 C
ENDROOT
BRANCH   7  13
HETATM   13  C9  UNL     1       4.341  60.658  49.520  1.00  0.00     0.018 C
HETATM   14  C10 UNL     1       5.473  60.447  48.537  1.00  0.00     0.007 C
HETATM   15  C11 UNL     1       6.709  61.089  49.169  1.00  0.00     0.000 C
HETATM   16  C12 UNL     1       6.539  62.586  49.033  1.00  0.00     0.000 C
HETATM   17  C13 UNL     1       5.109  62.952  49.283  1.00  0.00     0.000 C
HETATM   18  C14 UNL     1       4.448  61.957  50.247  1.00  0.00     0.007 C
ENDBRANCH   7  13
BRANCH  11  19
HETATM   19  O4  UNL     1       3.873  54.799  50.282  1.00  0.00    -0.386 OA
ATOM     20  H4  UNL     1       4.769  55.043  50.480  1.00  0.00     0.210 HD
ENDBRANCH  11  19
BRANCH   2  21
HETATM   21  C3  UNL     1       4.518  54.933  52.863  1.00  0.00     0.176 C
BRANCH  21  22
HETATM   22  O1  UNL     1       4.917  53.645  52.627  1.00  0.00    -0.400 OA
ATOM     23  H1  UNL     1       5.230  53.475  51.747  1.00  0.00     0.209 HD
ENDBRANCH  21  22
ENDBRANCH   2  21
TORSDOF 4
ENDMDL