MODEL 4
REMARK VINA RESULT: -5.924166044      1.864      2.377
REMARK  3 active torsions:
REMARK  status: ('A' for Active; 'I' for Inactive)
REMARK    1  A    between atoms: C2_2  and  O1_4
REMARK    2  A    between atoms: C2_2  and  C4_6
REMARK    3  A    between atoms: C14_16  and  O2_17
ROOT
HETATM    1  C4  UNL     1       3.107  56.658  53.189  1.00  0.00     0.022 C
HETATM    2  C5  UNL     1       2.438  57.971  53.386  1.00  0.00     0.011 C
HETATM    3  C6  UNL     1       1.960  58.361  52.009  1.00  0.00     0.042 C
HETATM    4  C7  UNL     1       3.170  57.983  51.165  1.00  0.00     0.097 C
HETATM    5  C8  UNL     1       2.843  57.786  49.728  1.00  0.00     0.041 C
HETATM    6  C9  UNL     1       2.606  59.032  48.955  1.00  0.00     0.006 C
HETATM    7  C10 UNL     1       3.877  59.736  48.529  1.00  0.00     0.041 C
HETATM    8  C11 UNL     1       4.673  60.222  49.713  1.00  0.00     0.096 C
HETATM    9  C12 UNL     1       5.966  60.796  49.194  1.00  0.00     0.044 C
HETATM   10  C13 UNL     1       6.447  61.981  49.988  1.00  0.00     0.035 C
HETATM   11  C14 UNL     1       5.453  63.101  50.048  1.00  0.00     0.118 C
HETATM   12  C15 UNL     1       4.055  62.596  49.766  1.00  0.00     0.035 C
HETATM   13  C16 UNL     1       3.931  61.254  50.487  1.00  0.00     0.044 C
HETATM   14  O3  UNL     1       5.005  59.090  50.469  1.00  0.00    -0.229 OA
HETATM   15  O4  UNL     1       4.150  58.905  51.418  1.00  0.00    -0.229 OA
HETATM   16  C17 UNL     1       3.494  56.604  51.755  1.00  0.00     0.049 C
ENDROOT
BRANCH   1  17
HETATM   17  C2  UNL     1       2.231  55.518  53.635  1.00  0.00     0.054 C
HETATM   18  C1  UNL     1       1.580  54.798  52.502  1.00  0.00     0.045 C
HETATM   19  C3  UNL     1       1.179  55.933  54.620  1.00  0.00     0.045 C
BRANCH  17  20
HETATM   20  O1  UNL     1       3.068  54.597  54.294  1.00  0.00    -0.390 OA
ATOM     21  H1  UNL     1       3.007  54.773  55.226  1.00  0.00     0.210 HD
ENDBRANCH  17  20
ENDBRANCH   1  17
BRANCH  11  22
HETATM   22  O2  UNL     1       5.752  64.163  49.221  1.00  0.00    -0.396 OA
ATOM     23  H2  UNL     1       6.089  63.908  48.371  1.00  0.00     0.210 HD
ENDBRANCH  11  22
TORSDOF 3
ENDMDL