MODEL 5
REMARK VINA RESULT: -5.500047777      4.712      6.753
REMARK  3 active torsions:
REMARK  status: ('A' for Active; 'I' for Inactive)
REMARK    1  A    between atoms: C2_2  and  N1_3
REMARK    2  A    between atoms: N3_14  and  O2_16
REMARK    3  A    between atoms: C10_18  and  C11_19
ROOT
HETATM    1  N1  UNL     1       5.924  53.424  47.183  1.00  0.00    -0.327 N
HETATM    2  C3  UNL     1       5.261  52.594  46.248  1.00  0.00     0.319 C
HETATM    3  O1  UNL     1       4.235  51.878  46.395  1.00  0.00    -0.247 OA
HETATM    4  N2  UNL     1       5.977  52.680  44.987  1.00  0.00    -0.326 N
ATOM      5  H2  UNL     1       6.013  52.012  44.218  1.00  0.00     0.165 HD
HETATM    6  C4  UNL     1       6.631  53.983  45.116  1.00  0.00     0.096 C
HETATM    7  C5  UNL     1       5.398  54.940  45.088  1.00  0.00     0.040 C
HETATM    8  C6  UNL     1       5.077  55.283  43.650  1.00  0.00     0.003 C
HETATM    9  C7  UNL     1       5.408  54.193  42.659  1.00  0.00     0.006 C
HETATM   10  C8  UNL     1       6.882  53.832  42.677  1.00  0.00     0.057 C
HETATM   11  C9  UNL     1       7.404  54.424  43.988  1.00  0.00     0.040 C
HETATM   12  N3  UNL     1       8.310  55.202  43.875  1.00  0.00    -0.275 N
ATOM     13  H3  UNL     1       8.532  55.181  42.880  1.00  0.00     0.193 HD
HETATM   14  C10 UNL     1       7.150  53.914  46.468  1.00  0.00     0.127 C
ENDROOT
BRANCH  14  15
HETATM   15  C11 UNL     1       8.187  52.938  46.861  1.00  0.00     0.011 C
HETATM   16  C12 UNL     1       9.272  52.592  45.933  1.00  0.00     0.007 C
HETATM   17  C13 UNL     1      10.198  51.595  46.653  1.00  0.00     0.000 C
HETATM   18  C14 UNL     1       9.536  50.930  47.816  1.00  0.00     0.000 C
HETATM   19  C15 UNL     1       9.225  51.932  48.906  1.00  0.00     0.000 C
HETATM   20  C16 UNL     1       8.725  53.200  48.230  1.00  0.00     0.007 C
ENDBRANCH  14  15
BRANCH  12  21
HETATM   21  O2  UNL     1       9.150  56.052  44.368  1.00  0.00    -0.290 OA
ATOM     22  H2  UNL     1       9.981  56.269  44.775  1.00  0.00     0.244 HD
ENDBRANCH  12  21
BRANCH   1  23
HETATM   23  C2  UNL     1       5.539  53.712  48.520  1.00  0.00     0.123 C
HETATM   24  C1  UNL     1       5.650  55.186  48.788  1.00  0.00     0.026 C
ENDBRANCH   1  23
TORSDOF 3
ENDMDL