MODEL 1
REMARK VINA RESULT: -7.285535513      0.000      0.000
REMARK  1 active torsions:
REMARK  status: ('A' for Active; 'I' for Inactive)
REMARK    1  A    between atoms: C13_16  and  O1_17
ROOT
HETATM    1  C1  UNL     1       7.227  61.164  47.974  1.00  0.00     0.040 C
HETATM    2  C2  UNL     1       5.877  61.538  48.546  1.00  0.00     0.121 C
HETATM    3  C3  UNL     1       5.835  63.025  48.901  1.00  0.00     0.032 C
HETATM    4  C4  UNL     1       4.968  63.130  50.147  1.00  0.00     0.008 C
HETATM    5  C5  UNL     1       3.792  62.179  49.905  1.00  0.00     0.071 C
HETATM    6  C6  UNL     1       4.329  60.795  50.030  1.00  0.00     0.197 C
HETATM    7  C7  UNL     1       3.581  59.779  49.194  1.00  0.00     0.074 C
HETATM    8  C8  UNL     1       4.151  58.426  49.567  1.00  0.00     0.047 C
HETATM    9  C9  UNL     1       3.321  57.717  50.610  1.00  0.00     0.155 C
HETATM   10  C10 UNL     1       2.180  57.025  49.921  1.00  0.00     0.044 C
HETATM   11  C11 UNL     1       2.238  55.584  50.386  1.00  0.00     0.038 C
HETATM   12  C12 UNL     1       3.199  55.650  51.526  1.00  0.00     0.215 C
HETATM   13  N1  UNL     1       4.165  56.621  51.114  1.00  0.00    -0.057 N
ATOM     14  H11 UNL     1       4.835  56.892  51.835  1.00  0.00     0.278 HD
ATOM     15  H12 UNL     1       4.863  56.278  50.454  1.00  0.00     0.278 HD
HETATM   16  C13 UNL     1       2.574  55.942  52.852  1.00  0.00     0.149 C
HETATM   17  C14 UNL     1       1.391  56.849  52.793  1.00  0.00     0.036 C
HETATM   18  C15 UNL     1       1.641  58.239  52.406  1.00  0.00     0.040 C
HETATM   19  C16 UNL     1       2.937  58.555  51.765  1.00  0.00     0.196 C
HETATM   20  O2  UNL     1       2.919  59.934  51.438  1.00  0.00    -0.230 OA
HETATM   21  O3  UNL     1       4.153  60.388  51.372  1.00  0.00    -0.200 OA
HETATM   22  O4  UNL     1       5.659  60.755  49.665  1.00  0.00    -0.348 OA
ENDROOT
BRANCH  16  23
HETATM   23  O1  UNL     1       3.540  56.353  53.757  1.00  0.00    -0.393 OA
ATOM     24  H1  UNL     1       3.243  56.203  54.646  1.00  0.00     0.210 HD
ENDBRANCH  16  23
TORSDOF 1
ENDMDL