MODEL 5
REMARK VINA RESULT: -5.120257134      4.956      7.627
REMARK  4 active torsions:
REMARK  status: ('A' for Active; 'I' for Inactive)
REMARK    1  A    between atoms: C2_2  and  O2_4
REMARK    2  A    between atoms: O2_4  and  C3_5
REMARK    3  A    between atoms: C5_7  and  O3_9
REMARK    4  A    between atoms: C8_12  and  O4_13
ROOT
HETATM    1  C3  UNL     1       6.067  54.627  44.623  1.00  0.00     0.163 C
HETATM    2  C4  UNL     1       6.167  53.279  45.223  1.00  0.00     0.074 C
HETATM    3  C5  UNL     1       7.273  52.962  46.182  1.00  0.00     0.059 C
HETATM    4  C6  UNL     1       8.179  51.935  45.439  1.00  0.00     0.046 C
HETATM    5  C7  UNL     1       6.835  52.177  47.402  1.00  0.00     0.069 C
HETATM    6  C8  UNL     1       6.926  52.978  48.717  1.00  0.00     0.121 C
HETATM    7  C9  UNL     1       5.694  53.795  48.685  1.00  0.00     0.040 C
HETATM    8  C10 UNL     1       5.427  54.945  49.512  1.00  0.00    -0.045 C
HETATM    9  C11 UNL     1       6.158  55.004  50.835  1.00  0.00     0.015 C
HETATM   10  C12 UNL     1       3.933  54.978  49.892  1.00  0.00     0.015 C
HETATM   11  C13 UNL     1       5.647  56.230  48.743  1.00  0.00     0.012 C
HETATM   12  C14 UNL     1       5.246  56.231  47.307  1.00  0.00     0.028 C
HETATM   13  C15 UNL     1       6.396  56.426  46.368  1.00  0.00    -0.022 C
HETATM   14  C16 UNL     1       6.729  55.778  45.280  1.00  0.00    -0.058 C
HETATM   15  C17 UNL     1       7.974  56.308  44.577  1.00  0.00     0.046 C
ENDROOT
BRANCH   1  16
HETATM   16  O2  UNL     1       4.695  54.950  44.324  1.00  0.00    -0.312 OA
BRANCH  16  17
HETATM   17  C2  UNL     1       4.267  55.624  43.218  1.00  0.00     0.255 C
HETATM   18  C1  UNL     1       4.837  55.233  41.907  1.00  0.00     0.126 C
HETATM   19  O1  UNL     1       3.421  56.528  43.394  1.00  0.00    -0.266 OA
ENDBRANCH  16  17
ENDBRANCH   1  16
BRANCH   3  20
HETATM   20  O3  UNL     1       8.151  53.963  46.480  1.00  0.00    -0.390 OA
ATOM     21  H3  UNL     1       8.335  54.124  47.397  1.00  0.00     0.210 HD
ENDBRANCH   3  20
BRANCH   6  22
HETATM   22  O4  UNL     1       8.125  53.595  48.828  1.00  0.00    -0.395 OA
ATOM     23  H4  UNL     1       8.836  52.996  48.638  1.00  0.00     0.210 HD
ENDBRANCH   6  22
TORSDOF 4
ENDMDL