MODEL 1
REMARK VINA RESULT: -6.693080130      0.000      0.000
REMARK  4 active torsions:
REMARK  status: ('A' for Active; 'I' for Inactive)
REMARK    1  A    between atoms: C4_6  and  N2_7
REMARK    2  A    between atoms: N2_7  and  C5_8
REMARK    3  A    between atoms: C5_8  and  O1_9
REMARK    4  A    between atoms: C5_8  and  C6_11
ROOT
HETATM    1  C5  UNL     1       5.187  57.576  49.195  1.00  0.00     0.230 C
ENDROOT
BRANCH   1   2
HETATM    2  N2  UNL     1       5.546  57.121  48.037  1.00  0.00    -0.355 NA
BRANCH   2   3
HETATM    3  C4  UNL     1       5.842  56.716  46.919  1.00  0.00     0.225 A
HETATM    4  N1  UNL     1       5.962  57.422  45.773  1.00  0.00    -0.334 N
HETATM    5  C3  UNL     1       6.284  56.817  44.688  1.00  0.00     0.105 A
ATOM      6  H1  UNL     1       5.798  58.428  45.769  1.00  0.00     0.168 HD
HETATM    7  C2  UNL     1       6.499  55.467  44.719  1.00  0.00    -0.001 A
HETATM    8  C1  UNL     1       6.883  54.563  43.571  1.00  0.00     0.058 C
HETATM    9  S2  UNL     1       6.222  55.108  46.353  1.00  0.00    -0.043 SA
ENDBRANCH   2   3
ENDBRANCH   1   2
BRANCH   1  10
HETATM   10  O1  UNL     1       5.319  56.685  50.178  1.00  0.00    -0.335 OA
ATOM     11  H1  UNL     1       4.797  55.902  50.051  1.00  0.00     0.220 HD
ENDBRANCH   1  10
BRANCH   1  12
HETATM   12  C6  UNL     1       4.649  58.908  49.661  1.00  0.00     0.068 A
HETATM   13  C7  UNL     1       3.352  58.989  50.155  1.00  0.00     0.103 A
HETATM   14  N3  UNL     1       2.382  57.922  50.294  1.00  0.00    -0.093 NA
HETATM   15  S1  UNL     1       3.159  60.629  50.561  1.00  0.00    -0.078 SA
HETATM   16  C8  UNL     1       4.682  61.191  50.114  1.00  0.00    -0.008 A
HETATM   17  C9  UNL     1       5.348  60.068  49.640  1.00  0.00    -0.027 A
HETATM   18  C13 UNL     1       5.363  62.546  50.140  1.00  0.00     0.046 C
HETATM   19  C10 UNL     1       6.757  60.438  49.195  1.00  0.00     0.041 C
HETATM   20  C11 UNL     1       6.683  61.590  48.245  1.00  0.00     0.005 C
HETATM   21  C12 UNL     1       5.962  62.784  48.783  1.00  0.00     0.005 C
ENDBRANCH   1  12
TORSDOF 4
ENDMDL