MODEL 3
REMARK VINA RESULT: -5.437159513      1.119      3.373
REMARK  7 active torsions:
REMARK  status: ('A' for Active; 'I' for Inactive)
REMARK    1  A    between atoms: C2_2  and  N1_5
REMARK    2  A    between atoms: C5_7  and  N2_8
REMARK    3  A    between atoms: C5_7  and  O3_21
REMARK       I    between atoms: N2_8  and  C6_10
REMARK       I    between atoms: C6_10  and  N3_12
REMARK    4  A    between atoms: N3_12  and  N4_13
REMARK    5  A    between atoms: N3_12  and  C7_17
REMARK    6  A    between atoms: N4_13  and  O2_15
REMARK    7  A    between atoms: O3_21  and  C11_22
ROOT
HETATM    1  N2  UNL     1       5.823  57.765  48.321  1.00  0.00    -0.273 N
ATOM      2  H2  UNL     1       6.811  58.007  48.401  1.00  0.00     0.174 HD
HETATM    3  C6  UNL     1       4.862  58.692  48.793  1.00  0.00     0.346 C
HETATM    4  O1  UNL     1       3.651  58.378  48.686  1.00  0.00    -0.245 OA
HETATM    5  N3  UNL     1       5.240  59.936  49.369  1.00  0.00    -0.214 N
ENDROOT
BRANCH   1   6
HETATM    6  C5  UNL     1       5.477  56.516  47.742  1.00  0.00     0.224 C
HETATM    7  N1  UNL     1       5.109  55.486  48.333  1.00  0.00    -0.348 N
ATOM      8  H1  UNL     1       4.916  54.714  47.695  1.00  0.00     0.163 HD
BRANCH   7   9
HETATM    9  C2  UNL     1       4.899  55.144  49.680  1.00  0.00     0.022 C
HETATM   10  C1  UNL     1       6.131  55.399  50.551  1.00  0.00     0.037 C
HETATM   11  C3  UNL     1       4.711  53.618  49.719  1.00  0.00     0.037 C
HETATM   12  C4  UNL     1       3.724  55.747  50.350  1.00  0.00     0.037 C
ENDBRANCH   7   9
BRANCH   6  13
HETATM   13  O3  UNL     1       5.549  56.406  46.356  1.00  0.00    -0.312 OA
BRANCH  13  14
HETATM   14  C11 UNL     1       6.519  55.609  45.730  1.00  0.00     0.060 C
HETATM   15  C12 UNL     1       7.421  56.399  44.802  1.00  0.00     0.046 C
HETATM   16  C13 UNL     1       7.298  54.732  46.661  1.00  0.00     0.046 C
HETATM   17  C14 UNL     1       5.750  54.659  44.816  1.00  0.00     0.046 C
ENDBRANCH  13  14
ENDBRANCH   6  13
ENDBRANCH   1   6
BRANCH   5  18
HETATM   18  N4  UNL     1       6.617  60.202  49.447  1.00  0.00    -0.203 N
ATOM     19  H4  UNL     1       7.131  59.896  50.273  1.00  0.00     0.216 HD
BRANCH  18  20
HETATM   20  O2  UNL     1       7.237  60.803  48.539  1.00  0.00    -0.274 OA
ATOM     21  H2  UNL     1       6.837  61.020  47.706  1.00  0.00     0.246 HD
ENDBRANCH  18  20
ENDBRANCH   5  18
BRANCH   5  22
HETATM   22  C7  UNL     1       4.330  60.908  49.860  1.00  0.00     0.049 C
HETATM   23  C8  UNL     1       3.342  61.271  48.777  1.00  0.00     0.040 C
HETATM   24  C9  UNL     1       3.505  60.384  51.033  1.00  0.00     0.040 C
HETATM   25  C10 UNL     1       4.984  62.188  50.316  1.00  0.00     0.040 C
ENDBRANCH   5  22
TORSDOF 7
ENDMDL