MODEL 4
REMARK VINA RESULT: -7.579046481      0.953      1.164
REMARK  2 active torsions:
REMARK  status: ('A' for Active; 'I' for Inactive)
REMARK    1  A    between atoms: C7_9  and  N2_10
REMARK    2  A    between atoms: C8_13  and  C9_14
ROOT
HETATM    1  C1  UNL     1       4.458  63.789  50.401  1.00  0.00     0.021 C
HETATM    2  C2  UNL     1       5.401  63.213  49.703  1.00  0.00    -0.039 C
HETATM    3  C3  UNL     1       6.531  63.961  49.137  1.00  0.00     0.040 C
HETATM    4  C4  UNL     1       6.858  63.541  47.732  1.00  0.00     0.011 C
HETATM    5  C5  UNL     1       7.005  62.070  47.550  1.00  0.00     0.060 C
HETATM    6  C6  UNL     1       6.132  61.256  48.433  1.00  0.00     0.038 A
HETATM    7  N1  UNL     1       6.088  59.941  48.220  1.00  0.00    -0.342 N
ATOM      8  H1  UNL     1       6.648  59.538  47.469  1.00  0.00     0.167 HD
HETATM    9  C7  UNL     1       5.305  59.115  48.991  1.00  0.00     0.129 A
HETATM   10  C8  UNL     1       4.570  59.652  49.980  1.00  0.00     0.111 A
HETATM   11  N4  UNL     1       4.593  60.986  50.220  1.00  0.00    -0.349 N
ATOM     12  H4  UNL     1       4.033  61.390  50.970  1.00  0.00     0.166 HD
HETATM   13  C16 UNL     1       5.369  61.761  49.448  1.00  0.00     0.061 A
ENDROOT
BRANCH  10  14
HETATM   14  C9  UNL     1       3.710  58.798  50.836  1.00  0.00     0.105 A
HETATM   15  N3  UNL     1       3.770  57.571  51.235  1.00  0.00    -0.351 N
HETATM   16  C10 UNL     1       2.852  57.046  52.010  1.00  0.00     0.023 A
ATOM     17  H3  UNL     1       4.555  56.992  50.937  1.00  0.00     0.166 HD
HETATM   18  C11 UNL     1       1.820  57.859  52.382  1.00  0.00     0.007 A
HETATM   19  C15 UNL     1       2.899  55.592  52.496  1.00  0.00     0.058 C
HETATM   20  S1  UNL     1       2.237  59.330  51.591  1.00  0.00    -0.073 SA
HETATM   21  C12 UNL     1       0.667  57.480  53.252  1.00  0.00     0.048 C
HETATM   22  C13 UNL     1       1.026  56.240  54.006  1.00  0.00     0.006 C
HETATM   23  C14 UNL     1       1.519  55.266  52.926  1.00  0.00     0.006 C
ENDBRANCH  10  14
BRANCH   9  24
HETATM   24  N2  UNL     1       5.364  57.885  48.673  1.00  0.00    -0.384 N
ATOM     25  H22 UNL     1       5.495  57.505  47.735  1.00  0.00     0.157 HD
ATOM     26  H21 UNL     1       5.266  57.240  49.457  1.00  0.00     0.157 HD
ENDBRANCH   9  24
TORSDOF 2
ENDMDL