MODEL 2
REMARK VINA RESULT: -6.968848237      1.756      4.004
REMARK  3 active torsions:
REMARK  status: ('A' for Active; 'I' for Inactive)
REMARK    1  A    between atoms: C2_2  and  C4_4
REMARK    2  A    between atoms: C10_12  and  O2_13
REMARK    3  A    between atoms: C16_20  and  O3_21
ROOT
HETATM    1  C4  UNL     1       2.188  57.641  52.606  1.00  0.00     0.162 C
HETATM    2  O1  UNL     1       2.811  58.856  52.247  1.00  0.00    -0.340 OA
HETATM    3  C5  UNL     1       3.571  58.989  51.099  1.00  0.00     0.081 A
HETATM    4  C6  UNL     1       3.877  60.267  50.680  1.00  0.00     0.060 A
HETATM    5  C7  UNL     1       4.635  60.463  49.539  1.00  0.00     0.050 A
HETATM    6  C8  UNL     1       4.972  61.791  49.074  1.00  0.00     0.099 C
HETATM    7  N1  UNL     1       5.232  62.853  48.684  1.00  0.00    -0.191 NA
HETATM    8  C9  UNL     1       5.060  59.365  48.855  1.00  0.00     0.059 A
HETATM    9  C10 UNL     1       4.742  58.085  49.292  1.00  0.00     0.076 A
HETATM   10  C11 UNL     1       3.989  57.865  50.426  1.00  0.00     0.017 A
HETATM   11  C12 UNL     1       3.643  56.501  50.903  1.00  0.00    -0.005 C
HETATM   12  C13 UNL     1       4.969  55.722  50.915  1.00  0.00     0.021 C
HETATM   13  C14 UNL     1       2.782  55.851  49.867  1.00  0.00     0.017 C
HETATM   14  C15 UNL     1       1.970  54.689  50.362  1.00  0.00     0.033 C
HETATM   15  C16 UNL     1       1.310  54.943  51.692  1.00  0.00     0.118 C
HETATM   16  C17 UNL     1       2.415  55.215  52.653  1.00  0.00     0.040 C
HETATM   17  C18 UNL     1       3.110  56.483  52.281  1.00  0.00     0.035 C
ENDROOT
BRANCH   9  18
HETATM   18  O2  UNL     1       5.205  57.030  48.553  1.00  0.00    -0.360 OA
ATOM     19  H2  UNL     1       5.850  56.462  48.956  1.00  0.00     0.217 HD
ENDBRANCH   9  18
BRANCH   1  20
HETATM   20  C2  UNL     1       2.006  57.688  54.096  1.00  0.00    -0.064 C
HETATM   21  C1  UNL     1       0.775  57.747  54.578  1.00  0.00     0.016 C
HETATM   22  C3  UNL     1       3.154  57.670  55.031  1.00  0.00     0.045 C
ENDBRANCH   1  20
BRANCH  15  23
HETATM   23  O3  UNL     1       0.584  53.788  52.010  1.00  0.00    -0.396 OA
ATOM     24  H3  UNL     1      -0.176  54.070  52.505  1.00  0.00     0.210 HD
ENDBRANCH  15  23
TORSDOF 3
ENDMDL