MODEL 1
REMARK VINA RESULT: -6.439161897      0.000      0.000
REMARK  3 active torsions:
REMARK  status: ('A' for Active; 'I' for Inactive)
REMARK    1  A    between atoms: C3_3  and  C4_4
REMARK    2  A    between atoms: C7_7  and  O1_8
REMARK    3  A    between atoms: C14_17  and  O2_18
ROOT
HETATM    1  C1  UNL     1       5.488  58.562  45.490  1.00  0.00     0.049 C
HETATM    2  C2  UNL     1       5.498  57.477  46.550  1.00  0.00    -0.044 A
HETATM    3  C3  UNL     1       5.288  57.906  47.832  1.00  0.00    -0.015 A
HETATM    4  C7  UNL     1       5.372  56.998  48.883  1.00  0.00     0.079 A
HETATM    5  C8  UNL     1       5.695  55.641  48.545  1.00  0.00    -0.018 A
HETATM    6  C9  UNL     1       5.632  54.693  49.657  1.00  0.00     0.052 C
HETATM    7  C10 UNL     1       5.920  55.226  47.265  1.00  0.00    -0.007 A
HETATM    8  C11 UNL     1       5.800  56.186  46.256  1.00  0.00    -0.019 A
HETATM    9  C12 UNL     1       5.908  55.811  44.834  1.00  0.00     0.181 C
HETATM   10  C13 UNL     1       4.759  56.296  44.017  1.00  0.00     0.073 C
HETATM   11  N1  UNL     1       3.884  56.637  43.379  1.00  0.00    -0.196 NA
HETATM   12  C14 UNL     1       5.771  54.272  44.796  1.00  0.00     0.280 C
HETATM   13  O3  UNL     1       6.732  53.797  45.608  1.00  0.00    -0.345 OA
HETATM   14  C15 UNL     1       6.420  53.890  47.002  1.00  0.00     0.085 C
HETATM   15  C16 UNL     1       7.853  53.676  47.548  1.00  0.00     0.051 C
HETATM   16  C17 UNL     1       5.555  52.727  47.256  1.00  0.00     0.051 C
ENDROOT
BRANCH  12  17
HETATM   17  O2  UNL     1       5.908  53.830  43.479  1.00  0.00    -0.369 OA
ATOM     18  H2  UNL     1       5.112  53.386  43.212  1.00  0.00     0.212 HD
ENDBRANCH  12  17
BRANCH   3  19
HETATM   19  C4  UNL     1       4.884  59.307  48.060  1.00  0.00     0.014 C
HETATM   20  C5  UNL     1       5.885  60.027  48.980  1.00  0.00     0.015 C
HETATM   21  C6  UNL     1       3.550  59.373  48.862  1.00  0.00     0.015 C
ENDBRANCH   3  19
BRANCH   4  22
HETATM   22  O1  UNL     1       5.168  57.347  50.124  1.00  0.00    -0.360 OA
ATOM     23  H1  UNL     1       4.369  57.777  50.405  1.00  0.00     0.217 HD
ENDBRANCH   4  22
TORSDOF 3
ENDMDL