MODEL 1
REMARK VINA RESULT: -7.022507726      0.000      0.000
REMARK  6 active torsions:
REMARK  status: ('A' for Active; 'I' for Inactive)
REMARK    1  A    between atoms: C2_2  and  C3_3
REMARK    2  A    between atoms: C3_3  and  N1_4
REMARK       I    between atoms: N2_6  and  C5_8
REMARK    3  A    between atoms: N4_10  and  C6_12
REMARK    4  A    between atoms: C6_12  and  C7_13
REMARK    5  A    between atoms: C7_13  and  N5_14
REMARK    6  A    between atoms: N5_14  and  N6_16
ROOT
HETATM    1  N1  UNL     1     -14.568  19.372 -13.287  1.00  0.00    -0.333 N
HETATM    2  C4  UNL     1     -15.970  19.695 -13.123  1.00  0.00     0.177 C
HETATM    3  N2  UNL     1     -16.946  18.856 -13.328  1.00  0.00    -0.312 N
ATOM      4  H2  UNL     1     -16.686  17.915 -13.623  1.00  0.00     0.170 HD
HETATM    5  C5  UNL     1     -18.306  19.110 -13.187  1.00  0.00     0.189 C
HETATM    6  N3  UNL     1     -19.072  19.219 -14.405  1.00  0.00    -0.063 NA
HETATM    7  N4  UNL     1     -18.853  19.237 -12.048  1.00  0.00    -0.363 N
ATOM      8  H4  UNL     1     -18.235  19.142 -11.242  1.00  0.00     0.162 HD
HETATM    9  C9  UNL     1     -16.066  21.077 -12.702  1.00  0.00     0.287 C
HETATM   10  O1  UNL     1     -17.127  21.726 -12.457  1.00  0.00    -0.264 OA
HETATM   11  N7  UNL     1     -14.727  21.535 -12.627  1.00  0.00    -0.328 N
ATOM     12  H7  UNL     1     -14.436  22.512 -12.593  1.00  0.00     0.165 HD
HETATM   13  C10 UNL     1     -13.832  20.389 -12.607  1.00  0.00     0.103 C
HETATM   14  C11 UNL     1     -12.497  20.738 -13.217  1.00  0.00     0.063 C
HETATM   15  C12 UNL     1     -13.635  19.940 -11.175  1.00  0.00     0.063 C
ENDROOT
BRANCH   1  16
HETATM   16  C3  UNL     1     -14.143  18.191 -14.037  1.00  0.00     0.153 C
BRANCH  16  17
HETATM   17  C2  UNL     1     -13.657  18.461 -15.383  1.00  0.00    -0.017 C
HETATM   18  C1  UNL     1     -12.501  18.022 -15.854  1.00  0.00     0.008 C
ENDBRANCH  16  17
ENDBRANCH   1  16
BRANCH   7  19
HETATM   19  C6  UNL     1     -20.222  19.495 -11.758  1.00  0.00     0.138 C
BRANCH  19  20
HETATM   20  C7  UNL     1     -20.435  20.840 -11.152  1.00  0.00     0.132 C
BRANCH  20  21
HETATM   21  N5  UNL     1     -19.792  20.979  -9.863  1.00  0.00    -0.241 NA
HETATM   22  C8  UNL     1     -20.674  21.788  -9.018  1.00  0.00     0.135 C
BRANCH  21  23
HETATM   23  N6  UNL     1     -19.677  19.719  -9.256  1.00  0.00    -0.364 NA
ATOM     24  H62 UNL     1     -18.785  19.704  -8.761  1.00  0.00     0.171 HD
ATOM     25  H61 UNL     1     -20.414  19.607  -8.560  1.00  0.00     0.171 HD
ENDBRANCH  21  23
ENDBRANCH  20  21
ENDBRANCH  19  20
ENDBRANCH   7  19
TORSDOF 6
ENDMDL