MODEL 4
REMARK VINA RESULT: -7.759256525      3.231      3.960
REMARK  6 active torsions:
REMARK  status: ('A' for Active; 'I' for Inactive)
REMARK    1  A    between atoms: N2_6  and  C4_8
REMARK    2  A    between atoms: C4_8  and  C5_9
REMARK    3  A    between atoms: C5_9  and  O1_10
REMARK    4  A    between atoms: N4_15  and  C8_17
REMARK    5  A    between atoms: C8_17  and  C9_21
REMARK    6  A    between atoms: C9_21  and  C10_22
ROOT
HETATM    1  C1  UNL     1     -21.205  20.934  -8.629  1.00  0.00     0.064 C
HETATM    2  C2  UNL     1     -20.523  19.824  -8.857  1.00  0.00     0.127 A
HETATM    3  N1  UNL     1     -20.289  18.897  -7.782  1.00  0.00    -0.177 N
ATOM      4  H1  UNL     1     -20.659  19.119  -6.858  1.00  0.00     0.185 HD
HETATM    5  C3  UNL     1     -19.568  17.689  -7.956  1.00  0.00     0.694 A
HETATM    6  N2  UNL     1     -19.334  16.831  -7.028  1.00  0.00    -0.223 N
ATOM      7  H2  UNL     1     -18.803  15.990  -7.254  1.00  0.00     0.177 HD
HETATM    8  N3  UNL     1     -19.064  17.418  -9.282  1.00  0.00    -0.022 N
ATOM      9  H3  UNL     1     -18.539  16.562  -9.459  1.00  0.00     0.203 HD
HETATM   10  C7  UNL     1     -19.295  18.335 -10.341  1.00  0.00     0.699 A
HETATM   11  N4  UNL     1     -18.802  18.004 -11.500  1.00  0.00    -0.180 N
ATOM     12  H4  UNL     1     -18.281  17.137 -11.631  1.00  0.00     0.185 HD
HETATM   13  N7  UNL     1     -20.022  19.545 -10.155  1.00  0.00    -0.176 N
ATOM     14  H7  UNL     1     -20.179  20.191 -10.929  1.00  0.00     0.185 HD
ENDROOT
BRANCH  11  15
HETATM   15  C8  UNL     1     -19.023  18.909 -12.575  1.00  0.00     0.093 C
HETATM   16  N5  UNL     1     -20.078  18.747 -13.284  1.00  0.00    -0.388 N
ATOM     17  H52 UNL     1     -20.757  18.005 -13.117  1.00  0.00     0.157 HD
ATOM     18  H51 UNL     1     -20.236  19.396 -14.055  1.00  0.00     0.157 HD
BRANCH  15  19
HETATM   19  C9  UNL     1     -18.058  19.964 -12.812  1.00  0.00     0.109 C
BRANCH  19  20
HETATM   20  C10 UNL     1     -16.838  19.626 -13.581  1.00  0.00     0.193 C
HETATM   21  C11 UNL     1     -16.875  19.886 -15.048  1.00  0.00     0.035 C
HETATM   22  C12 UNL     1     -15.379  20.039 -15.353  1.00  0.00     0.029 C
HETATM   23  C13 UNL     1     -14.887  20.791 -14.156  1.00  0.00     0.233 C
HETATM   24  N6  UNL     1     -15.676  20.297 -13.063  1.00  0.00    -0.070 N
ATOM     25  H62 UNL     1     -15.918  21.031 -12.397  1.00  0.00     0.277 HD
ATOM     26  H61 UNL     1     -15.135  19.703 -12.433  1.00  0.00     0.277 HD
ENDBRANCH  19  20
ENDBRANCH  15  19
ENDBRANCH  11  15
BRANCH   6  27
HETATM   27  C4  UNL     1     -19.797  17.023  -5.685  1.00  0.00     0.164 C
BRANCH  27  28
HETATM   28  C5  UNL     1     -18.976  16.193  -4.740  1.00  0.00     0.187 C
BRANCH  28  29
HETATM   29  O1  UNL     1     -19.583  15.210  -4.059  1.00  0.00    -0.394 OA
HETATM   30  C6  UNL     1     -19.606  15.180  -2.710  1.00  0.00     0.201 C
ENDBRANCH  28  29
ENDBRANCH  27  28
ENDBRANCH   6  27
TORSDOF 6
ENDMDL