MODEL 3
REMARK VINA RESULT: -8.806953000      1.617      3.893
REMARK  7 active torsions:
REMARK  status: ('A' for Active; 'I' for Inactive)
REMARK    1  A    between atoms: C2_2  and  C3_3
REMARK    2  A    between atoms: C5_7  and  C6_8
REMARK    3  A    between atoms: C6_8  and  C7_9
REMARK    4  A    between atoms: C7_9  and  N2_10
REMARK    5  A    between atoms: C8_13  and  N4_14
REMARK    6  A    between atoms: C9_19  and  C10_20
REMARK    7  A    between atoms: N7_23  and  N8_25
ROOT
HETATM    1  C10 UNL     1     -21.693  19.749  -9.430  1.00  0.00     0.176 C
HETATM    2  C11 UNL     1     -20.822  20.875  -9.345  1.00  0.00     0.123 C
HETATM    3  N6  UNL     1     -20.124  21.817  -9.250  1.00  0.00    -0.190 NA
HETATM    4  N7  UNL     1     -22.538  19.597  -8.434  1.00  0.00    -0.274 N
ATOM      5  H7  UNL     1     -23.195  18.818  -8.428  1.00  0.00     0.189 HD
ENDROOT
BRANCH   1   6
HETATM    6  C9  UNL     1     -21.719  18.777 -10.523  1.00  0.00     0.177 A
HETATM    7  N2  UNL     1     -20.775  18.465 -11.407  1.00  0.00    -0.259 N
HETATM    8  N3  UNL     1     -21.277  17.523 -12.207  1.00  0.00    -0.129 N
HETATM    9  C8  UNL     1     -22.529  17.249 -11.822  1.00  0.00     0.692 A
ATOM     10  H3  UNL     1     -20.786  17.083 -12.986  1.00  0.00     0.206 HD
HETATM   11  N5  UNL     1     -22.832  18.022 -10.767  1.00  0.00    -0.171 N
ATOM     12  H5  UNL     1     -23.712  18.041 -10.252  1.00  0.00     0.186 HD
BRANCH   7  13
HETATM   13  C7  UNL     1     -19.457  18.985 -11.548  1.00  0.00     0.159 C
BRANCH  13  14
HETATM   14  C6  UNL     1     -19.374  20.207 -12.439  1.00  0.00     0.098 C
BRANCH  14  15
HETATM   15  C5  UNL     1     -18.478  19.943 -13.606  1.00  0.00     0.082 A
HETATM   16  N1  UNL     1     -18.782  19.112 -14.616  1.00  0.00    -0.354 N
HETATM   17  C4  UNL     1     -17.732  19.135 -15.477  1.00  0.00     0.114 A
ATOM     18  H1  UNL     1     -19.639  18.568 -14.718  1.00  0.00     0.166 HD
HETATM   19  C3  UNL     1     -16.764  19.995 -14.990  1.00  0.00     0.025 A
HETATM   20  N10 UNL     1     -17.264  20.471 -13.836  1.00  0.00    -0.348 N
ATOM     21  H10 UNL     1     -16.791  21.137 -13.225  1.00  0.00     0.167 HD
BRANCH  19  22
HETATM   22  C2  UNL     1     -15.453  20.324 -15.604  1.00  0.00     0.054 C
HETATM   23  C1  UNL     1     -14.373  19.609 -14.832  1.00  0.00     0.011 C
ENDBRANCH  19  22
ENDBRANCH  14  15
ENDBRANCH  13  14
ENDBRANCH   7  13
BRANCH   9  24
HETATM   24  N4  UNL     1     -23.340  16.377 -12.370  1.00  0.00    -0.233 N
ATOM     25  H42 UNL     1     -24.251  16.599 -12.771  1.00  0.00     0.174 HD
ATOM     26  H41 UNL     1     -23.174  15.375 -12.469  1.00  0.00     0.174 HD
ENDBRANCH   9  24
ENDBRANCH   1   6
BRANCH   4  27
HETATM   27  N8  UNL     1     -22.521  20.509  -7.398  1.00  0.00    -0.248 N
HETATM   28  N9  UNL     1     -23.616  20.936  -6.894  1.00  0.00    -0.331 N
ATOM     29  H92 UNL     1     -24.498  20.592  -7.272  1.00  0.00     0.178 HD
ATOM     30  H91 UNL     1     -23.603  21.610  -6.129  1.00  0.00     0.178 HD
ATOM     31  H8  UNL     1     -21.630  20.844  -7.032  1.00  0.00     0.207 HD
ENDBRANCH   4  27
TORSDOF 7
ENDMDL