MODEL 4
REMARK VINA RESULT: -7.505130742      2.113      2.809
REMARK  6 active torsions:
REMARK  status: ('A' for Active; 'I' for Inactive)
REMARK       I    between atoms: C1_2  and  N5_13
REMARK    1  A    between atoms: N2_3  and  N3_5
REMARK    2  A    between atoms: N3_5  and  S1_7
REMARK    3  A    between atoms: S1_7  and  N4_8
REMARK    4  A    between atoms: N5_13  and  C2_15
REMARK    5  A    between atoms: C2_15  and  C3_16
REMARK    6  A    between atoms: C3_16  and  N6_17
ROOT
HETATM    1  N1  UNL     1     -19.546  18.725 -15.181  1.00  0.00    -0.062 NA
HETATM    2  C1  UNL     1     -18.949  19.464 -14.123  1.00  0.00     0.203 C
HETATM    3  N2  UNL     1     -19.369  19.283 -12.930  1.00  0.00    -0.263 N
ATOM      4  H2  UNL     1     -18.924  19.824 -12.188  1.00  0.00     0.190 HD
HETATM    5  N5  UNL     1     -17.910  20.366 -14.453  1.00  0.00    -0.362 N
ATOM      6  H5  UNL     1     -17.891  20.818 -15.367  1.00  0.00     0.162 HD
ENDROOT
BRANCH   3   7
HETATM    7  N3  UNL     1     -20.377  18.415 -12.566  1.00  0.00    -0.208 N
ATOM      8  H3  UNL     1     -21.212  18.352 -13.150  1.00  0.00     0.201 HD
BRANCH   7   9
HETATM    9  S1  UNL     1     -20.268  17.438 -11.160  1.00  0.00     0.330 S
HETATM   10  O1  UNL     1     -21.035  18.024 -10.001  1.00  0.00    -0.181 OA
HETATM   11  O2  UNL     1     -20.839  16.059 -11.400  1.00  0.00    -0.181 OA
BRANCH   9  12
HETATM   12  N4  UNL     1     -18.616  17.249 -10.695  1.00  0.00    -0.310 N
ATOM     13  H42 UNL     1     -18.246  17.506  -9.779  1.00  0.00     0.170 HD
ATOM     14  H41 UNL     1     -18.079  16.849 -11.463  1.00  0.00     0.170 HD
ENDBRANCH   9  12
ENDBRANCH   7   9
ENDBRANCH   3   7
BRANCH   5  15
HETATM   15  C2  UNL     1     -16.881  20.638 -13.490  1.00  0.00     0.150 C
BRANCH  15  16
HETATM   16  C3  UNL     1     -16.264  19.386 -12.923  1.00  0.00     0.257 C
BRANCH  16  17
HETATM   17  N6  UNL     1     -14.870  19.388 -13.171  1.00  0.00    -0.065 N
HETATM   18  C4  UNL     1     -14.100  18.571 -12.245  1.00  0.00     0.238 C
HETATM   19  C5  UNL     1     -12.722  19.237 -12.143  1.00  0.00     0.034 C
HETATM   20  C6  UNL     1     -12.819  20.241 -13.253  1.00  0.00     0.015 C
HETATM   21  C7  UNL     1     -13.008  19.473 -14.542  1.00  0.00     0.034 C
HETATM   22  C9  UNL     1     -14.262  20.724 -13.022  1.00  0.00     0.242 C
HETATM   23  C8  UNL     1     -14.492  19.087 -14.529  1.00  0.00     0.238 C
ENDBRANCH  16  17
ENDBRANCH  15  16
ENDBRANCH   5  15
TORSDOF 6
ENDMDL