MODEL 1
REMARK VINA RESULT: -7.821588147      0.000      0.000
REMARK  7 active torsions:
REMARK  status: ('A' for Active; 'I' for Inactive)
REMARK    1  A    between atoms: C2_3  and  C3_4
REMARK    2  A    between atoms: C3_4  and  C4_5
REMARK    3  A    between atoms: C4_5  and  C5_6
REMARK    4  A    between atoms: C5_6  and  C6_7
REMARK    5  A    between atoms: C6_7  and  N2_8
REMARK       I    between atoms: C7_10  and  N3_11
REMARK       I    between atoms: C7_10  and  N4_15
REMARK    6  A    between atoms: N3_11  and  O1_13
REMARK    7  A    between atoms: C11_23  and  N7_24
ROOT
HETATM    1  C3  UNL     1     -16.353  20.284 -15.073  1.00  0.00     0.059 C
ENDROOT
BRANCH   1   2
HETATM    2  C2  UNL     1     -15.136  19.863 -14.345  1.00  0.00     0.049 A
HETATM    3  N1  UNL     1     -14.842  20.510 -13.089  1.00  0.00    -0.169 N
HETATM    4  C1  UNL     1     -15.671  21.401 -12.707  1.00  0.00     0.146 C
HETATM    5  C11 UNL     1     -13.704  20.191 -12.302  1.00  0.00     0.701 A
HETATM    6  N6  UNL     1     -12.837  19.137 -12.876  1.00  0.00    -0.132 N
HETATM    7  N5  UNL     1     -13.156  18.549 -14.075  1.00  0.00    -0.296 N
ATOM      8  H6  UNL     1     -11.997  18.846 -12.377  1.00  0.00     0.205 HD
HETATM    9  C10 UNL     1     -14.319  18.934 -14.793  1.00  0.00     0.133 A
ATOM     10  H5  UNL     1     -12.547  17.824 -14.456  1.00  0.00     0.186 HD
BRANCH   5  11
HETATM   11  N7  UNL     1     -13.344  20.663 -11.225  1.00  0.00    -0.210 N
HETATM   12  C12 UNL     1     -12.540  20.461 -10.147  1.00  0.00     0.137 C
ATOM     13  H7  UNL     1     -13.838  21.545 -11.087  1.00  0.00     0.182 HD
ENDBRANCH   5  11
ENDBRANCH   1   2
BRANCH   1  14
HETATM   14  C4  UNL     1     -17.435  19.235 -15.024  1.00  0.00     0.008 C
BRANCH  14  15
HETATM   15  C5  UNL     1     -18.671  19.859 -14.415  1.00  0.00     0.020 C
BRANCH  15  16
HETATM   16  C6  UNL     1     -18.891  19.426 -12.997  1.00  0.00     0.138 C
BRANCH  16  17
HETATM   17  N2  UNL     1     -19.982  18.485 -12.862  1.00  0.00    -0.225 N
HETATM   18  C7  UNL     1     -20.729  18.423 -11.813  1.00  0.00     0.695 C
HETATM   19  N3  UNL     1     -21.764  17.441 -11.830  1.00  0.00    -0.099 N
HETATM   20  N4  UNL     1     -20.570  19.258 -10.686  1.00  0.00    -0.225 N
ATOM     21  H3  UNL     1     -22.751  17.686 -11.750  1.00  0.00     0.213 HD
HETATM   22  C8  UNL     1     -19.922  18.732  -9.498  1.00  0.00     0.168 C
HETATM   23  C9  UNL     1     -21.022  20.625 -10.646  1.00  0.00     0.168 C
ATOM     24  H2  UNL     1     -20.168  17.842 -13.632  1.00  0.00     0.177 HD
BRANCH  19  25
HETATM   25  O1  UNL     1     -21.336  16.144 -11.960  1.00  0.00    -0.276 OA
ATOM     26  H1  UNL     1     -21.681  15.538 -11.315  1.00  0.00     0.245 HD
ENDBRANCH  19  25
ENDBRANCH  16  17
ENDBRANCH  15  16
ENDBRANCH  14  15
ENDBRANCH   1  14
TORSDOF 7
ENDMDL