MODEL 3
REMARK VINA RESULT: -5.678167244      2.536      5.412
REMARK  7 active torsions:
REMARK  status: ('A' for Active; 'I' for Inactive)
REMARK       I    between atoms: N2_7  and  C6_9
REMARK    1  A    between atoms: N4_11  and  N5_13
REMARK    2  A    between atoms: N6_16  and  C7_17
REMARK    3  A    between atoms: N6_16  and  C9_19
REMARK    4  A    between atoms: C9_19  and  C10_20
REMARK    5  A    between atoms: C10_20  and  C11_21
REMARK    6  A    between atoms: C11_21  and  C12_22
REMARK    7  A    between atoms: C12_22  and  N7_23
ROOT
HETATM    1  C1  UNL     1     -20.198  18.838  -6.855  1.00  0.00     0.017 C
HETATM    2  C2  UNL     1     -20.319  18.301  -8.042  1.00  0.00    -0.045 C
HETATM    3  C3  UNL     1     -19.582  17.080  -8.451  1.00  0.00     0.160 C
HETATM    4  N1  UNL     1     -19.137  17.270  -9.795  1.00  0.00    -0.347 N
HETATM    5  C4  UNL     1     -18.237  16.245 -10.332  1.00  0.00     0.153 C
HETATM    6  C5  UNL     1     -19.508  18.378 -10.643  1.00  0.00     0.285 C
HETATM    7  N2  UNL     1     -18.946  18.410 -11.757  1.00  0.00    -0.295 N
ATOM      8  H2  UNL     1     -18.311  17.617 -11.852  1.00  0.00     0.171 HD
HETATM    9  C6  UNL     1     -18.915  19.174 -12.887  1.00  0.00     0.209 C
HETATM   10  N3  UNL     1     -18.215  20.433 -13.016  1.00  0.00    -0.062 NA
HETATM   11  N4  UNL     1     -19.525  18.783 -13.960  1.00  0.00    -0.280 N
ATOM     12  H4  UNL     1     -20.035  17.900 -13.970  1.00  0.00     0.189 HD
HETATM   13  N6  UNL     1     -20.441  19.353 -10.244  1.00  0.00    -0.003 N
HETATM   14  C13 UNL     1     -21.222  18.871  -9.098  1.00  0.00     0.282 C
ENDROOT
BRANCH  13  15
HETATM   15  C7  UNL     1     -19.881  20.632  -9.882  1.00  0.00     0.243 C
HETATM   16  C8  UNL     1     -20.786  21.584  -9.207  1.00  0.00     0.035 C
ENDBRANCH  13  15
BRANCH  13  17
HETATM   17  C9  UNL     1     -21.443  19.643 -11.284  1.00  0.00     0.248 C
BRANCH  17  18
HETATM   18  C10 UNL     1     -22.817  19.316 -10.744  1.00  0.00     0.030 C
BRANCH  18  19
HETATM   19  C11 UNL     1     -23.546  18.347 -11.667  1.00  0.00     0.029 C
BRANCH  19  20
HETATM   20  C12 UNL     1     -22.807  17.038 -11.818  1.00  0.00     0.229 C
BRANCH  20  21
HETATM   21  N7  UNL     1     -23.595  16.072 -12.566  1.00  0.00    -0.079 N
ATOM     22  H73 UNL     1     -23.004  15.361 -12.997  1.00  0.00     0.274 HD
ATOM     23  H72 UNL     1     -24.137  15.471 -11.945  1.00  0.00     0.274 HD
ATOM     24  H71 UNL     1     -24.189  16.534 -13.255  1.00  0.00     0.274 HD
ENDBRANCH  20  21
ENDBRANCH  19  20
ENDBRANCH  18  19
ENDBRANCH  17  18
ENDBRANCH  13  17
BRANCH  11  25
HETATM   25  N5  UNL     1     -19.477  19.577 -15.095  1.00  0.00    -0.343 N
ATOM     26  H52 UNL     1     -19.418  20.590 -14.995  1.00  0.00     0.176 HD
ATOM     27  H51 UNL     1     -19.503  19.136 -16.015  1.00  0.00     0.176 HD
ENDBRANCH  11  25
TORSDOF 7
ENDMDL