MODEL 1
REMARK VINA RESULT: -6.620331201      0.000      0.000
REMARK  7 active torsions:
REMARK  status: ('A' for Active; 'I' for Inactive)
REMARK    1  A    between atoms: C2_2  and  C3_3
REMARK    2  A    between atoms: C3_3  and  N1_4
REMARK    3  A    between atoms: N2_6  and  C5_8
REMARK    4  A    between atoms: C5_8  and  C6_12
REMARK    5  A    between atoms: C6_12  and  N4_13
REMARK    6  A    between atoms: N4_13  and  C9_16
REMARK    7  A    between atoms: C9_16  and  N5_17
ROOT
HETATM    1  N1  UNL     1     -20.667  18.402 -10.987  1.00  0.00    -0.333 N
HETATM    2  C4  UNL     1     -20.124  19.365 -11.929  1.00  0.00     0.176 C
HETATM    3  N2  UNL     1     -19.394  18.989 -12.880  1.00  0.00    -0.327 N
ATOM      4  H2  UNL     1     -19.253  17.979 -12.889  1.00  0.00     0.169 HD
HETATM    5  C10 UNL     1     -20.611  20.672 -11.518  1.00  0.00     0.287 C
HETATM    6  O1  UNL     1     -20.358  21.788 -12.089  1.00  0.00    -0.264 OA
HETATM    7  N6  UNL     1     -21.413  20.478 -10.380  1.00  0.00    -0.328 N
ATOM      8  H6  UNL     1     -22.074  21.150  -9.990  1.00  0.00     0.165 HD
HETATM    9  C11 UNL     1     -21.134  19.158  -9.858  1.00  0.00     0.103 C
HETATM   10  C12 UNL     1     -20.044  19.348  -8.813  1.00  0.00     0.063 C
HETATM   11  C13 UNL     1     -22.405  18.625  -9.255  1.00  0.00     0.063 C
ENDROOT
BRANCH   3  12
HETATM   12  C5  UNL     1     -18.736  19.626 -13.918  1.00  0.00     0.103 C
HETATM   13  N3  UNL     1     -19.146  19.391 -15.137  1.00  0.00    -0.387 N
ATOM     14  H32 UNL     1     -19.920  18.739 -15.272  1.00  0.00     0.157 HD
ATOM     15  H31 UNL     1     -18.661  19.860 -15.902  1.00  0.00     0.157 HD
BRANCH  12  16
HETATM   16  C6  UNL     1     -17.624  20.561 -13.723  1.00  0.00     0.314 C
BRANCH  16  17
HETATM   17  N4  UNL     1     -16.298  20.047 -13.710  1.00  0.00    -0.045 N
HETATM   18  C7  UNL     1     -15.371  20.975 -13.046  1.00  0.00     0.274 C
HETATM   19  C8  UNL     1     -16.301  18.868 -12.812  1.00  0.00     0.274 C
BRANCH  17  20
HETATM   20  C9  UNL     1     -15.718  19.624 -14.931  1.00  0.00     0.464 C
BRANCH  20  21
HETATM   21  N5  UNL     1     -15.462  20.635 -15.889  1.00  0.00    -0.055 N
ATOM     22  H53 UNL     1     -16.310  20.827 -16.422  1.00  0.00     0.276 HD
ATOM     23  H52 UNL     1     -15.333  21.530 -15.418  1.00  0.00     0.276 HD
ATOM     24  H51 UNL     1     -14.685  20.467 -16.528  1.00  0.00     0.276 HD
ENDBRANCH  20  21
ENDBRANCH  17  20
ENDBRANCH  16  17
ENDBRANCH  12  16
ENDBRANCH   3  12
BRANCH   1  25
HETATM   25  C3  UNL     1     -20.720  16.963 -11.142  1.00  0.00     0.153 C
BRANCH  25  26
HETATM   26  C2  UNL     1     -19.690  16.290 -10.305  1.00  0.00    -0.017 C
HETATM   27  C1  UNL     1     -18.434  16.607 -10.464  1.00  0.00     0.008 C
ENDBRANCH  25  26
ENDBRANCH   1  25
TORSDOF 7
ENDMDL