MODEL 3
REMARK VINA RESULT: -6.881996918      3.353      5.759
REMARK  6 active torsions:
REMARK  status: ('A' for Active; 'I' for Inactive)
REMARK    1  A    between atoms: N1_2  and  C2_3
REMARK    2  A    between atoms: C2_3  and  C3_4
REMARK    3  A    between atoms: C3_4  and  C4_5
REMARK    4  A    between atoms: C4_5  and  C5_6
REMARK    5  A    between atoms: C5_6  and  N2_7
REMARK    6  A    between atoms: N2_7  and  C6_9
ROOT
HETATM    1  C1  UNL     1     -15.008  18.753 -13.320  1.00  0.00     0.297 C
HETATM    2  N1  UNL     1     -15.187  20.174 -13.530  1.00  0.00     0.010 N
HETATM    3  C7  UNL     1     -15.420  20.384 -14.969  1.00  0.00     0.264 C
HETATM    4  C8  UNL     1     -16.827  19.861 -15.121  1.00  0.00     0.089 C
HETATM    5  C9  UNL     1     -17.452  20.153 -13.805  1.00  0.00     0.185 C
HETATM    6  C10 UNL     1     -18.623  21.116 -13.895  1.00  0.00     0.292 C
HETATM    7  N4  UNL     1     -19.201  20.932 -12.553  1.00  0.00    -0.050 N
ATOM      8  H41 UNL     1     -20.213  21.053 -12.516  1.00  0.00     0.279 HD
ATOM      9  H42 UNL     1     -18.972  21.679 -11.897  1.00  0.00     0.279 HD
HETATM   10  C11 UNL     1     -18.745  19.611 -12.133  1.00  0.00     0.402 C
HETATM   11  O1  UNL     1     -18.063  19.064 -13.193  1.00  0.00    -0.334 OA
HETATM   12  N5  UNL     1     -16.385  20.658 -13.006  1.00  0.00    -0.006 NA
ENDROOT
BRANCH   2  13
HETATM   13  C2  UNL     1     -14.111  20.952 -13.011  1.00  0.00     0.260 C
BRANCH  13  14
HETATM   14  C3  UNL     1     -12.763  20.269 -13.129  1.00  0.00     0.031 C
BRANCH  14  15
HETATM   15  C4  UNL     1     -12.029  20.352 -11.808  1.00  0.00     0.021 C
BRANCH  15  16
HETATM   16  C5  UNL     1     -12.968  20.420 -10.633  1.00  0.00     0.121 C
BRANCH  16  17
HETATM   17  N2  UNL     1     -12.240  20.118  -9.426  1.00  0.00    -0.369 N
ATOM     18  H2  UNL     1     -11.730  20.868  -8.958  1.00  0.00     0.161 HD
BRANCH  17  19
HETATM   19  C6  UNL     1     -12.209  18.822  -8.868  1.00  0.00     0.180 C
HETATM   20  N3  UNL     1     -13.361  18.157  -8.401  1.00  0.00    -0.070 NA
HETATM   21  S1  UNL     1     -10.773  18.030  -8.747  1.00  0.00    -0.044 SA
ENDBRANCH  17  19
ENDBRANCH  16  17
ENDBRANCH  15  16
ENDBRANCH  14  15
ENDBRANCH  13  14
ENDBRANCH   2  13
TORSDOF 6
ENDMDL