MODEL 1
REMARK VINA RESULT: -6.683605195      0.000      0.000
REMARK  8 active torsions:
REMARK  status: ('A' for Active; 'I' for Inactive)
REMARK       I    between atoms: N1_2  and  C3_4
REMARK    1  A    between atoms: N3_6  and  C4_8
REMARK    2  A    between atoms: C4_8  and  N4_10
REMARK    3  A    between atoms: N4_10  and  C5_12
REMARK    4  A    between atoms: C5_12  and  C6_13
REMARK    5  A    between atoms: C6_13  and  C7_14
REMARK    6  A    between atoms: C7_14  and  N5_15
REMARK    7  A    between atoms: N5_15  and  S2_17
REMARK    8  A    between atoms: S2_17  and  N6_18
ROOT
HETATM    1  N4  UNL     1     -19.536  18.779 -13.652  1.00  0.00    -0.367 N
ATOM      2  H4  UNL     1     -20.140  17.979 -13.842  1.00  0.00     0.161 HD
ENDROOT
BRANCH   1   3
HETATM    3  C4  UNL     1     -19.169  19.084 -12.312  1.00  0.00     0.174 C
HETATM    4  S1  UNL     1     -19.570  20.541 -11.641  1.00  0.00    -0.041 SA
BRANCH   3   5
HETATM    5  N3  UNL     1     -18.451  18.118 -11.564  1.00  0.00    -0.307 N
HETATM    6  C3  UNL     1     -19.099  17.414 -10.669  1.00  0.00     0.191 C
HETATM    7  N1  UNL     1     -20.488  17.598 -10.435  1.00  0.00    -0.364 N
HETATM    8  N2  UNL     1     -18.356  16.457  -9.938  1.00  0.00    -0.063 NA
HETATM    9  C1  UNL     1     -20.932  18.203  -9.203  1.00  0.00     0.151 C
HETATM   10  C2  UNL     1     -21.408  17.158 -11.467  1.00  0.00     0.151 C
ATOM     11  H3  UNL     1     -17.453  17.974 -11.719  1.00  0.00     0.171 HD
ENDBRANCH   3   5
ENDBRANCH   1   3
BRANCH   1  12
HETATM   12  C5  UNL     1     -19.066  19.585 -14.738  1.00  0.00     0.123 C
BRANCH  12  13
HETATM   13  C6  UNL     1     -17.666  19.186 -15.134  1.00  0.00     0.040 C
BRANCH  13  14
HETATM   14  C7  UNL     1     -16.724  20.302 -14.799  1.00  0.00     0.135 C
BRANCH  14  15
HETATM   15  N5  UNL     1     -15.478  20.208 -15.541  1.00  0.00    -0.303 N
ATOM     16  H5  UNL     1     -15.400  20.404 -16.539  1.00  0.00     0.173 HD
BRANCH  15  17
HETATM   17  S2  UNL     1     -14.164  19.736 -14.570  1.00  0.00     0.312 S
HETATM   18  O1  UNL     1     -13.404  20.896 -14.003  1.00  0.00    -0.183 OA
HETATM   19  O2  UNL     1     -14.546  18.846 -13.437  1.00  0.00    -0.183 OA
BRANCH  17  20
HETATM   20  N6  UNL     1     -13.046  18.864 -15.587  1.00  0.00    -0.312 N
ATOM     21  H62 UNL     1     -13.294  18.114 -16.232  1.00  0.00     0.170 HD
ATOM     22  H61 UNL     1     -12.115  19.242 -15.414  1.00  0.00     0.170 HD
ENDBRANCH  17  20
ENDBRANCH  15  17
ENDBRANCH  14  15
ENDBRANCH  13  14
ENDBRANCH  12  13
ENDBRANCH   1  12
TORSDOF 8
ENDMDL