MODEL 1
REMARK VINA RESULT: -6.872705664      0.000      0.000
REMARK  9 active torsions:
REMARK  status: ('A' for Active; 'I' for Inactive)
REMARK    1  A    between atoms: N1_2  and  C2_3
REMARK    2  A    between atoms: C2_3  and  C3_4
REMARK    3  A    between atoms: C4_5  and  C5_6
REMARK    4  A    between atoms: C6_7  and  C7_8
REMARK    5  A    between atoms: C7_8  and  O1_9
REMARK    6  A    between atoms: O1_9  and  C8_10
REMARK    7  A    between atoms: C8_10  and  C9_11
REMARK    8  A    between atoms: C9_11  and  N2_12
REMARK       I    between atoms: N2_12  and  C10_14
REMARK    9  A    between atoms: C13_21  and  O2_22
ROOT
HETATM    1  C5  UNL     1     -18.402  19.466 -12.904  1.00  0.00    -0.013 C
HETATM    2  C6  UNL     1     -19.469  19.388 -12.343  1.00  0.00    -0.066 C
ENDROOT
BRANCH   1   3
HETATM    3  C4  UNL     1     -17.146  19.573 -13.545  1.00  0.00    -0.013 C
HETATM    4  C3  UNL     1     -16.067  19.683 -14.108  1.00  0.00    -0.065 C
BRANCH   4   5
HETATM    5  C2  UNL     1     -14.784  19.835 -14.796  1.00  0.00     0.331 C
BRANCH   5   6
HETATM    6  N1  UNL     1     -13.734  19.192 -14.022  1.00  0.00    -0.059 N
HETATM    7  C1  UNL     1     -13.172  18.122 -14.827  1.00  0.00     0.273 C
HETATM    8  C11 UNL     1     -12.758  20.172 -13.662  1.00  0.00     0.240 C
HETATM    9  C12 UNL     1     -13.176  20.611 -12.266  1.00  0.00     0.061 C
HETATM   10  C13 UNL     1     -13.523  19.247 -11.655  1.00  0.00     0.145 C
HETATM   11  C14 UNL     1     -14.261  18.608 -12.822  1.00  0.00     0.269 C
BRANCH  10  12
HETATM   12  O2  UNL     1     -12.356  18.502 -11.475  1.00  0.00    -0.394 OA
ATOM     13  H2  UNL     1     -12.571  17.577 -11.439  1.00  0.00     0.210 HD
ENDBRANCH  10  12
ENDBRANCH   5   6
ENDBRANCH   4   5
ENDBRANCH   1   3
BRANCH   2  14
HETATM   14  C7  UNL     1     -20.769  19.318 -11.664  1.00  0.00     0.262 C
BRANCH  14  15
HETATM   15  O1  UNL     1     -20.749  20.016 -10.466  1.00  0.00    -0.378 OA
BRANCH  15  16
HETATM   16  C8  UNL     1     -19.943  19.435  -9.510  1.00  0.00     0.188 C
BRANCH  16  17
HETATM   17  C9  UNL     1     -20.411  18.098  -9.049  1.00  0.00     0.148 C
BRANCH  17  18
HETATM   18  N2  UNL     1     -19.305  17.166  -9.004  1.00  0.00    -0.363 N
HETATM   19  C10 UNL     1     -18.943  16.538 -10.213  1.00  0.00     0.181 C
HETATM   20  N3  UNL     1     -19.823  15.948 -10.914  1.00  0.00    -0.374 N
HETATM   21  N4  UNL     1     -17.601  16.570 -10.639  1.00  0.00    -0.064 NA
ATOM     22  H32 UNL     1     -20.795  15.925 -10.607  1.00  0.00     0.158 HD
ATOM     23  H31 UNL     1     -19.562  15.494 -11.790  1.00  0.00     0.158 HD
ATOM     24  H2  UNL     1     -18.809  16.971  -8.135  1.00  0.00     0.162 HD
ENDBRANCH  17  18
ENDBRANCH  16  17
ENDBRANCH  15  16
ENDBRANCH  14  15
ENDBRANCH   2  14
TORSDOF 9
ENDMDL