MODEL 2
REMARK VINA RESULT: -8.294452456      2.361      4.540
REMARK  9 active torsions:
REMARK  status: ('A' for Active; 'I' for Inactive)
REMARK    1  A    between atoms: N1_9  and  C9_10
REMARK    2  A    between atoms: C9_10  and  C10_11
REMARK    3  A    between atoms: C10_11  and  O1_12
REMARK    4  A    between atoms: C10_11  and  O3_16
REMARK    5  A    between atoms: O1_12  and  C11_13
REMARK    6  A    between atoms: O3_16  and  C13_17
REMARK    7  A    between atoms: C19_26  and  C20_27
REMARK    8  A    between atoms: C20_27  and  O6_28
REMARK    9  A    between atoms: C21_30  and  O7_31
ROOT
HETATM    1  C9  UNL     1      18.315 -12.057  11.668  1.00  0.00     0.187 C
ENDROOT
BRANCH   1   2
HETATM    2  N1  UNL     1      17.600 -12.310  12.904  1.00  0.00    -0.348 N
HETATM    3  C6  UNL     1      16.711 -11.159  13.259  1.00  0.00     0.027 C
HETATM    4  C5  UNL     1      15.629 -11.855  13.942  1.00  0.00     0.031 C
HETATM    5  C7  UNL     1      16.165 -10.502  12.020  1.00  0.00     0.038 C
HETATM    6  C8  UNL     1      17.403 -10.132  14.101  1.00  0.00     0.038 C
HETATM    7  C4  UNL     1      14.428 -11.437  14.585  1.00  0.00     0.007 C
HETATM    8  C3  UNL     1      14.177 -12.722  15.441  1.00  0.00     0.039 C
HETATM    9  C2  UNL     1      14.451 -13.943  14.572  1.00  0.00    -0.056 C
HETATM   10  C1  UNL     1      13.379 -14.207  13.834  1.00  0.00     0.020 C
HETATM   11  C23 UNL     1      15.649 -14.792  14.485  1.00  0.00    -0.015 C
HETATM   12  C22 UNL     1      16.909 -14.609  14.131  1.00  0.00     0.004 C
HETATM   13  C24 UNL     1      15.475 -16.226  14.881  1.00  0.00    -0.056 C
HETATM   14  C21 UNL     1      17.717 -13.503  13.665  1.00  0.00     0.146 C
HETATM   15  C27 UNL     1      17.533 -16.035  14.252  1.00  0.00     0.048 C
HETATM   16  C26 UNL     1      16.828 -16.529  15.481  1.00  0.00     0.043 C
HETATM   17  C25 UNL     1      14.521 -17.095  14.806  1.00  0.00     0.020 C
BRANCH  14  18
HETATM   18  O7  UNL     1      19.000 -13.576  14.041  1.00  0.00    -0.346 OA
ATOM     19  H7  UNL     1      18.991 -13.852  14.950  1.00  0.00     0.219 HD
ENDBRANCH  14  18
ENDBRANCH   1   2
BRANCH   1  20
HETATM   20  C10 UNL     1      18.451 -13.082  10.638  1.00  0.00     0.288 C
BRANCH  20  21
HETATM   21  O1  UNL     1      17.319 -13.771  10.185  1.00  0.00    -0.288 OA
BRANCH  21  22
HETATM   22  C11 UNL     1      16.160 -13.129   9.753  1.00  0.00     0.257 C
HETATM   23  C12 UNL     1      14.911 -13.269  10.541  1.00  0.00     0.126 C
HETATM   24  O2  UNL     1      16.230 -12.461   8.714  1.00  0.00    -0.266 OA
ENDBRANCH  21  22
ENDBRANCH  20  21
BRANCH  20  25
HETATM   25  O3  UNL     1      19.197 -14.129  11.277  1.00  0.00    -0.346 OA
BRANCH  25  26
HETATM   26  C13 UNL     1      20.377 -14.410  10.647  1.00  0.00     0.204 C
HETATM   27  C14 UNL     1      21.348 -14.871  11.694  1.00  0.00     0.163 C
HETATM   28  O4  UNL     1      21.068 -14.883  12.881  1.00  0.00    -0.295 OA
HETATM   29  C15 UNL     1      22.677 -15.315  11.256  1.00  0.00     0.163 C
HETATM   30  C16 UNL     1      22.547 -16.166  10.048  1.00  0.00     0.173 C
HETATM   31  O5  UNL     1      23.431 -16.972   9.821  1.00  0.00    -0.294 OA
HETATM   32  C17 UNL     1      21.410 -16.088   9.108  1.00  0.00     0.168 C
HETATM   33  C18 UNL     1      21.839 -15.166   7.958  1.00  0.00     0.061 C
HETATM   34  F1  UNL     1      21.228 -17.327   8.547  1.00  0.00    -0.234 F
HETATM   35  C19 UNL     1      20.145 -15.614   9.744  1.00  0.00     0.093 C
BRANCH  35  36
HETATM   36  C20 UNL     1      19.551 -16.704  10.590  1.00  0.00     0.175 C
BRANCH  36  37
HETATM   37  O6  UNL     1      18.168 -16.642  10.522  1.00  0.00    -0.400 OA
ATOM     38  H6  UNL     1      17.835 -17.424  10.097  1.00  0.00     0.209 HD
ENDBRANCH  36  37
ENDBRANCH  35  36
ENDBRANCH  25  26
ENDBRANCH  20  25
ENDBRANCH   1  20
TORSDOF 9
ENDMDL