MODEL 4
REMARK VINA RESULT: -6.604522666      1.990      2.896
REMARK  8 active torsions:
REMARK  status: ('A' for Active; 'I' for Inactive)
REMARK    1  A    between atoms: O1_2  and  C2_3
REMARK    2  A    between atoms: C2_3  and  C3_5
REMARK    3  A    between atoms: C6_9  and  O3_10
REMARK    4  A    between atoms: O3_10  and  C7_11
REMARK    5  A    between atoms: C13_18  and  N2_19
REMARK    6  A    between atoms: C15_21  and  N3_22
REMARK    7  A    between atoms: C17_27  and  O4_29
REMARK    8  A    between atoms: C21_32  and  O5_33
ROOT
HETATM    1  C3  UNL     1      17.675 -11.460   9.589  1.00  0.00     0.076 A
HETATM    2  C4  UNL     1      16.333 -11.532   9.988  1.00  0.00     0.042 A
HETATM    3  C5  UNL     1      15.876 -12.613  10.664  1.00  0.00     0.047 A
HETATM    4 BR1  UNL     1      14.024 -12.592  11.135  1.00  0.00    -0.048 Br
HETATM    5  C6  UNL     1      16.661 -13.700  11.012  1.00  0.00     0.116 A
HETATM    6  C13 UNL     1      17.971 -13.629  10.625  1.00  0.00     0.100 A
HETATM    7  C21 UNL     1      18.495 -12.521   9.915  1.00  0.00     0.111 A
ENDROOT
BRANCH   6   8
HETATM    8  N2  UNL     1      18.960 -14.642  10.936  1.00  0.00    -0.371 N
HETATM    9  C14 UNL     1      19.279 -15.618   9.933  1.00  0.00     0.156 C
HETATM   10  C15 UNL     1      20.688 -16.087   9.911  1.00  0.00     0.204 C
HETATM   11  C16 UNL     1      21.176 -16.366  11.288  1.00  0.00     0.073 C
HETATM   12  C17 UNL     1      20.990 -15.203  12.246  1.00  0.00     0.074 C
HETATM   13  C18 UNL     1      21.197 -15.822  13.641  1.00  0.00     0.047 C
HETATM   14  C20 UNL     1      19.616 -14.645  12.209  1.00  0.00     0.161 C
BRANCH  10  15
HETATM   15  N3  UNL     1      21.590 -15.274   9.121  1.00  0.00    -0.073 N
ATOM     16  H33 UNL     1      21.062 -14.693   8.470  1.00  0.00     0.274 HD
ATOM     17  H32 UNL     1      22.013 -14.551   9.703  1.00  0.00     0.274 HD
ATOM     18  H31 UNL     1      22.313 -15.794   8.623  1.00  0.00     0.274 HD
ENDBRANCH  10  15
BRANCH  12  19
HETATM   19  O4  UNL     1      22.023 -14.330  12.010  1.00  0.00    -0.384 OA
HETATM   20  C19 UNL     1      23.283 -14.753  12.322  1.00  0.00     0.202 C
ENDBRANCH  12  19
ENDBRANCH   6   8
BRANCH   5  21
HETATM   21  O3  UNL     1      16.185 -14.764  11.683  1.00  0.00    -0.342 OA
BRANCH  21  22
HETATM   22  C7  UNL     1      15.903 -15.074  12.980  1.00  0.00     0.132 C
HETATM   23  C8  UNL     1      16.741 -16.300  13.395  1.00  0.00     0.062 C
HETATM   24  C9  UNL     1      17.122 -16.193  14.866  1.00  0.00     0.274 C
HETATM   25  N1  UNL     1      16.017 -15.707  15.627  1.00  0.00     0.084 N
HETATM   26  C10 UNL     1      14.886 -16.575  15.638  1.00  0.00     0.309 C
HETATM   27  C11 UNL     1      15.705 -14.334  15.291  1.00  0.00     0.274 C
HETATM   28  C12 UNL     1      16.363 -13.990  13.972  1.00  0.00     0.062 C
ENDBRANCH  21  22
ENDBRANCH   5  21
BRANCH   7  29
HETATM   29  O5  UNL     1      19.802 -12.516   9.560  1.00  0.00    -0.357 OA
ATOM     30  H5  UNL     1      20.176 -13.248   9.085  1.00  0.00     0.217 HD
ENDBRANCH   7  29
BRANCH   1  31
HETATM   31  C2  UNL     1      18.107 -10.274   8.864  1.00  0.00     0.295 C
HETATM   32  O2  UNL     1      18.043  -9.137   9.328  1.00  0.00    -0.259 OA
BRANCH  31  33
HETATM   33  O1  UNL     1      18.629 -10.392   7.568  1.00  0.00    -0.322 OA
HETATM   34  C1  UNL     1      19.858  -9.850   7.187  1.00  0.00     0.213 C
ENDBRANCH  31  33
ENDBRANCH   1  31
TORSDOF 8
ENDMDL