MODEL 1
REMARK VINA RESULT: -7.243132186      0.000      0.000
REMARK  7 active torsions:
REMARK  status: ('A' for Active; 'I' for Inactive)
REMARK    1  A    between atoms: C2_2  and  O1_3
REMARK    2  A    between atoms: O1_3  and  C3_4
REMARK    3  A    between atoms: C3_4  and  C4_6
REMARK    4  A    between atoms: C5_8  and  N1_9
REMARK       I    between atoms: N1_9  and  C6_11
REMARK       I    between atoms: C6_11  and  N2_13
REMARK    5  A    between atoms: N2_13  and  S2_15
REMARK    6  A    between atoms: S2_15  and  C7_18
REMARK    7  A    between atoms: C11_24  and  O6_25
ROOT
HETATM    1  N1  UNL     1      18.765 -17.035  11.488  1.00  0.00    -0.288 N
ATOM      2  H1  UNL     1      18.116 -17.384  10.782  1.00  0.00     0.172 HD
HETATM    3  C6  UNL     1      18.268 -16.893  12.794  1.00  0.00     0.335 C
HETATM    4  O3  UNL     1      18.912 -17.236  13.808  1.00  0.00    -0.246 OA
HETATM    5  N2  UNL     1      16.984 -16.340  12.950  1.00  0.00    -0.231 N
ATOM      6  H2  UNL     1      16.491 -16.065  12.100  1.00  0.00     0.183 HD
ENDROOT
BRANCH   1   7
HETATM    7  C5  UNL     1      19.959 -16.767  11.098  1.00  0.00     0.153 A
HETATM    8  S1  UNL     1      20.847 -17.264   9.743  1.00  0.00    -0.046 SA
HETATM    9  C4  UNL     1      22.324 -16.435  10.068  1.00  0.00     0.105 A
HETATM   10  C13 UNL     1      22.011 -15.805  11.250  1.00  0.00     0.030 A
HETATM   11  N3  UNL     1      20.834 -15.979  11.751  1.00  0.00    -0.339 N
HETATM   12  C14 UNL     1      23.063 -14.928  11.907  1.00  0.00     0.070 C
ATOM     13  H3  UNL     1      20.571 -15.528  12.627  1.00  0.00     0.168 HD
BRANCH   9  14
HETATM   14  C3  UNL     1      23.567 -16.380   9.317  1.00  0.00     0.302 C
HETATM   15  O2  UNL     1      24.672 -16.628   9.892  1.00  0.00    -0.259 OA
BRANCH  14  16
HETATM   16  O1  UNL     1      23.599 -16.069   7.995  1.00  0.00    -0.317 OA
BRANCH  16  17
HETATM   17  C2  UNL     1      24.504 -16.720   7.088  1.00  0.00     0.174 C
HETATM   18  C1  UNL     1      24.460 -15.967   5.784  1.00  0.00     0.034 C
ENDBRANCH  16  17
ENDBRANCH  14  16
ENDBRANCH   9  14
ENDBRANCH   1   7
BRANCH   5  19
HETATM   19  S2  UNL     1      16.169 -16.084  14.453  1.00  0.00     0.276 S
HETATM   20  O4  UNL     1      14.913 -16.849  14.581  1.00  0.00    -0.199 OA
HETATM   21  O5  UNL     1      17.126 -16.377  15.598  1.00  0.00    -0.199 OA
BRANCH  19  22
HETATM   22  C7  UNL     1      15.825 -14.342  14.574  1.00  0.00     0.155 A
HETATM   23  S3  UNL     1      14.360 -13.562  14.960  1.00  0.00    -0.066 SA
HETATM   24  C8  UNL     1      14.887 -11.945  14.899  1.00  0.00     0.061 A
HETATM   25 BR1  UNL     1      13.845 -10.362  15.235  1.00  0.00    -0.042 Br
HETATM   26  C9  UNL     1      16.212 -12.058  14.574  1.00  0.00    -0.002 A
HETATM   27  C10 UNL     1      17.043 -10.791  14.440  1.00  0.00     0.053 C
HETATM   28  C11 UNL     1      16.694 -13.307  14.406  1.00  0.00     0.106 A
BRANCH  28  29
HETATM   29  O6  UNL     1      18.061 -13.544  14.064  1.00  0.00    -0.353 OA
HETATM   30  C12 UNL     1      18.501 -13.241  12.736  1.00  0.00     0.210 C
ENDBRANCH  28  29
ENDBRANCH  19  22
ENDBRANCH   5  19
TORSDOF 7
ENDMDL