MODEL 2
REMARK VINA RESULT: -7.040738601      1.712      1.896
REMARK  8 active torsions:
REMARK  status: ('A' for Active; 'I' for Inactive)
REMARK    1  A    between atoms: C2_2  and  C4_4
REMARK    2  A    between atoms: C4_4  and  N1_5
REMARK    3  A    between atoms: C4_4  and  C10_14
REMARK       I    between atoms: N1_5  and  C5_7
REMARK    4  A    between atoms: C5_7  and  O2_9
REMARK    5  A    between atoms: O2_9  and  C6_10
REMARK       I    between atoms: C10_14  and  N2_16
REMARK    6  A    between atoms: C13_20  and  C14_21
REMARK       I    between atoms: C14_21  and  N3_23
REMARK    7  A    between atoms: N3_23  and  C15_25
REMARK    8  A    between atoms: C17_30  and  N5_31
ROOT
HETATM    1  C10 UNL     1      15.401 -14.777  14.293  1.00  0.00     0.244 C
HETATM    2  O3  UNL     1      14.590 -15.580  13.704  1.00  0.00    -0.271 OA
HETATM    3  N2  UNL     1      15.234 -13.358  14.168  1.00  0.00    -0.327 N
HETATM    4  C11 UNL     1      14.112 -12.820  13.430  1.00  0.00     0.200 C
HETATM    5  S1  UNL     1      13.967 -11.150  14.120  1.00  0.00    -0.147 SA
HETATM    6  C12 UNL     1      15.327 -11.273  15.351  1.00  0.00     0.110 C
HETATM    7  C13 UNL     1      16.120 -12.394  14.702  1.00  0.00     0.190 C
ENDROOT
BRANCH   1   8
HETATM    8  C4  UNL     1      16.464 -15.437  15.069  1.00  0.00     0.182 C
BRANCH   8   9
HETATM    9  C2  UNL     1      15.876 -16.362  16.130  1.00  0.00     0.009 C
HETATM   10  C1  UNL     1      16.898 -17.129  16.876  1.00  0.00     0.012 C
HETATM   11  C3  UNL     1      14.927 -15.664  17.056  1.00  0.00     0.012 C
ENDBRANCH   8   9
BRANCH   8  12
HETATM   12  N1  UNL     1      17.239 -16.290  14.139  1.00  0.00    -0.323 N
HETATM   13  C5  UNL     1      18.467 -15.861  13.609  1.00  0.00     0.362 C
HETATM   14  O1  UNL     1      18.919 -14.736  13.927  1.00  0.00    -0.238 OA
ATOM     15  H1  UNL     1      16.875 -17.207  13.879  1.00  0.00     0.165 HD
BRANCH  13  16
HETATM   16  O2  UNL     1      19.241 -16.601  12.741  1.00  0.00    -0.294 OA
BRANCH  16  17
HETATM   17  C6  UNL     1      18.863 -16.839  11.436  1.00  0.00     0.061 C
HETATM   18  C7  UNL     1      20.077 -16.933  10.553  1.00  0.00     0.046 C
HETATM   19  C8  UNL     1      18.150 -18.195  11.319  1.00  0.00     0.046 C
HETATM   20  C9  UNL     1      17.927 -15.824  10.840  1.00  0.00     0.046 C
ENDBRANCH  16  17
ENDBRANCH  13  16
ENDBRANCH   8  12
ENDBRANCH   1   8
BRANCH   7  21
HETATM   21  C14 UNL     1      16.999 -11.848  13.645  1.00  0.00     0.247 C
HETATM   22  O4  UNL     1      17.375 -10.637  13.844  1.00  0.00    -0.271 OA
HETATM   23  N3  UNL     1      17.392 -12.582  12.521  1.00  0.00    -0.305 N
ATOM     24  H3  UNL     1      17.801 -13.510  12.631  1.00  0.00     0.171 HD
BRANCH  23  25
HETATM   25  C15 UNL     1      17.231 -12.071  11.331  1.00  0.00     0.154 A
HETATM   26  N4  UNL     1      17.969 -11.201  10.652  1.00  0.00    -0.324 N
HETATM   27  C16 UNL     1      17.591 -10.846   9.454  1.00  0.00     0.146 A
ATOM     28  H4  UNL     1      18.820 -10.815  11.060  1.00  0.00     0.169 HD
HETATM   29 CL1  UNL     1      18.512  -9.678   8.453  1.00  0.00    -0.061 Cl
HETATM   30  C17 UNL     1      16.446 -11.390   8.950  1.00  0.00     0.185 A
HETATM   31  S2  UNL     1      15.945 -12.405  10.230  1.00  0.00    -0.026 SA
BRANCH  30  32
HETATM   32  N5  UNL     1      15.823 -11.163   7.666  1.00  0.00    -0.105 N
HETATM   33  O5  UNL     1      15.763 -12.142   6.893  1.00  0.00    -0.531 OA
HETATM   34  O6  UNL     1      15.348  -9.935   7.369  1.00  0.00    -0.531 OA
ENDBRANCH  30  32
ENDBRANCH  23  25
ENDBRANCH   7  21
TORSDOF 8
ENDMDL