MODEL 3
REMARK VINA RESULT: -7.617390613      0.699      1.014
REMARK  8 active torsions:
REMARK  status: ('A' for Active; 'I' for Inactive)
REMARK    1  A    between atoms: C2_2  and  C3_3
REMARK    2  A    between atoms: C12_13  and  O1_14
REMARK    3  A    between atoms: C13_16  and  O2_17
REMARK    4  A    between atoms: O2_17  and  C14_18
REMARK    5  A    between atoms: C22_30  and  C23_31
REMARK    6  A    between atoms: C23_31  and  O4_32
REMARK    7  A    between atoms: O4_32  and  C24_33
REMARK    8  A    between atoms: C26_36  and  O6_37
ROOT
HETATM    1  C3  UNL     1      13.826 -13.503  12.083  1.00  0.00     0.015 C
HETATM    2  C4  UNL     1      13.139 -12.495  11.260  1.00  0.00     0.019 C
HETATM    3  C5  UNL     1      13.930 -11.845  10.181  1.00  0.00    -0.012 C
HETATM    4  C6  UNL     1      12.858 -11.332   9.197  1.00  0.00     0.018 C
HETATM    5  C7  UNL     1      14.764 -10.687  10.653  1.00  0.00     0.017 C
HETATM    6  C8  UNL     1      16.200 -11.194  10.756  1.00  0.00    -0.002 C
HETATM    7  C9  UNL     1      16.282 -12.445   9.982  1.00  0.00     0.043 C
HETATM    8  C10 UNL     1      14.876 -12.715   9.441  1.00  0.00     0.178 C
HETATM    9  F1  UNL     1      14.797 -12.381   8.076  1.00  0.00    -0.249 F
HETATM   10  C11 UNL     1      16.811 -11.091  12.085  1.00  0.00     0.055 C
HETATM   11  C12 UNL     1      18.320 -10.817  11.875  1.00  0.00     0.199 C
HETATM   12  C13 UNL     1      18.977 -12.036  12.332  1.00  0.00     0.147 C
HETATM   13  N2  UNL     1      18.157 -12.704  13.018  1.00  0.00    -0.362 N
ATOM     14  H2  UNL     1      18.377 -13.601  13.450  1.00  0.00     0.162 HD
HETATM   15  C20 UNL     1      16.843 -12.041  13.126  1.00  0.00     0.043 C
HETATM   16  C21 UNL     1      16.927 -11.294  14.479  1.00  0.00     0.039 C
HETATM   17  C22 UNL     1      15.892 -13.140  13.358  1.00  0.00     0.067 C
HETATM   18  C26 UNL     1      14.436 -12.846  13.294  1.00  0.00     0.130 C
ENDROOT
BRANCH  12  19
HETATM   19  O2  UNL     1      20.282 -12.428  12.072  1.00  0.00    -0.304 OA
BRANCH  19  20
HETATM   20  C14 UNL     1      20.679 -13.774  11.945  1.00  0.00     0.296 C
HETATM   21  C15 UNL     1      21.664 -13.969  10.790  1.00  0.00     0.332 C
HETATM   22  N1  UNL     1      22.256 -15.257  10.984  1.00  0.00     0.091 N
HETATM   23  C16 UNL     1      23.420 -15.188  11.810  1.00  0.00     0.310 C
HETATM   24  C17 UNL     1      21.353 -16.309  11.283  1.00  0.00     0.303 C
HETATM   25  C18 UNL     1      20.108 -15.935  11.980  1.00  0.00     0.149 C
HETATM   26  C19 UNL     1      20.230 -16.058  13.500  1.00  0.00     0.041 C
HETATM   27  O3  UNL     1      19.650 -14.652  11.718  1.00  0.00    -0.352 OA
ENDBRANCH  19  20
ENDBRANCH  12  19
BRANCH  11  28
HETATM   28  O1  UNL     1      18.747  -9.662  12.470  1.00  0.00    -0.387 OA
ATOM     29  H1  UNL     1      18.830  -9.736  13.413  1.00  0.00     0.210 HD
ENDBRANCH  11  28
BRANCH  17  30
HETATM   30  C23 UNL     1      16.126 -13.744  14.757  1.00  0.00     0.188 C
BRANCH  30  31
HETATM   31  O4  UNL     1      16.908 -14.907  14.714  1.00  0.00    -0.321 OA
BRANCH  31  32
HETATM   32  C24 UNL     1      16.306 -16.055  14.219  1.00  0.00     0.254 C
HETATM   33  C25 UNL     1      15.086 -16.627  14.796  1.00  0.00     0.126 C
HETATM   34  O5  UNL     1      16.820 -16.658  13.216  1.00  0.00    -0.266 OA
ENDBRANCH  31  32
ENDBRANCH  30  31
ENDBRANCH  17  30
BRANCH  18  35
HETATM   35  O6  UNL     1      13.716 -13.334  14.416  1.00  0.00    -0.395 OA
ATOM     36  H6  UNL     1      13.759 -14.281  14.368  1.00  0.00     0.210 HD
ENDBRANCH  18  35
BRANCH   1  37
HETATM   37  C2  UNL     1      12.904 -14.661  12.493  1.00  0.00     0.002 C
HETATM   38  C1  UNL     1      11.748 -14.755  11.527  1.00  0.00     0.005 C
ENDBRANCH   1  37
TORSDOF 8
ENDMDL