MODEL 3
REMARK VINA RESULT: -9.166313256      3.001      6.989
REMARK  7 active torsions:
REMARK  status: ('A' for Active; 'I' for Inactive)
REMARK    1  A    between atoms: O1_2  and  C2_3
REMARK    2  A    between atoms: N1_11  and  O2_13
REMARK    3  A    between atoms: C16_22  and  C17_24
REMARK    4  A    between atoms: C17_24  and  C18_26
REMARK    5  A    between atoms: C18_26  and  O5_27
REMARK    6  A    between atoms: C18_26  and  C19_29
REMARK    7  A    between atoms: C25_36  and  O7_37
ROOT
HETATM    1  C2  UNL     1      19.636 -12.800  11.768  1.00  0.00     0.154 C
HETATM    2  C3  UNL     1      19.056 -11.542  11.381  1.00  0.00     0.044 C
HETATM    3  C4  UNL     1      17.720 -11.262  10.828  1.00  0.00    -0.041 C
HETATM    4  C5  UNL     1      17.996 -10.093   9.816  1.00  0.00     0.015 C
HETATM    5  C6  UNL     1      17.091 -12.233   9.927  1.00  0.00     0.015 C
HETATM    6  C7  UNL     1      16.777 -10.552  11.780  1.00  0.00     0.007 C
HETATM    7  C8  UNL     1      15.751  -9.692  11.016  1.00  0.00     0.060 C
HETATM    8  C9  UNL     1      15.019  -8.850  12.000  1.00  0.00     0.010 C
HETATM    9  N1  UNL     1      15.062  -7.572  12.069  1.00  0.00    -0.277 N
ATOM     10  H1  UNL     1      15.642  -7.059  11.403  1.00  0.00     0.193 HD
HETATM   11  C10 UNL     1      14.183  -9.583  12.960  1.00  0.00     0.055 C
HETATM   12  C11 UNL     1      14.617 -10.997  12.891  1.00  0.00     0.015 C
HETATM   13  C12 UNL     1      16.160 -11.181  12.907  1.00  0.00    -0.032 C
HETATM   14  C13 UNL     1      16.556 -10.476  14.230  1.00  0.00     0.016 C
HETATM   15  C14 UNL     1      16.256 -12.615  13.220  1.00  0.00     0.092 C
HETATM   16  C15 UNL     1      17.575 -13.173  13.577  1.00  0.00     0.177 C
HETATM   17  O3  UNL     1      18.205 -12.539  14.412  1.00  0.00    -0.294 OA
HETATM   18  C16 UNL     1      18.115 -14.437  12.957  1.00  0.00     0.253 C
HETATM   19  F1  UNL     1      16.937 -15.013  12.401  1.00  0.00    -0.223 F
HETATM   20  C25 UNL     1      18.953 -14.117  11.735  1.00  0.00     0.205 C
ENDROOT
BRANCH  18  21
HETATM   21  C17 UNL     1      18.655 -15.406  13.875  1.00  0.00     0.205 C
HETATM   22  O4  UNL     1      19.835 -15.225  14.267  1.00  0.00    -0.291 OA
BRANCH  21  23
HETATM   23  C18 UNL     1      18.157 -16.624  14.510  1.00  0.00     0.195 C
BRANCH  23  24
HETATM   24  O5  UNL     1      18.990 -17.429  15.198  1.00  0.00    -0.388 OA
ATOM     25  H5  UNL     1      18.966 -18.370  15.073  1.00  0.00     0.210 HD
ENDBRANCH  23  24
BRANCH  23  26
HETATM   26  C19 UNL     1      16.978 -16.325  15.434  1.00  0.00     0.022 C
HETATM   27  C20 UNL     1      15.705 -16.679  14.668  1.00  0.00     0.015 C
HETATM   28  C21 UNL     1      14.498 -16.408  15.546  1.00  0.00     0.079 C
HETATM   29  C22 UNL     1      14.870 -15.825  16.848  1.00  0.00     0.127 C
HETATM   30  O6  UNL     1      14.294 -14.861  17.282  1.00  0.00    -0.298 OA
HETATM   31  C23 UNL     1      15.972 -16.433  17.637  1.00  0.00     0.079 C
HETATM   32  C24 UNL     1      16.976 -17.090  16.703  1.00  0.00     0.015 C
ENDBRANCH  23  26
ENDBRANCH  21  23
ENDBRANCH  18  21
BRANCH  20  33
HETATM   33  O7  UNL     1      19.961 -15.121  11.798  1.00  0.00    -0.384 OA
HETATM   34  C26 UNL     1      19.891 -16.050  10.807  1.00  0.00     0.202 C
ENDBRANCH  20  33
BRANCH   1  35
HETATM   35  O1  UNL     1      20.848 -13.021  11.039  1.00  0.00    -0.388 OA
HETATM   36  C1  UNL     1      20.870 -12.402   9.821  1.00  0.00     0.202 C
ENDBRANCH   1  35
BRANCH   9  37
HETATM   37  O2  UNL     1      14.363  -6.879  12.998  1.00  0.00    -0.290 OA
ATOM     38  H2  UNL     1      13.465  -7.096  13.219  1.00  0.00     0.244 HD
ENDBRANCH   9  37
TORSDOF 7
ENDMDL