MODEL 3
REMARK VINA RESULT: -7.635251085      2.100      5.822
REMARK  9 active torsions:
REMARK  status: ('A' for Active; 'I' for Inactive)
REMARK    1  A    between atoms: C2_2  and  O2_4
REMARK    2  A    between atoms: O2_4  and  C3_5
REMARK    3  A    between atoms: C5_7  and  O3_8
REMARK    4  A    between atoms: C7_11  and  O4_12
REMARK    5  A    between atoms: C8_14  and  C10_16
REMARK    6  A    between atoms: C10_16  and  O5_17
REMARK    7  A    between atoms: C11_20  and  C12_21
REMARK    8  A    between atoms: C22_32  and  O7_34
REMARK    9  A    between atoms: O7_34  and  C24_35
ROOT
HETATM    1  C3  UNL     1      14.114 -13.302  11.672  1.00  0.00     0.068 C
HETATM    2  C4  UNL     1      15.237 -13.197  11.034  1.00  0.00     0.066 C
HETATM    3  C5  UNL     1      16.547 -13.770  10.938  1.00  0.00     0.055 C
HETATM    4  C6  UNL     1      17.681 -13.915  11.827  1.00  0.00     0.110 A
HETATM    5  C7  UNL     1      18.702 -14.977  11.452  1.00  0.00     0.167 A
HETATM    6  C8  UNL     1      19.124 -15.687  12.703  1.00  0.00     0.106 A
HETATM    7  C9  UNL     1      18.855 -17.187  12.420  1.00  0.00     0.051 C
HETATM    8  O6  UNL     1      18.378 -15.153  13.695  1.00  0.00    -0.362 OA
HETATM    9  C11 UNL     1      17.610 -14.083  13.266  1.00  0.00     0.091 A
HETATM   10  C14 UNL     1      16.235 -14.109  13.904  1.00  0.00     0.053 C
HETATM   11  C15 UNL     1      15.324 -15.162  14.027  1.00  0.00    -0.001 A
HETATM   12  C16 UNL     1      15.214 -16.230  13.114  1.00  0.00     0.019 A
HETATM   13  C17 UNL     1      14.112 -15.374  13.183  1.00  0.00     0.013 A
HETATM   14  C18 UNL     1      13.560 -14.151  12.735  1.00  0.00     0.010 C
HETATM   15  C19 UNL     1      12.095 -14.505  12.272  1.00  0.00     0.023 C
HETATM   16  C20 UNL     1      13.242 -13.333  14.008  1.00  0.00     0.019 C
HETATM   17  C21 UNL     1      13.764 -13.842  15.276  1.00  0.00     0.040 C
HETATM   18  C22 UNL     1      14.547 -15.092  15.379  1.00  0.00     0.075 C
HETATM   19  C23 UNL     1      13.831 -16.325  15.736  1.00  0.00     0.047 C
ENDROOT
BRANCH  18  20
HETATM   20  O7  UNL     1      15.611 -14.969  16.345  1.00  0.00    -0.310 OA
BRANCH  20  21
HETATM   21  C24 UNL     1      16.148 -16.035  17.030  1.00  0.00     0.255 C
HETATM   22  C25 UNL     1      17.089 -17.009  16.368  1.00  0.00     0.126 C
HETATM   23  O8  UNL     1      15.820 -16.167  18.234  1.00  0.00    -0.266 OA
ENDBRANCH  20  21
ENDBRANCH  18  20
BRANCH   9  24
HETATM   24  C12 UNL     1      18.245 -12.803  13.893  1.00  0.00     0.113 C
HETATM   25  C13 UNL     1      17.167 -11.913  14.531  1.00  0.00     0.030 C
HETATM   26 CL1  UNL     1      18.896 -11.697  12.678  1.00  0.00    -0.122 Cl
ENDBRANCH   9  24
BRANCH   1  27
HETATM   27  O2  UNL     1      13.102 -12.320  11.248  1.00  0.00    -0.283 OA
BRANCH  27  28
HETATM   28  C2  UNL     1      12.980 -12.159   9.880  1.00  0.00     0.259 C
HETATM   29  C1  UNL     1      13.453 -10.925   9.181  1.00  0.00     0.126 C
HETATM   30  O1  UNL     1      12.467 -13.024   9.129  1.00  0.00    -0.265 OA
ENDBRANCH  27  28
ENDBRANCH   1  27
BRANCH   3  31
HETATM   31  O3  UNL     1      16.858 -14.308   9.782  1.00  0.00    -0.364 OA
ATOM     32  H3  UNL     1      17.742 -14.149   9.471  1.00  0.00     0.217 HD
ENDBRANCH   3  31
BRANCH   5  33
HETATM   33  O4  UNL     1      18.299 -15.847  10.451  1.00  0.00    -0.392 OA
ATOM     34  H4  UNL     1      19.005 -16.227   9.942  1.00  0.00     0.210 HD
ENDBRANCH   5  33
BRANCH   6  35
HETATM   35  C10 UNL     1      20.616 -15.787  12.956  1.00  0.00     0.204 C
BRANCH  35  36
HETATM   36  O5  UNL     1      21.328 -14.703  12.433  1.00  0.00    -0.398 OA
ATOM     37  H5  UNL     1      22.167 -14.574  12.859  1.00  0.00     0.209 HD
ENDBRANCH  35  36
ENDBRANCH   6  35
TORSDOF 9
ENDMDL