MODEL 3
REMARK VINA RESULT: -8.561901853      1.657      2.219
REMARK  9 active torsions:
REMARK  status: ('A' for Active; 'I' for Inactive)
REMARK    1  A    between atoms: C3_5  and  O1_6
REMARK    2  A    between atoms: O1_6  and  C4_7
REMARK       I    between atoms: N2_10  and  C7_11
REMARK    3  A    between atoms: C7_11  and  O3_13
REMARK    4  A    between atoms: O3_13  and  C8_14
REMARK    5  A    between atoms: C15_23  and  N3_24
REMARK    6  A    between atoms: N3_24  and  C16_25
REMARK    7  A    between atoms: C22_31  and  C23_32
REMARK    8  A    between atoms: C23_32  and  O5_34
REMARK    9  A    between atoms: N4_36  and  O6_37
ROOT
HETATM    1  C1  UNL     1      17.948 -17.070  17.139  1.00  0.00     0.092 C
HETATM    2  C2  UNL     1      16.838 -16.639  16.208  1.00  0.00     0.111 A
HETATM    3  N1  UNL     1      17.052 -16.595  14.895  1.00  0.00    -0.322 N
ATOM      4  H1  UNL     1      17.966 -16.852  14.521  1.00  0.00     0.169 HD
HETATM    5  C3  UNL     1      16.077 -16.215  14.067  1.00  0.00     0.189 A
HETATM    6  C14 UNL     1      14.857 -15.872  14.571  1.00  0.00     0.227 A
HETATM    7  F1  UNL     1      13.826 -15.478  13.786  1.00  0.00    -0.196 F
HETATM    8  C15 UNL     1      14.589 -15.905  15.958  1.00  0.00     0.244 A
HETATM    9  N4  UNL     1      15.649 -16.307  16.729  1.00  0.00    -0.181 N
ENDROOT
BRANCH   5  10
HETATM   10  O1  UNL     1      16.266 -16.158  12.681  1.00  0.00    -0.328 OA
BRANCH  10  11
HETATM   11  C4  UNL     1      17.506 -15.856  12.075  1.00  0.00     0.133 C
HETATM   12  C5  UNL     1      18.292 -17.087  11.739  1.00  0.00     0.052 C
HETATM   13  C6  UNL     1      19.480 -16.866  10.886  1.00  0.00     0.130 C
HETATM   14  N2  UNL     1      19.664 -15.580  10.316  1.00  0.00    -0.328 N
HETATM   15  C7  UNL     1      20.780 -15.362   9.465  1.00  0.00     0.363 C
HETATM   16  C12 UNL     1      18.771 -14.476  10.557  1.00  0.00     0.130 C
HETATM   17  O2  UNL     1      20.968 -14.216   8.938  1.00  0.00    -0.238 OA
HETATM   18  C13 UNL     1      17.372 -15.019  10.848  1.00  0.00     0.052 C
BRANCH  15  19
HETATM   19  O3  UNL     1      21.711 -16.339   9.154  1.00  0.00    -0.296 OA
BRANCH  19  20
HETATM   20  C8  UNL     1      23.061 -15.987   8.956  1.00  0.00     0.159 C
HETATM   21  C9  UNL     1      23.593 -16.505   7.636  1.00  0.00     0.061 C
HETATM   22  C10 UNL     1      24.997 -16.871   7.970  1.00  0.00     0.170 C
HETATM   23  O4  UNL     1      25.190 -16.847   9.320  1.00  0.00    -0.389 OA
HETATM   24  C11 UNL     1      23.983 -16.611   9.946  1.00  0.00     0.200 C
ENDBRANCH  19  20
ENDBRANCH  15  19
ENDBRANCH  10  11
ENDBRANCH   5  10
BRANCH   8  25
HETATM   25  N3  UNL     1      13.534 -15.620  16.450  1.00  0.00    -0.420 NA
BRANCH  25  26
HETATM   26  C16 UNL     1      12.317 -15.392  16.945  1.00  0.00     0.170 C
HETATM   27  C17 UNL     1      11.280 -14.822  15.942  1.00  0.00     0.045 C
HETATM   28  C18 UNL     1      10.461 -13.814  16.722  1.00  0.00    -0.005 C
HETATM   29  C19 UNL     1      10.611 -14.386  18.116  1.00  0.00     0.013 C
HETATM   30  C22 UNL     1      11.287 -12.569  16.799  1.00  0.00     0.018 C
HETATM   31  C20 UNL     1      12.155 -14.411  18.094  1.00  0.00     0.022 C
HETATM   32  C21 UNL     1      12.445 -13.022  17.641  1.00  0.00     0.015 C
BRANCH  30  33
HETATM   33  C23 UNL     1      10.561 -11.369  17.254  1.00  0.00     0.118 C
HETATM   34  C24 UNL     1      10.781 -10.152  16.386  1.00  0.00     0.040 C
BRANCH  33  35
HETATM   35  O5  UNL     1      10.752 -10.976  18.558  1.00  0.00    -0.396 OA
ATOM     36  H5  UNL     1      10.791 -10.042  18.728  1.00  0.00     0.210 HD
ENDBRANCH  33  35
ENDBRANCH  30  33
ENDBRANCH  25  26
ENDBRANCH   8  25
BRANCH   9  37
HETATM   37  O6  UNL     1      15.437 -16.365  18.096  1.00  0.00    -0.279 OA
ATOM     38  H6  UNL     1      16.041 -16.833  18.660  1.00  0.00     0.245 HD
ENDBRANCH   9  37
TORSDOF 9
ENDMDL