MODEL 2
REMARK VINA RESULT: -6.744359255      2.295      5.147
REMARK  9 active torsions:
REMARK  status: ('A' for Active; 'I' for Inactive)
REMARK    1  A    between atoms: C2_2  and  O2_4
REMARK    2  A    between atoms: O2_4  and  C3_5
REMARK    3  A    between atoms: C9_11  and  C10_12
REMARK    4  A    between atoms: C9_11  and  O4_15
REMARK    5  A    between atoms: C10_12  and  O3_13
REMARK    6  A    between atoms: O4_15  and  C11_16
REMARK    7  A    between atoms: C11_16  and  C12_18
REMARK    8  A    between atoms: C12_18  and  N1_19
REMARK    9  A    between atoms: C19_28  and  O7_29
ROOT
HETATM    1  C3  UNL     1      15.468 -13.522  14.898  1.00  0.00     0.176 C
HETATM    2  C4  UNL     1      15.455 -15.056  14.830  1.00  0.00     0.043 C
HETATM    3  C5  UNL     1      15.127 -15.493  16.229  1.00  0.00     0.017 C
HETATM    4  C6  UNL     1      16.788 -15.541  14.396  1.00  0.00    -0.070 C
HETATM    5  C7  UNL     1      17.386 -15.061  13.260  1.00  0.00    -0.057 C
HETATM    6  C8  UNL     1      16.513 -14.073  12.638  1.00  0.00     0.119 C
HETATM    7  C9  UNL     1      16.766 -13.326  11.454  1.00  0.00     0.205 C
HETATM    8  O6  UNL     1      16.834 -11.927  11.523  1.00  0.00    -0.340 OA
HETATM    9  C15 UNL     1      17.425 -11.363  12.579  1.00  0.00     0.077 C
HETATM   10  C16 UNL     1      18.887 -11.015  12.362  1.00  0.00     0.047 C
HETATM   11  C17 UNL     1      16.725 -10.008  12.799  1.00  0.00     0.047 C
HETATM   12  C18 UNL     1      17.349 -12.190  13.862  1.00  0.00     0.154 C
HETATM   13 CL1  UNL     1      17.361 -11.185  15.311  1.00  0.00    -0.119 Cl
HETATM   14  C19 UNL     1      16.122 -13.013  13.697  1.00  0.00     0.117 C
HETATM   15  C20 UNL     1      18.643 -15.811  13.218  1.00  0.00    -0.023 C
HETATM   16  C21 UNL     1      18.418 -17.230  12.648  1.00  0.00     0.019 C
HETATM   17  C22 UNL     1      19.889 -15.212  12.752  1.00  0.00     0.019 C
HETATM   18  C23 UNL     1      18.976 -16.126  14.706  1.00  0.00     0.017 C
HETATM   19  C24 UNL     1      17.617 -16.556  15.069  1.00  0.00     0.036 C
ENDROOT
BRANCH   7  20
HETATM   20  C10 UNL     1      17.819 -13.637  10.441  1.00  0.00     0.234 C
BRANCH  20  21
HETATM   21  O3  UNL     1      17.547 -14.944   9.912  1.00  0.00    -0.395 OA
ATOM     22  H3  UNL     1      16.690 -14.919   9.503  1.00  0.00     0.209 HD
ENDBRANCH  20  21
ENDBRANCH   7  20
BRANCH   7  23
HETATM   23  O4  UNL     1      15.562 -13.451  10.624  1.00  0.00    -0.279 OA
BRANCH  23  24
HETATM   24  C11 UNL     1      15.284 -12.588   9.597  1.00  0.00     0.279 C
HETATM   25  O5  UNL     1      15.854 -12.709   8.508  1.00  0.00    -0.263 OA
BRANCH  24  26
HETATM   26  C12 UNL     1      14.286 -11.468   9.741  1.00  0.00     0.227 C
BRANCH  26  27
HETATM   27  N1  UNL     1      13.046 -12.011  10.145  1.00  0.00    -0.412 N
HETATM   28  C13 UNL     1      12.395 -12.925   9.294  1.00  0.00     0.143 C
HETATM   29  C14 UNL     1      12.312 -11.359  11.153  1.00  0.00     0.143 C
ENDBRANCH  26  27
ENDBRANCH  24  26
ENDBRANCH  23  24
ENDBRANCH   7  23
BRANCH  14  30
HETATM   30  O7  UNL     1      15.115 -12.229  13.051  1.00  0.00    -0.385 OA
ATOM     31  H7  UNL     1      15.373 -11.330  13.221  1.00  0.00     0.210 HD
ENDBRANCH  14  30
BRANCH   1  32
HETATM   32  O2  UNL     1      14.089 -13.193  15.024  1.00  0.00    -0.312 OA
BRANCH  32  33
HETATM   33  C2  UNL     1      13.594 -12.220  15.874  1.00  0.00     0.255 C
HETATM   34  C1  UNL     1      12.920 -12.547  17.160  1.00  0.00     0.126 C
HETATM   35  O1  UNL     1      13.731 -11.036  15.530  1.00  0.00    -0.266 OA
ENDBRANCH  32  33
ENDBRANCH   1  32
TORSDOF 9
ENDMDL