MODEL 3
REMARK VINA RESULT: -8.576248107      5.199      9.732
REMARK  7 active torsions:
REMARK  status: ('A' for Active; 'I' for Inactive)
REMARK    1  A    between atoms: C6_8  and  C7_9
REMARK    2  A    between atoms: C7_9  and  N2_10
REMARK    3  A    between atoms: C7_9  and  C15_25
REMARK       I    between atoms: N2_10  and  C8_12
REMARK       I    between atoms: C8_12  and  N3_14
REMARK    4  A    between atoms: N3_14  and  C9_16
REMARK    5  A    between atoms: C12_19  and  N4_20
REMARK       I    between atoms: C15_25  and  N5_27
REMARK    6  A    between atoms: N5_27  and  N6_29
REMARK    7  A    between atoms: C16_31  and  C17_32
ROOT
HETATM    1  C7  UNL     1       8.937  33.134 -13.043  1.00  0.00     0.215 C
ENDROOT
BRANCH   1   2
HETATM    2  C6  UNL     1       7.958  33.523 -12.026  1.00  0.00    -0.004 A
HETATM    3  C2  UNL     1       7.664  32.772 -10.966  1.00  0.00     0.013 A
HETATM    4  C1  UNL     1       8.294  31.493 -10.679  1.00  0.00     0.068 C
HETATM    5  N1  UNL     1       6.712  33.180 -10.068  1.00  0.00    -0.369 N
HETATM    6  C3  UNL     1       6.076  34.356 -10.273  1.00  0.00     0.088 A
ATOM      7  H1  UNL     1       6.486  32.605  -9.256  1.00  0.00     0.165 HD
HETATM    8  C4  UNL     1       6.350  35.165 -11.354  1.00  0.00     0.018 A
HETATM    9  C5  UNL     1       7.306  34.750 -12.250  1.00  0.00     0.013 A
ENDBRANCH   1   2
BRANCH   1  10
HETATM   10  N2  UNL     1       9.683  34.309 -13.433  1.00  0.00    -0.325 N
HETATM   11  C8  UNL     1      11.076  34.172 -13.822  1.00  0.00     0.321 C
HETATM   12  O1  UNL     1      11.508  32.990 -13.798  1.00  0.00    -0.247 OA
HETATM   13  N3  UNL     1      11.834  35.281 -14.184  1.00  0.00    -0.309 N
ATOM     14  H3  UNL     1      11.380  36.194 -14.149  1.00  0.00     0.170 HD
ATOM     15  H2  UNL     1       9.236  35.226 -13.435  1.00  0.00     0.165 HD
BRANCH  13  16
HETATM   16  C9  UNL     1      13.190  35.242 -14.597  1.00  0.00     0.036 A
HETATM   17  C10 UNL     1      13.591  35.339 -15.893  1.00  0.00     0.032 A
HETATM   18  C11 UNL     1      14.924  35.253 -16.279  1.00  0.00     0.038 A
HETATM   19  C12 UNL     1      15.938  35.061 -15.350  1.00  0.00     0.103 A
HETATM   20  C13 UNL     1      15.538  34.964 -14.041  1.00  0.00     0.038 A
HETATM   21  C14 UNL     1      14.221  35.047 -13.653  1.00  0.00     0.032 A
BRANCH  19  22
HETATM   22  N4  UNL     1      17.282  34.967 -15.754  1.00  0.00    -0.116 N
HETATM   23  O2  UNL     1      17.965  33.987 -15.344  1.00  0.00    -0.532 OA
HETATM   24  O3  UNL     1      17.879  35.889 -16.563  1.00  0.00    -0.532 OA
ENDBRANCH  19  22
ENDBRANCH  13  16
ENDBRANCH   1  10
BRANCH   1  25
HETATM   25  C15 UNL     1       8.125  32.651 -14.222  1.00  0.00     0.263 C
HETATM   26  O4  UNL     1       8.721  32.257 -15.247  1.00  0.00    -0.269 OA
HETATM   27  N5  UNL     1       6.734  32.653 -14.153  1.00  0.00    -0.268 N
ATOM     28  H5  UNL     1       6.325  32.976 -13.276  1.00  0.00     0.190 HD
BRANCH  27  29
HETATM   29  N6  UNL     1       5.839  32.268 -15.141  1.00  0.00    -0.308 N
HETATM   30  C16 UNL     1       5.105  33.278 -15.676  1.00  0.00     0.126 C
ATOM     31  H6  UNL     1       5.739  31.299 -15.444  1.00  0.00     0.186 HD
BRANCH  30  32
HETATM   32  C17 UNL     1       4.142  32.921 -16.723  1.00  0.00     0.023 A
HETATM   33  C18 UNL     1       4.229  31.843 -17.573  1.00  0.00     0.022 A
HETATM   34  C19 UNL     1       3.239  31.673 -18.449  1.00  0.00     0.028 A
HETATM   35  C20 UNL     1       2.215  32.584 -18.436  1.00  0.00     0.052 A
HETATM   36 BR1  UNL     1       0.660  32.600 -19.573  1.00  0.00    -0.043 Br
HETATM   37  S1  UNL     1       2.681  33.659 -17.182  1.00  0.00    -0.081 SA
ENDBRANCH  30  32
ENDBRANCH  27  29
ENDBRANCH   1  25
TORSDOF 7
ENDMDL