MODEL 2
REMARK VINA RESULT: -7.507128995      1.138      1.170
REMARK  10 active torsions:
REMARK  status: ('A' for Active; 'I' for Inactive)
REMARK    1  A    between atoms: C2_2  and  O2_4
REMARK    2  A    between atoms: O2_4  and  C3_5
REMARK    3  A    between atoms: C7_10  and  O3_11
REMARK    4  A    between atoms: C7_10  and  C8_13
REMARK    5  A    between atoms: C8_13  and  C9_14
REMARK    6  A    between atoms: C9_14  and  C10_15
REMARK    7  A    between atoms: C10_15  and  C11_16
REMARK    8  A    between atoms: C12_17  and  C13_18
REMARK    9  A    between atoms: C13_18  and  C14_19
REMARK   10  A    between atoms: C17_24  and  O6_25
ROOT
HETATM    1  C3  UNL     1      12.260  33.393 -17.412  1.00  0.00     0.160 C
HETATM    2  C4  UNL     1      12.354  33.819 -15.960  1.00  0.00     0.113 C
HETATM    3 CL1  UNL     1      12.259  32.396 -14.940  1.00  0.00    -0.122 Cl
HETATM    4  C5  UNL     1      13.518  34.726 -15.715  1.00  0.00     0.033 C
HETATM    5  C6  UNL     1      14.788  33.942 -15.956  1.00  0.00     0.061 C
HETATM    6  C7  UNL     1      16.019  34.667 -15.581  1.00  0.00     0.090 C
HETATM    7  C15 UNL     1      17.029  34.757 -16.700  1.00  0.00    -0.018 C
HETATM    8  C16 UNL     1      17.968  35.680 -16.615  1.00  0.00     0.016 C
HETATM    9  C17 UNL     1      18.989  35.782 -17.726  1.00  0.00     0.175 C
HETATM   10  C18 UNL     1      19.091  34.560 -18.567  1.00  0.00     0.084 C
HETATM   11  C19 UNL     1      18.612  34.969 -19.972  1.00  0.00     0.049 C
HETATM   12  C20 UNL     1      20.557  34.152 -18.792  1.00  0.00     0.049 C
HETATM   13  O7  UNL     1      18.384  33.446 -18.125  1.00  0.00    -0.368 OA
HETATM   14  C21 UNL     1      17.089  33.890 -17.879  1.00  0.00     0.157 C
HETATM   15  C22 UNL     1      16.070  32.802 -17.673  1.00  0.00     0.076 C
HETATM   16  C23 UNL     1      14.777  33.580 -17.425  1.00  0.00     0.080 C
HETATM   17  O8  UNL     1      14.761  34.647 -18.324  1.00  0.00    -0.368 OA
HETATM   18  C24 UNL     1      13.915  34.005 -19.189  1.00  0.00     0.064 C
HETATM   19  C25 UNL     1      12.758  34.900 -19.634  1.00  0.00     0.046 C
HETATM   20  C26 UNL     1      14.456  33.304 -20.383  1.00  0.00     0.046 C
HETATM   21  C27 UNL     1      13.559  33.074 -18.019  1.00  0.00     0.086 C
ENDROOT
BRANCH   6  22
HETATM   22  O3  UNL     1      15.676  36.053 -15.410  1.00  0.00    -0.385 OA
ATOM     23  H3  UNL     1      16.485  36.542 -15.317  1.00  0.00     0.211 HD
ENDBRANCH   6  22
BRANCH   6  24
HETATM   24  C8  UNL     1      16.811  34.187 -14.428  1.00  0.00     0.043 C
BRANCH  24  25
HETATM   25  C9  UNL     1      16.771  34.713 -13.084  1.00  0.00     0.007 C
BRANCH  25  26
HETATM   26  C10 UNL     1      15.785  34.219 -12.090  1.00  0.00     0.027 C
BRANCH  26  27
HETATM   27  C11 UNL     1      14.492  35.035 -12.249  1.00  0.00    -0.030 C
HETATM   28  C12 UNL     1      13.354  34.454 -12.124  1.00  0.00    -0.020 C
BRANCH  28  29
HETATM   29  C13 UNL     1      12.011  35.002 -12.229  1.00  0.00     0.140 C
BRANCH  29  30
HETATM   30  C14 UNL     1      10.868  34.122 -12.225  1.00  0.00     0.176 C
HETATM   31  O4  UNL     1      10.711  33.131 -11.495  1.00  0.00    -0.648 OA
HETATM   32  O5  UNL     1       9.776  34.347 -13.120  1.00  0.00    -0.648 OA
ENDBRANCH  29  30
ENDBRANCH  28  29
ENDBRANCH  26  27
ENDBRANCH  25  26
ENDBRANCH  24  25
ENDBRANCH   6  24
BRANCH   9  33
HETATM   33  O6  UNL     1      20.204  36.130 -17.136  1.00  0.00    -0.389 OA
ATOM     34  H6  UNL     1      20.293  35.605 -16.350  1.00  0.00     0.210 HD
ENDBRANCH   9  33
BRANCH   1  35
HETATM   35  O2  UNL     1      11.464  32.199 -17.395  1.00  0.00    -0.314 OA
BRANCH  35  36
HETATM   36  C2  UNL     1      10.188  32.146 -17.928  1.00  0.00     0.255 C
HETATM   37  C1  UNL     1       9.961  31.754 -19.352  1.00  0.00     0.126 C
HETATM   38  O1  UNL     1       9.213  32.434 -17.190  1.00  0.00    -0.266 OA
ENDBRANCH  35  36
ENDBRANCH   1  35
TORSDOF 10
ENDMDL