MODEL 4
REMARK VINA RESULT: -9.437779699      1.895      2.731
REMARK  9 active torsions:
REMARK  status: ('A' for Active; 'I' for Inactive)
REMARK    1  A    between atoms: C1_2  and  O2_3
REMARK    2  A    between atoms: O2_3  and  C2_4
REMARK    3  A    between atoms: C5_7  and  C6_8
REMARK    4  A    between atoms: C6_8  and  O4_10
REMARK    5  A    between atoms: O4_10  and  C7_11
REMARK    6  A    between atoms: C10_14  and  N1_15
REMARK       I    between atoms: N1_15  and  C11_17
REMARK    7  A    between atoms: C11_17  and  C12_19
REMARK       I    between atoms: C12_19  and  N2_21
REMARK    8  A    between atoms: N2_21  and  C13_23
REMARK    9  A    between atoms: C18_29  and  C19_30
ROOT
HETATM    1  C7  UNL     1      14.448  35.017 -14.288  1.00  0.00     0.079 A
HETATM    2  C8  UNL     1      13.875  34.696 -13.079  1.00  0.00     0.039 A
HETATM    3  C9  UNL     1      12.586  35.025 -12.746  1.00  0.00     0.032 A
HETATM    4  C10 UNL     1      11.763  35.724 -13.646  1.00  0.00     0.035 A
HETATM    5  C20 UNL     1      12.330  36.044 -14.850  1.00  0.00     0.032 A
HETATM    6  C21 UNL     1      13.650  35.697 -15.168  1.00  0.00     0.039 A
ENDROOT
BRANCH   4   7
HETATM    7  N1  UNL     1      10.444  36.017 -13.255  1.00  0.00    -0.319 N
HETATM    8  C11 UNL     1       9.440  35.091 -13.015  1.00  0.00     0.314 C
HETATM    9  O5  UNL     1       9.560  33.842 -13.116  1.00  0.00    -0.262 OA
ATOM     10  H1  UNL     1      10.203  37.001 -13.138  1.00  0.00     0.169 HD
BRANCH   8  11
HETATM   11  C12 UNL     1       8.099  35.614 -12.601  1.00  0.00     0.314 C
HETATM   12  O6  UNL     1       8.079  36.768 -12.190  1.00  0.00    -0.262 OA
HETATM   13  N2  UNL     1       6.968  34.793 -12.697  1.00  0.00    -0.318 N
ATOM     14  H2  UNL     1       7.148  33.858 -13.062  1.00  0.00     0.169 HD
BRANCH  13  15
HETATM   15  C13 UNL     1       5.637  35.048 -12.375  1.00  0.00     0.052 A
HETATM   16  C14 UNL     1       4.786  35.586 -13.309  1.00  0.00     0.034 A
HETATM   17  C15 UNL     1       3.455  35.901 -13.013  1.00  0.00     0.044 A
HETATM   18  C16 UNL     1       2.949  35.680 -11.762  1.00  0.00     0.117 A
HETATM   19  F1  UNL     1       1.666  35.974 -11.444  1.00  0.00    -0.206 F
HETATM   20  C17 UNL     1       3.797  35.144 -10.833  1.00  0.00     0.063 A
HETATM   21  C18 UNL     1       5.138  34.817 -11.103  1.00  0.00     0.070 A
BRANCH  21  22
HETATM   22  C19 UNL     1       5.885  34.224 -10.016  1.00  0.00     0.211 C
HETATM   23  O7  UNL     1       6.807  33.412 -10.079  1.00  0.00    -0.644 OA
HETATM   24  O8  UNL     1       5.553  34.591  -8.691  1.00  0.00    -0.644 OA
ENDBRANCH  21  22
ENDBRANCH  13  15
ENDBRANCH   8  11
ENDBRANCH   4   7
BRANCH   1  25
HETATM   25  O4  UNL     1      15.755  34.651 -14.551  1.00  0.00    -0.275 OA
BRANCH  25  26
HETATM   26  C6  UNL     1      16.164  34.063 -15.768  1.00  0.00     0.299 C
HETATM   27  O3  UNL     1      15.480  33.067 -16.052  1.00  0.00    -0.259 OA
BRANCH  26  28
HETATM   28  C5  UNL     1      17.269  34.647 -16.509  1.00  0.00     0.051 A
HETATM   29  C4  UNL     1      18.535  34.627 -15.903  1.00  0.00     0.021 A
HETATM   30  C3  UNL     1      19.656  35.149 -16.485  1.00  0.00     0.039 A
HETATM   31  C2  UNL     1      19.544  35.717 -17.711  1.00  0.00     0.089 A
HETATM   32  C27 UNL     1      18.318  35.754 -18.335  1.00  0.00     0.009 A
HETATM   33  C22 UNL     1      17.169  35.216 -17.735  1.00  0.00    -0.007 A
HETATM   34  C26 UNL     1      18.225  36.329 -19.577  1.00  0.00     0.015 A
HETATM   35  C23 UNL     1      15.959  35.260 -18.372  1.00  0.00     0.013 A
HETATM   36  C24 UNL     1      15.895  35.851 -19.634  1.00  0.00     0.001 A
HETATM   37  C25 UNL     1      17.012  36.379 -20.227  1.00  0.00     0.001 A
BRANCH  31  38
HETATM   38  O2  UNL     1      20.694  36.247 -18.297  1.00  0.00    -0.285 OA
BRANCH  38  39
HETATM   39  C1  UNL     1      21.933  35.854 -17.837  1.00  0.00     0.403 C
HETATM   40  O1  UNL     1      22.687  36.672 -17.252  1.00  0.00    -0.276 OA
ENDBRANCH  38  39
ENDBRANCH  31  38
ENDBRANCH  26  28
ENDBRANCH  25  26
ENDBRANCH   1  25
TORSDOF 9
ENDMDL