MODEL 2
REMARK VINA RESULT: -8.379807777      1.607      2.541
REMARK  11 active torsions:
REMARK  status: ('A' for Active; 'I' for Inactive)
REMARK    1  A    between atoms: O1_2  and  C2_3
REMARK    2  A    between atoms: C2_3  and  C3_4
REMARK    3  A    between atoms: C2_3  and  C9_10
REMARK    4  A    between atoms: C10_11  and  C11_12
REMARK    5  A    between atoms: C11_12  and  O2_13
REMARK    6  A    between atoms: C11_12  and  C12_15
REMARK    7  A    between atoms: C20_23  and  S1_24
REMARK    8  A    between atoms: S1_24  and  C21_27
REMARK    9  A    between atoms: C21_27  and  C22_28
REMARK   10  A    between atoms: C22_28  and  O5_29
REMARK   11  A    between atoms: N1_31  and  O6_33
ROOT
HETATM    1  C9  UNL     1      11.171  34.282 -14.303  1.00  0.00     0.047 A
HETATM    2  C10 UNL     1      10.318  33.594 -13.498  1.00  0.00    -0.009 A
HETATM    3  C18 UNL     1       9.687  32.495 -14.081  1.00  0.00     0.013 A
HETATM    4  C19 UNL     1       9.897  32.105 -15.395  1.00  0.00     0.027 A
HETATM    5  C20 UNL     1      10.741  32.783 -16.193  1.00  0.00     0.100 A
HETATM    6  C27 UNL     1      11.376  33.891 -15.606  1.00  0.00     0.151 A
HETATM    7  F1  UNL     1      12.234  34.589 -16.406  1.00  0.00    -0.203 F
ENDROOT
BRANCH   5   8
HETATM    8  S1  UNL     1      11.062  32.402 -17.857  1.00  0.00     0.195 S
HETATM    9  O3  UNL     1      10.868  30.907 -18.067  1.00  0.00    -0.221 OA
HETATM   10  O4  UNL     1      12.564  32.616 -18.116  1.00  0.00    -0.221 OA
BRANCH   8  11
HETATM   11  C21 UNL     1      10.134  33.246 -19.055  1.00  0.00     0.138 C
HETATM   12  C23 UNL     1      10.476  32.887 -20.471  1.00  0.00     0.060 C
HETATM   13  C24 UNL     1      11.724  33.521 -20.994  1.00  0.00     0.169 C
HETATM   14  O7  UNL     1      11.620  34.890 -20.929  1.00  0.00    -0.391 OA
HETATM   15  C25 UNL     1      11.601  35.238 -19.577  1.00  0.00     0.169 C
HETATM   16  C26 UNL     1      10.368  34.752 -18.894  1.00  0.00     0.060 C
BRANCH  11  17
HETATM   17  C22 UNL     1       8.647  33.104 -18.905  1.00  0.00     0.160 C
HETATM   18  N1  UNL     1       8.082  32.067 -18.402  1.00  0.00    -0.250 N
ATOM     19  H1  UNL     1       8.652  31.285 -18.082  1.00  0.00     0.196 HD
BRANCH  17  20
HETATM   20  O5  UNL     1       7.859  34.151 -19.339  1.00  0.00    -0.347 OA
ATOM     21  H5  UNL     1       6.971  34.200 -19.006  1.00  0.00     0.219 HD
ENDBRANCH  17  20
BRANCH  18  22
HETATM   22  O6  UNL     1       6.725  32.003 -18.293  1.00  0.00    -0.288 OA
ATOM     23  H6  UNL     1       6.221  32.779 -18.080  1.00  0.00     0.244 HD
ENDBRANCH  18  22
ENDBRANCH  11  17
ENDBRANCH   8  11
ENDBRANCH   5   8
BRANCH   1  24
HETATM   24  C2  UNL     1      11.857  35.478 -13.778  1.00  0.00     0.092 C
BRANCH  24  25
HETATM   25  O1  UNL     1      11.486  36.661 -14.328  1.00  0.00    -0.354 OA
HETATM   26  C1  UNL     1      10.808  37.550 -13.544  1.00  0.00     0.210 C
ENDBRANCH  24  25
BRANCH  24  27
HETATM   27  C3  UNL     1      13.283  35.270 -13.483  1.00  0.00    -0.002 A
HETATM   28  C4  UNL     1      14.246  35.597 -14.398  1.00  0.00     0.014 A
HETATM   29  C5  UNL     1      15.585  35.391 -14.100  1.00  0.00     0.001 A
HETATM   30  C6  UNL     1      15.944  34.854 -12.877  1.00  0.00     0.000 A
HETATM   31  C7  UNL     1      14.978  34.528 -11.966  1.00  0.00     0.001 A
HETATM   32  C8  UNL     1      13.647  34.742 -12.283  1.00  0.00     0.014 A
ENDBRANCH  24  27
ENDBRANCH   1  24
BRANCH   2  33
HETATM   33  C11 UNL     1       9.960  33.811 -12.119  1.00  0.00     0.185 C
BRANCH  33  34
HETATM   34  O2  UNL     1       9.965  32.892 -11.181  1.00  0.00    -0.386 OA
ATOM     35  H2  UNL     1       9.229  32.679 -10.618  1.00  0.00     0.210 HD
ENDBRANCH  33  34
BRANCH  33  36
HETATM   36  C12 UNL     1       8.563  34.401 -12.104  1.00  0.00    -0.025 A
HETATM   37  C13 UNL     1       7.552  33.830 -11.324  1.00  0.00     0.010 A
HETATM   38  C14 UNL     1       6.280  34.348 -11.256  1.00  0.00     0.001 A
HETATM   39  C15 UNL     1       5.985  35.466 -11.978  1.00  0.00     0.000 A
HETATM   40  C16 UNL     1       6.940  36.072 -12.763  1.00  0.00     0.001 A
HETATM   41  C17 UNL     1       8.198  35.515 -12.797  1.00  0.00     0.010 A
ENDBRANCH  33  36
ENDBRANCH   2  33
TORSDOF 11
ENDMDL