MODEL 3
REMARK VINA RESULT: -7.811952686      5.253      8.053
REMARK  9 active torsions:
REMARK  status: ('A' for Active; 'I' for Inactive)
REMARK    1  A    between atoms: C2_4  and  C3_5
REMARK    2  A    between atoms: C2_4  and  C4_8
REMARK    3  A    between atoms: C4_8  and  C5_9
REMARK    4  A    between atoms: C4_8  and  C21_33
REMARK    5  A    between atoms: C5_9  and  C14_26
REMARK    6  A    between atoms: N2_10  and  N3_12
REMARK       I    between atoms: N3_12  and  C6_14
REMARK    7  A    between atoms: C6_14  and  C7_16
REMARK       I    between atoms: C7_16  and  N4_18
REMARK    8  A    between atoms: N4_18  and  C8_20
REMARK    9  A    between atoms: C26_38  and  N5_39
ROOT
HETATM    1  C5  UNL     1      18.891  35.278 -19.556  1.00  0.00     0.050 C
HETATM    2  N2  UNL     1      18.354  35.731 -18.548  1.00  0.00    -0.300 N
ATOM      3  H2  UNL     1      18.791  36.612 -18.279  1.00  0.00     0.186 HD
ENDROOT
BRANCH   1   4
HETATM    4  C4  UNL     1      20.113  36.174 -20.171  1.00  0.00     0.128 C
BRANCH   4   5
HETATM    5  C2  UNL     1      19.712  37.474 -19.736  1.00  0.00     0.082 C
HETATM    6  N1  UNL     1      19.012  38.202 -20.587  1.00  0.00    -0.393 N
HETATM    7  C1  UNL     1      18.604  37.883 -21.888  1.00  0.00     0.146 C
ATOM      8  H1  UNL     1      18.729  39.121 -20.250  1.00  0.00     0.159 HD
BRANCH   5   9
HETATM    9  C3  UNL     1      19.941  38.155 -18.484  1.00  0.00     0.265 C
HETATM   10  O1  UNL     1      19.237  38.148 -17.457  1.00  0.00    -0.273 OA
HETATM   11 CL1  UNL     1      21.399  39.157 -18.309  1.00  0.00    -0.037 Cl
ENDBRANCH   5   9
ENDBRANCH   4   5
BRANCH   4  12
HETATM   12  C21 UNL     1      21.273  35.410 -19.831  1.00  0.00    -0.009 A
HETATM   13  C22 UNL     1      21.582  35.450 -18.441  1.00  0.00     0.011 A
HETATM   14  C23 UNL     1      22.536  34.668 -17.862  1.00  0.00     0.001 A
HETATM   15  C24 UNL     1      23.251  33.785 -18.625  1.00  0.00     0.002 A
HETATM   16  C25 UNL     1      22.987  33.717 -19.945  1.00  0.00     0.037 A
HETATM   17  C26 UNL     1      21.989  34.542 -20.544  1.00  0.00     0.110 A
BRANCH  17  18
HETATM   18  N5  UNL     1      21.862  34.284 -21.895  1.00  0.00    -0.115 N
HETATM   19  O4  UNL     1      21.371  33.353 -22.447  1.00  0.00    -0.532 OA
HETATM   20  O5  UNL     1      22.241  35.304 -22.795  1.00  0.00    -0.532 OA
ENDBRANCH  17  18
ENDBRANCH   4  12
ENDBRANCH   1   4
BRANCH   1  21
HETATM   21  C14 UNL     1      18.492  34.146 -20.344  1.00  0.00    -0.011 A
HETATM   22  C15 UNL     1      18.094  34.258 -21.655  1.00  0.00     0.014 A
HETATM   23  C16 UNL     1      17.657  33.112 -22.327  1.00  0.00     0.007 A
HETATM   24  C17 UNL     1      17.604  31.879 -21.749  1.00  0.00    -0.062 A
HETATM   25  C18 UNL     1      17.123  30.684 -22.524  1.00  0.00     0.048 C
HETATM   26  C19 UNL     1      17.999  31.740 -20.434  1.00  0.00     0.007 A
HETATM   27  C20 UNL     1      18.431  32.864 -19.765  1.00  0.00     0.014 A
ENDBRANCH   1  21
BRANCH   2  28
HETATM   28  N3  UNL     1      17.379  35.424 -17.701  1.00  0.00    -0.262 N
HETATM   29  C6  UNL     1      17.348  34.556 -16.590  1.00  0.00     0.328 C
HETATM   30  O2  UNL     1      18.355  33.903 -16.247  1.00  0.00    -0.261 OA
ATOM     31  H3  UNL     1      16.496  35.900 -17.886  1.00  0.00     0.190 HD
BRANCH  29  32
HETATM   32  C7  UNL     1      16.137  34.370 -15.771  1.00  0.00     0.315 C
HETATM   33  O3  UNL     1      15.489  33.333 -16.021  1.00  0.00    -0.262 OA
HETATM   34  N4  UNL     1      15.750  35.283 -14.797  1.00  0.00    -0.319 N
ATOM     35  H4  UNL     1      16.349  36.100 -14.674  1.00  0.00     0.169 HD
BRANCH  34  36
HETATM   36  C8  UNL     1      14.624  35.201 -13.963  1.00  0.00     0.035 A
HETATM   37  C9  UNL     1      13.364  35.543 -14.475  1.00  0.00     0.029 A
HETATM   38  C10 UNL     1      12.203  35.517 -13.766  1.00  0.00     0.002 A
HETATM   39  C11 UNL     1      12.228  35.133 -12.451  1.00  0.00     0.000 A
HETATM   40  C12 UNL     1      13.433  34.789 -11.901  1.00  0.00     0.002 A
HETATM   41  C13 UNL     1      14.621  34.820 -12.643  1.00  0.00     0.029 A
ENDBRANCH  34  36
ENDBRANCH  29  32
ENDBRANCH   2  28
TORSDOF 9
ENDMDL