MODEL 2
REMARK VINA RESULT: -8.487906661      5.592     10.313
REMARK  12 active torsions:
REMARK  status: ('A' for Active; 'I' for Inactive)
REMARK    1  A    between atoms: C3_3  and  O1_4
REMARK    2  A    between atoms: O1_4  and  C4_5
REMARK    3  A    between atoms: C6_7  and  N1_8
REMARK    4  A    between atoms: C12_17  and  C13_18
REMARK    5  A    between atoms: C13_18  and  O2_19
REMARK    6  A    between atoms: O2_19  and  C14_20
REMARK    7  A    between atoms: C14_20  and  C15_22
REMARK    8  A    between atoms: C15_22  and  N2_23
REMARK    9  A    between atoms: C15_22  and  N3_32
REMARK       I    between atoms: N2_23  and  C16_25
REMARK   10  A    between atoms: C16_25  and  O5_27
REMARK   11  A    between atoms: O5_27  and  C17_28
REMARK       I    between atoms: N3_32  and  C21_34
REMARK   12  A    between atoms: C21_34  and  C22_36
ROOT
HETATM    1  C13 UNL     1       9.990  32.805 -16.573  1.00  0.00     0.194 C
ENDROOT
BRANCH   1   2
HETATM    2  C12 UNL     1      11.436  32.690 -16.912  1.00  0.00     0.015 C
HETATM    3  C2  UNL     1      12.120  34.015 -17.041  1.00  0.00    -0.041 C
HETATM    4  C1  UNL     1      11.477  35.116 -17.375  1.00  0.00     0.018 C
HETATM    5  C3  UNL     1      13.570  33.832 -16.756  1.00  0.00     0.116 C
HETATM    6  C6  UNL     1      14.367  33.790 -18.047  1.00  0.00     0.223 C
HETATM    7  C10 UNL     1      13.632  32.380 -16.228  1.00  0.00     0.028 C
HETATM    8  C7  UNL     1      13.641  32.949 -19.092  1.00  0.00     0.041 C
HETATM    9  C8  UNL     1      13.097  31.702 -18.503  1.00  0.00    -0.003 C
HETATM   10  C9  UNL     1      13.936  31.382 -17.283  1.00  0.00     0.013 C
HETATM   11  C25 UNL     1      11.636  31.862 -18.137  1.00  0.00    -0.030 C
HETATM   12  C26 UNL     1      10.836  32.443 -19.273  1.00  0.00     0.016 C
HETATM   13  C27 UNL     1      11.114  30.456 -17.926  1.00  0.00     0.016 C
HETATM   14  C11 UNL     1      12.225  32.114 -15.723  1.00  0.00     0.025 C
BRANCH   5  15
HETATM   15  O1  UNL     1      14.122  34.551 -15.792  1.00  0.00    -0.373 OA
BRANCH  15  16
HETATM   16  C4  UNL     1      15.327  34.481 -15.287  1.00  0.00     0.165 C
HETATM   17  C5  UNL     1      15.771  35.910 -14.908  1.00  0.00     0.033 C
ENDBRANCH  15  16
ENDBRANCH   5  15
BRANCH   6  18
HETATM   18  N1  UNL     1      14.592  35.061 -18.655  1.00  0.00    -0.072 N
ATOM     19  H13 UNL     1      13.994  35.172 -19.474  1.00  0.00     0.274 HD
ATOM     20  H12 UNL     1      14.222  35.806 -18.063  1.00  0.00     0.274 HD
ATOM     21  H11 UNL     1      15.563  35.254 -18.898  1.00  0.00     0.274 HD
ENDBRANCH   6  18
ENDBRANCH   1   2
BRANCH   1  22
HETATM   22  O2  UNL     1       9.660  32.057 -15.389  1.00  0.00    -0.317 OA
BRANCH  22  23
HETATM   23  C14 UNL     1       8.591  32.420 -14.589  1.00  0.00     0.301 C
HETATM   24  O3  UNL     1       7.430  32.397 -15.028  1.00  0.00    -0.261 OA
BRANCH  23  25
HETATM   25  C15 UNL     1       8.912  32.836 -13.174  1.00  0.00     0.290 C
BRANCH  25  26
HETATM   26  N2  UNL     1       7.733  33.294 -12.508  1.00  0.00    -0.307 N
HETATM   27  C16 UNL     1       7.239  34.618 -12.615  1.00  0.00     0.363 C
HETATM   28  O4  UNL     1       7.855  35.439 -13.327  1.00  0.00    -0.238 OA
ATOM     29  H2  UNL     1       7.221  32.634 -11.923  1.00  0.00     0.167 HD
BRANCH  27  30
HETATM   30  O5  UNL     1       6.093  35.015 -11.946  1.00  0.00    -0.294 OA
BRANCH  30  31
HETATM   31  C17 UNL     1       4.903  35.410 -12.576  1.00  0.00     0.061 C
HETATM   32  C18 UNL     1       3.760  35.013 -11.656  1.00  0.00     0.046 C
HETATM   33  C19 UNL     1       4.792  34.674 -13.904  1.00  0.00     0.046 C
HETATM   34  C20 UNL     1       4.951  36.901 -12.794  1.00  0.00     0.046 C
ENDBRANCH  30  31
ENDBRANCH  27  30
ENDBRANCH  25  26
BRANCH  25  35
HETATM   35  N3  UNL     1       9.859  33.918 -13.224  1.00  0.00    -0.331 N
HETATM   36  C21 UNL     1      10.928  34.049 -12.316  1.00  0.00     0.223 C
HETATM   37  O6  UNL     1      11.111  33.214 -11.418  1.00  0.00    -0.273 OA
ATOM     38  H3  UNL     1       9.751  34.624 -13.952  1.00  0.00     0.165 HD
BRANCH  36  39
HETATM   39  C22 UNL     1      11.850  35.195 -12.428  1.00  0.00     0.070 C
HETATM   40  C23 UNL     1      13.303  34.731 -12.226  1.00  0.00     0.019 C
HETATM   41  C24 UNL     1      11.768  35.904 -13.736  1.00  0.00     0.019 C
ENDBRANCH  36  39
ENDBRANCH  25  35
ENDBRANCH  23  25
ENDBRANCH  22  23
ENDBRANCH   1  22
TORSDOF 12
ENDMDL