MODEL 1
REMARK VINA RESULT: -8.391646868      0.000      0.000
REMARK  9 active torsions:
REMARK  status: ('A' for Active; 'I' for Inactive)
REMARK    1  A    between atoms: O1_2  and  C2_3
REMARK    2  A    between atoms: C2_3  and  C3_7
REMARK    3  A    between atoms: C4_8  and  C5_9
REMARK    4  A    between atoms: C8_12  and  N2_13
REMARK       I    between atoms: N2_13  and  C9_15
REMARK       I    between atoms: C9_15  and  N3_17
REMARK    5  A    between atoms: C15_26  and  S1_27
REMARK    6  A    between atoms: S1_27  and  N5_29
REMARK    7  A    between atoms: S1_27  and  S2_33
REMARK    8  A    between atoms: S2_33  and  C17_34
REMARK    9  A    between atoms: C17_34  and  C18_35
ROOT
HETATM    1  N5  UNL     1      11.681  33.849 -17.655  1.00  0.00    -0.240 N
ATOM      2  H5  UNL     1      12.685  33.905 -17.825  1.00  0.00     0.189 HD
HETATM    3  C16 UNL     1      10.772  34.596 -18.456  1.00  0.00     0.190 C
HETATM    4  N6  UNL     1      10.032  35.210 -19.103  1.00  0.00    -0.171 NA
ENDROOT
BRANCH   1   5
HETATM    5  S1  UNL     1      11.135  32.962 -16.539  1.00  0.00     0.139 S
HETATM    6  O3  UNL     1       9.639  32.903 -16.827  1.00  0.00    -0.231 OA
BRANCH   5   7
HETATM    7  C15 UNL     1      11.285  33.431 -14.908  1.00  0.00     0.146 A
HETATM    8  C8  UNL     1      12.447  34.031 -14.392  1.00  0.00     0.074 A
HETATM    9  C7  UNL     1      12.428  34.434 -13.092  1.00  0.00     0.035 A
HETATM   10  C6  UNL     1      11.309  34.265 -12.275  1.00  0.00     0.032 A
HETATM   11  C5  UNL     1      10.194  33.675 -12.798  1.00  0.00     0.033 A
HETATM   12  N7  UNL     1      10.227  33.289 -14.072  1.00  0.00    -0.346 N
ATOM     13  H7  UNL     1       9.387  32.851 -14.449  1.00  0.00     0.167 HD
BRANCH   8  14
HETATM   14  N2  UNL     1      13.576  34.121 -15.229  1.00  0.00    -0.306 N
HETATM   15  C9  UNL     1      14.222  35.299 -15.592  1.00  0.00     0.325 C
HETATM   16  O2  UNL     1      13.873  36.427 -15.206  1.00  0.00    -0.247 OA
HETATM   17  N3  UNL     1      15.369  35.326 -16.462  1.00  0.00    -0.309 N
HETATM   18  C10 UNL     1      16.431  34.703 -16.167  1.00  0.00     0.038 A
ATOM     19  H3  UNL     1      15.325  35.857 -17.331  1.00  0.00     0.170 HD
HETATM   20  C11 UNL     1      17.476  34.810 -17.114  1.00  0.00     0.046 A
HETATM   21  C14 UNL     1      16.671  33.961 -15.036  1.00  0.00     0.046 A
HETATM   22  C12 UNL     1      18.657  34.171 -16.845  1.00  0.00     0.090 A
HETATM   23  N4  UNL     1      18.838  33.453 -15.713  1.00  0.00    -0.375 N
HETATM   24  C13 UNL     1      17.876  33.328 -14.797  1.00  0.00     0.090 A
ATOM     25  H4  UNL     1      19.734  32.994 -15.556  1.00  0.00     0.164 HD
ATOM     26  H2  UNL     1      13.952  33.248 -15.601  1.00  0.00     0.171 HD
ENDBRANCH   8  14
BRANCH  11  27
HETATM   27  C4  UNL     1       8.985  33.464 -12.054  1.00  0.00     0.034 C
HETATM   28  C3  UNL     1       8.102  34.418 -11.894  1.00  0.00     0.058 C
BRANCH  28  29
HETATM   29  C2  UNL     1       6.892  34.136 -11.118  1.00  0.00     0.135 C
HETATM   30  N1  UNL     1       6.879  33.125 -10.332  1.00  0.00    -0.380 N
ATOM     31  H12 UNL     1       6.036  32.929  -9.792  1.00  0.00     0.158 HD
ATOM     32  H11 UNL     1       7.688  32.512 -10.233  1.00  0.00     0.158 HD
BRANCH  29  33
HETATM   33  O1  UNL     1       5.798  34.964 -11.251  1.00  0.00    -0.341 OA
HETATM   34  C1  UNL     1       5.593  35.743 -12.441  1.00  0.00     0.211 C
ENDBRANCH  29  33
ENDBRANCH  28  29
ENDBRANCH  11  27
ENDBRANCH   5   7
BRANCH   5  35
HETATM   35  S2  UNL     1      12.237  31.271 -16.715  1.00  0.00    -0.046 SA
BRANCH  35  36
HETATM   36  C17 UNL     1      12.550  30.624 -18.252  1.00  0.00     0.128 C
BRANCH  36  37
HETATM   37  C18 UNL     1      13.909  30.886 -18.783  1.00  0.00    -0.048 A
HETATM   38  C19 UNL     1      14.796  31.669 -18.055  1.00  0.00     0.011 A
HETATM   39  C20 UNL     1      16.051  31.872 -18.582  1.00  0.00     0.043 A
HETATM   40  C21 UNL     1      16.448  31.337 -19.784  1.00  0.00     0.116 A
HETATM   41  F1  UNL     1      17.686  31.534 -20.312  1.00  0.00    -0.206 F
HETATM   42  C22 UNL     1      15.570  30.560 -20.509  1.00  0.00     0.043 A
HETATM   43  C23 UNL     1      14.299  30.353 -19.978  1.00  0.00     0.011 A
ENDBRANCH  36  37
ENDBRANCH  35  36
ENDBRANCH   5  35
ENDBRANCH   1   5
TORSDOF 9
ENDMDL