MODEL 3
REMARK VINA RESULT: -9.648873364      1.440      2.038
REMARK  9 active torsions:
REMARK  status: ('A' for Active; 'I' for Inactive)
REMARK    1  A    between atoms: S1_2  and  N1_4
REMARK    2  A    between atoms: S1_2  and  C19_36
REMARK    3  A    between atoms: N1_4  and  C1_6
REMARK    4  A    between atoms: C4_9  and  S2_10
REMARK    5  A    between atoms: S2_10  and  N2_13
REMARK    6  A    between atoms: N2_13  and  C5_15
REMARK    7  A    between atoms: C8_18  and  C9_19
REMARK    8  A    between atoms: C9_19  and  C10_24
REMARK    9  A    between atoms: N3_20  and  O5_22
ROOT
HETATM    1  S2  UNL     1      14.512  35.004 -14.433  1.00  0.00     0.266 S
HETATM    2  O3  UNL     1      15.602  34.868 -13.375  1.00  0.00    -0.200 OA
HETATM    3  O4  UNL     1      14.650  36.460 -14.893  1.00  0.00    -0.200 OA
ENDROOT
BRANCH   1   4
HETATM    4  C4  UNL     1      12.971  34.768 -13.655  1.00  0.00     0.118 A
HETATM    5  C3  UNL     1      12.782  34.139 -12.449  1.00  0.00     0.031 A
HETATM    6  C2  UNL     1      11.525  33.989 -11.876  1.00  0.00     0.032 A
HETATM    7  C1  UNL     1      10.386  34.466 -12.491  1.00  0.00     0.045 A
HETATM    8  C18 UNL     1      10.567  35.099 -13.702  1.00  0.00     0.074 A
HETATM    9  C17 UNL     1      11.808  35.251 -14.274  1.00  0.00     0.141 A
HETATM   10  F1  UNL     1      11.971  35.878 -15.470  1.00  0.00    -0.204 F
BRANCH   7  11
HETATM   11  N1  UNL     1       9.103  34.321 -11.918  1.00  0.00    -0.281 N
ATOM     12  H1  UNL     1       9.048  33.926 -10.979  1.00  0.00     0.179 HD
BRANCH  11  13
HETATM   13  S1  UNL     1       7.647  34.755 -12.672  1.00  0.00     0.263 S
HETATM   14  O1  UNL     1       7.684  36.138 -13.289  1.00  0.00    -0.200 OA
HETATM   15  O2  UNL     1       7.326  33.809 -13.795  1.00  0.00    -0.200 OA
BRANCH  13  16
HETATM   16  C19 UNL     1       6.283  34.733 -11.579  1.00  0.00     0.079 A
HETATM   17  C20 UNL     1       5.095  35.323 -11.992  1.00  0.00     0.025 A
HETATM   18  C21 UNL     1       3.981  35.346 -11.193  1.00  0.00     0.002 A
HETATM   19  C22 UNL     1       4.064  34.764  -9.947  1.00  0.00     0.000 A
HETATM   20  C23 UNL     1       5.233  34.173  -9.515  1.00  0.00     0.002 A
HETATM   21  C24 UNL     1       6.320  34.167 -10.333  1.00  0.00     0.025 A
ENDBRANCH  13  16
ENDBRANCH  11  13
ENDBRANCH   7  11
ENDBRANCH   1   4
BRANCH   1  22
HETATM   22  N2  UNL     1      14.856  33.933 -15.697  1.00  0.00    -0.281 N
ATOM     23  H2  UNL     1      15.825  33.806 -15.989  1.00  0.00     0.179 HD
BRANCH  22  24
HETATM   24  C5  UNL     1      13.840  33.207 -16.361  1.00  0.00     0.042 A
HETATM   25  C6  UNL     1      13.397  33.666 -17.576  1.00  0.00     0.031 A
HETATM   26  C7  UNL     1      12.392  33.008 -18.254  1.00  0.00     0.016 A
HETATM   27  C8  UNL     1      11.768  31.854 -17.764  1.00  0.00    -0.005 A
HETATM   28  C15 UNL     1      12.228  31.420 -16.553  1.00  0.00     0.016 A
HETATM   29  C16 UNL     1      13.254  32.083 -15.851  1.00  0.00     0.031 A
BRANCH  27  30
HETATM   30  C9  UNL     1      10.726  31.219 -18.555  1.00  0.00     0.091 C
HETATM   31  N3  UNL     1      10.854  30.041 -18.968  1.00  0.00    -0.266 N
ATOM     32  H3  UNL     1      10.004  29.829 -19.490  1.00  0.00     0.194 HD
BRANCH  31  33
HETATM   33  O5  UNL     1      11.575  28.993 -19.024  1.00  0.00    -0.289 OA
ATOM     34  H5  UNL     1      11.674  28.074 -18.806  1.00  0.00     0.244 HD
ENDBRANCH  31  33
BRANCH  30  35
HETATM   35  C10 UNL     1       9.475  31.886 -18.934  1.00  0.00     0.061 A
HETATM   36  C11 UNL     1       9.362  32.386 -20.238  1.00  0.00     0.032 A
HETATM   37  C12 UNL     1       8.210  33.037 -20.670  1.00  0.00     0.004 A
HETATM   38  C13 UNL     1       7.155  33.199 -19.801  1.00  0.00     0.017 A
HETATM   39  C14 UNL     1       7.303  32.698 -18.535  1.00  0.00     0.088 A
HETATM   40  N4  UNL     1       8.432  32.076 -18.161  1.00  0.00    -0.364 N
ATOM     41  H4  UNL     1       8.482  31.725 -17.205  1.00  0.00     0.165 HD
ENDBRANCH  30  35
ENDBRANCH  27  30
ENDBRANCH  22  24
ENDBRANCH   1  22
TORSDOF 9
ENDMDL