MODEL 1
REMARK VINA RESULT: -9.990742991      0.000      0.000
REMARK  11 active torsions:
REMARK  status: ('A' for Active; 'I' for Inactive)
REMARK    1  A    between atoms: C1_2  and  C2_3
REMARK       I    between atoms: C1_2  and  N1_17
REMARK    2  A    between atoms: C2_3  and  O2_4
REMARK    3  A    between atoms: O2_4  and  C3_5
REMARK    4  A    between atoms: C3_5  and  C4_7
REMARK    5  A    between atoms: N1_17  and  C12_19
REMARK    6  A    between atoms: C15_22  and  N2_23
REMARK    7  A    between atoms: N2_23  and  C16_25
REMARK    8  A    between atoms: C16_25  and  O5_26
REMARK    9  A    between atoms: C16_25  and  N3_28
REMARK   10  A    between atoms: N3_28  and  S1_29
REMARK   11  A    between atoms: S1_29  and  C17_32
ROOT
HETATM    1  C12 UNL     1       6.845  35.003 -11.553  1.00  0.00     0.035 A
HETATM    2  C13 UNL     1       5.881  34.515 -10.748  1.00  0.00     0.032 A
HETATM    3  C14 UNL     1       4.587  35.014 -10.910  1.00  0.00     0.032 A
HETATM    4  C15 UNL     1       4.245  36.006 -11.867  1.00  0.00     0.036 A
HETATM    5  C23 UNL     1       5.262  36.517 -12.655  1.00  0.00     0.032 A
HETATM    6  C24 UNL     1       6.528  36.053 -12.529  1.00  0.00     0.032 A
ENDROOT
BRANCH   1   7
HETATM    7  N1  UNL     1       7.893  34.205 -12.007  1.00  0.00    -0.315 N
HETATM    8  C1  UNL     1       7.909  33.526 -13.314  1.00  0.00     0.317 C
HETATM    9  O1  UNL     1       6.982  33.411 -14.084  1.00  0.00    -0.256 OA
ATOM     10  H1  UNL     1       8.700  34.084 -11.396  1.00  0.00     0.170 HD
BRANCH   8  11
HETATM   11  C2  UNL     1       9.232  33.081 -13.530  1.00  0.00     0.086 C
BRANCH  11  12
HETATM   12  O2  UNL     1      10.486  33.049 -13.905  1.00  0.00    -0.225 OA
BRANCH  12  13
HETATM   13  C3  UNL     1      11.312  34.098 -14.339  1.00  0.00     0.309 C
HETATM   14  O3  UNL     1      11.163  34.615 -15.426  1.00  0.00    -0.258 OA
BRANCH  13  15
HETATM   15  C4  UNL     1      12.328  34.565 -13.377  1.00  0.00     0.075 A
HETATM   16  C5  UNL     1      12.228  34.555 -11.972  1.00  0.00     0.161 A
HETATM   17  O4  UNL     1      13.426  34.699 -11.481  1.00  0.00    -0.321 OA
HETATM   18  C6  UNL     1      14.367  34.815 -12.405  1.00  0.00     0.086 A
HETATM   19  C7  UNL     1      15.722  34.967 -12.351  1.00  0.00     0.040 A
HETATM   20  C11 UNL     1      13.689  34.754 -13.606  1.00  0.00     0.018 A
HETATM   21  C8  UNL     1      16.443  35.055 -13.515  1.00  0.00     0.026 A
HETATM   22  C9  UNL     1      15.800  34.991 -14.743  1.00  0.00     0.035 A
HETATM   23 CL1  UNL     1      16.738  35.120 -16.177  1.00  0.00    -0.084 Cl
HETATM   24  C10 UNL     1      14.394  34.840 -14.786  1.00  0.00     0.039 A
ENDBRANCH  13  15
ENDBRANCH  12  13
ENDBRANCH  11  12
ENDBRANCH   8  11
ENDBRANCH   1   7
BRANCH   4  25
HETATM   25  N2  UNL     1       2.874  36.037 -12.186  1.00  0.00    -0.310 N
ATOM     26  H2  UNL     1       2.296  36.783 -11.800  1.00  0.00     0.170 HD
BRANCH  25  27
HETATM   27  C16 UNL     1       2.273  35.076 -13.017  1.00  0.00     0.310 C
BRANCH  27  28
HETATM   28  O5  UNL     1       1.461  34.254 -12.381  1.00  0.00    -0.321 OA
ATOM     29  H5  UNL     1       1.259  33.462 -12.866  1.00  0.00     0.222 HD
ENDBRANCH  27  28
BRANCH  27  30
HETATM   30  N3  UNL     1       2.449  34.929 -14.311  1.00  0.00    -0.275 NA
BRANCH  30  31
HETATM   31  S1  UNL     1       2.678  34.735 -15.965  1.00  0.00     0.328 S
HETATM   32  O6  UNL     1       3.889  33.765 -16.141  1.00  0.00    -0.186 OA
HETATM   33  O7  UNL     1       2.949  35.940 -16.777  1.00  0.00    -0.186 OA
BRANCH  31  34
HETATM   34  C17 UNL     1       1.236  33.913 -16.630  1.00  0.00     0.092 A
HETATM   35  C18 UNL     1       0.801  32.707 -16.173  1.00  0.00     0.026 A
HETATM   36  C19 UNL     1      -0.421  32.224 -16.625  1.00  0.00     0.002 A
HETATM   37  C20 UNL     1      -1.151  32.974 -17.529  1.00  0.00     0.000 A
HETATM   38  C21 UNL     1      -0.722  34.191 -18.002  1.00  0.00     0.002 A
HETATM   39  C22 UNL     1       0.501  34.648 -17.526  1.00  0.00     0.026 A
ENDBRANCH  31  34
ENDBRANCH  30  31
ENDBRANCH  27  30
ENDBRANCH  25  27
ENDBRANCH   4  25
TORSDOF 11
ENDMDL