MODEL 3
REMARK VINA RESULT: -8.727158926      1.092      1.474
REMARK  10 active torsions:
REMARK  status: ('A' for Active; 'I' for Inactive)
REMARK    1  A    between atoms: C2_2  and  C3_3
REMARK       I    between atoms: C3_3  and  N1_5
REMARK    2  A    between atoms: N1_5  and  C4_7
REMARK    3  A    between atoms: C6_9  and  N2_10
REMARK    4  A    between atoms: N2_10  and  S1_12
REMARK    5  A    between atoms: S1_12  and  C7_15
REMARK    6  A    between atoms: C10_19  and  N3_20
REMARK    7  A    between atoms: N3_20  and  C11_22
REMARK    8  A    between atoms: C14_25  and  C15_26
REMARK    9  A    between atoms: C16_27  and  C18_30
REMARK   10  A    between atoms: C18_30  and  O5_32
ROOT
HETATM    1  C15 UNL     1       6.664  35.381 -11.563  1.00  0.00     0.040 C
HETATM    2  C16 UNL     1       5.564  35.114 -12.243  1.00  0.00     0.120 C
HETATM    3  C17 UNL     1       5.569  34.650 -13.590  1.00  0.00     0.105 C
HETATM    4  N4  UNL     1       5.551  34.284 -14.709  1.00  0.00    -0.191 NA
ENDROOT
BRANCH   2   5
HETATM    5  C18 UNL     1       4.244  35.301 -11.594  1.00  0.00     0.303 C
HETATM    6  O4  UNL     1       4.116  35.005 -10.386  1.00  0.00    -0.258 OA
BRANCH   5   7
HETATM    7  O5  UNL     1       3.154  35.789 -12.270  1.00  0.00    -0.322 OA
HETATM    8  C19 UNL     1       2.068  35.036 -12.730  1.00  0.00     0.213 C
ENDBRANCH   5   7
ENDBRANCH   2   5
BRANCH   1   9
HETATM    9  C14 UNL     1       7.959  35.207 -12.170  1.00  0.00    -0.035 A
HETATM   10  C13 UNL     1       8.532  33.954 -12.174  1.00  0.00     0.013 A
HETATM   11  C12 UNL     1       9.760  33.714 -12.765  1.00  0.00     0.030 A
HETATM   12  C11 UNL     1      10.393  34.790 -13.356  1.00  0.00     0.032 A
HETATM   13  C21 UNL     1       9.855  36.058 -13.376  1.00  0.00     0.030 A
HETATM   14  C20 UNL     1       8.611  36.245 -12.764  1.00  0.00     0.013 A
BRANCH  12  15
HETATM   15  N3  UNL     1      11.671  34.590 -13.982  1.00  0.00    -0.355 N
ATOM     16  H3  UNL     1      11.707  34.338 -14.970  1.00  0.00     0.166 HD
BRANCH  15  17
HETATM   17  C10 UNL     1      12.766  34.719 -13.328  1.00  0.00     0.048 A
HETATM   18  C9  UNL     1      13.954  34.878 -13.999  1.00  0.00     0.045 A
HETATM   19  C6  UNL     1      14.019  34.893 -15.384  1.00  0.00     0.059 A
HETATM   20  C24 UNL     1      15.121  35.032 -13.241  1.00  0.00     0.049 A
HETATM   21  C5  UNL     1      15.237  35.061 -15.987  1.00  0.00     0.060 A
HETATM   22  C4  UNL     1      16.418  35.216 -15.266  1.00  0.00     0.039 A
HETATM   23  C25 UNL     1      16.341  35.199 -13.907  1.00  0.00     0.060 A
HETATM   24  N5  UNL     1      15.120  35.028 -11.893  1.00  0.00    -0.365 N
HETATM   25  C23 UNL     1      13.953  34.872 -11.255  1.00  0.00     0.090 A
ATOM     26  H5  UNL     1      15.989  35.142 -11.371  1.00  0.00     0.165 HD
HETATM   27  C22 UNL     1      12.775  34.717 -11.944  1.00  0.00     0.047 A
BRANCH  19  28
HETATM   28  N2  UNL     1      12.842  34.702 -16.176  1.00  0.00    -0.278 N
ATOM     29  H2  UNL     1      12.165  35.454 -16.310  1.00  0.00     0.179 HD
BRANCH  28  30
HETATM   30  S1  UNL     1      12.615  33.149 -16.896  1.00  0.00     0.289 S
HETATM   31  O2  UNL     1      13.329  32.081 -16.103  1.00  0.00    -0.198 OA
HETATM   32  O3  UNL     1      13.212  33.111 -18.273  1.00  0.00    -0.198 OA
BRANCH  30  33
HETATM   33  C7  UNL     1      10.924  32.734 -17.062  1.00  0.00     0.221 C
HETATM   34  C8  UNL     1      10.300  32.002 -16.148  1.00  0.00     0.071 C
HETATM   35  F1  UNL     1      10.211  33.155 -18.133  1.00  0.00    -0.192 F
ENDBRANCH  30  33
ENDBRANCH  28  30
ENDBRANCH  19  28
BRANCH  22  36
HETATM   36  N1  UNL     1      17.590  35.400 -16.022  1.00  0.00    -0.324 N
HETATM   37  C3  UNL     1      18.488  34.380 -16.330  1.00  0.00     0.244 C
HETATM   38  O1  UNL     1      18.347  33.203 -15.977  1.00  0.00    -0.268 OA
ATOM     39  H1  UNL     1      17.795  36.339 -16.366  1.00  0.00     0.169 HD
BRANCH  37  40
HETATM   40  C2  UNL     1      19.690  34.708 -17.126  1.00  0.00     0.064 C
HETATM   41  C1  UNL     1      19.687  35.741 -17.939  1.00  0.00     0.017 C
ENDBRANCH  37  40
ENDBRANCH  22  36
ENDBRANCH  15  17
ENDBRANCH  12  15
ENDBRANCH   1   9
TORSDOF 10
ENDMDL