MODEL 2
REMARK VINA RESULT: -9.548016073      3.145     11.424
REMARK  14 active torsions:
REMARK  status: ('A' for Active; 'I' for Inactive)
REMARK    1  A    between atoms: C2_2  and  C3_3
REMARK    2  A    between atoms: C3_3  and  C4_4
REMARK    3  A    between atoms: N2_7  and  C5_8
REMARK    4  A    between atoms: C5_8  and  C6_9
REMARK       I    between atoms: N3_12  and  C9_13
REMARK    5  A    between atoms: C9_13  and  O2_15
REMARK    6  A    between atoms: O2_15  and  C10_16
REMARK    7  A    between atoms: N4_24  and  C17_25
REMARK    8  A    between atoms: C20_28  and  C21_29
REMARK       I    between atoms: C21_29  and  N5_31
REMARK    9  A    between atoms: N5_31  and  C22_33
REMARK   10  A    between atoms: C22_33  and  C23_34
REMARK   11  A    between atoms: C23_34  and  C24_35
REMARK   12  A    between atoms: C24_35  and  S1_36
REMARK   13  A    between atoms: S1_36  and  N6_39
REMARK   14  A    between atoms: N6_39  and  C25_41
ROOT
HETATM    1  C4  UNL     1      18.051  23.917  19.412  1.00  0.00     0.102 A
HETATM    2  N1  UNL     1      18.284  24.920  18.536  1.00  0.00    -0.282 N
ATOM      3  H1  UNL     1      18.890  25.720  18.719  1.00  0.00     0.188 HD
HETATM    4  N2  UNL     1      17.622  24.723  17.411  1.00  0.00    -0.241 N
HETATM    5  C16 UNL     1      16.969  23.581  17.593  1.00  0.00     0.345 A
HETATM    6  O3  UNL     1      16.213  23.080  16.690  1.00  0.00    -0.245 OA
HETATM    7  N4  UNL     1      17.204  23.052  18.810  1.00  0.00    -0.282 N
ENDROOT
BRANCH   7   8
HETATM    8  C17 UNL     1      16.652  21.803  19.291  1.00  0.00     0.096 C
HETATM    9  C18 UNL     1      15.224  21.994  19.775  1.00  0.00     0.027 C
HETATM   10  C19 UNL     1      14.727  20.582  20.135  1.00  0.00     0.016 C
HETATM   11  C20 UNL     1      14.483  19.934  18.777  1.00  0.00     0.078 C
HETATM   12  C28 UNL     1      15.699  19.913  17.931  1.00  0.00     0.016 C
HETATM   13  C29 UNL     1      16.911  20.609  18.468  1.00  0.00     0.027 C
BRANCH  11  14
HETATM   14  C21 UNL     1      13.818  18.624  18.893  1.00  0.00     0.221 C
HETATM   15  O4  UNL     1      14.427  17.573  18.585  1.00  0.00    -0.273 OA
HETATM   16  N5  UNL     1      12.486  18.531  19.349  1.00  0.00    -0.361 N
ATOM     17  H5  UNL     1      12.007  19.394  19.605  1.00  0.00     0.162 HD
BRANCH  16  18
HETATM   18  C22 UNL     1      11.745  17.268  19.480  1.00  0.00     0.123 C
BRANCH  18  19
HETATM   19  C23 UNL     1      10.544  17.240  18.612  1.00  0.00     0.036 C
BRANCH  19  20
HETATM   20  C24 UNL     1      10.746  17.237  17.138  1.00  0.00     0.165 C
BRANCH  20  21
HETATM   21  S1  UNL     1      10.843  18.831  16.420  1.00  0.00     0.226 S
HETATM   22  O5  UNL     1       9.730  19.018  15.394  1.00  0.00    -0.206 OA
HETATM   23  O6  UNL     1      10.540  19.866  17.491  1.00  0.00    -0.206 OA
BRANCH  21  24
HETATM   24  N6  UNL     1      12.328  19.150  15.656  1.00  0.00    -0.315 N
ATOM     25  H6  UNL     1      13.103  18.488  15.617  1.00  0.00     0.172 HD
BRANCH  24  26
HETATM   26  C25 UNL     1      12.360  20.471  15.070  1.00  0.00     0.093 A
HETATM   27  C26 UNL     1      13.710  20.817  14.397  1.00  0.00     0.028 A
HETATM   28  C27 UNL     1      13.210  21.557  15.560  1.00  0.00     0.028 A
ENDBRANCH  24  26
ENDBRANCH  21  24
ENDBRANCH  20  21
ENDBRANCH  19  20
ENDBRANCH  18  19
ENDBRANCH  16  18
ENDBRANCH  11  14
ENDBRANCH   7   8
BRANCH   1  29
HETATM   29  C3  UNL     1      18.603  23.778  20.787  1.00  0.00     0.078 C
BRANCH  29  30
HETATM   30  C2  UNL     1      20.041  23.277  20.654  1.00  0.00     0.003 C
HETATM   31  C1  UNL     1      20.082  21.765  20.567  1.00  0.00     0.005 C
ENDBRANCH  29  30
ENDBRANCH   1  29
BRANCH   4  32
HETATM   32  C5  UNL     1      17.599  25.529  16.222  1.00  0.00     0.158 C
BRANCH  32  33
HETATM   33  C6  UNL     1      18.970  25.903  15.746  1.00  0.00     0.009 C
HETATM   34  C7  UNL     1      19.703  24.694  15.284  1.00  0.00     0.026 C
HETATM   35  C8  UNL     1      21.136  25.008  14.853  1.00  0.00     0.128 C
HETATM   36  N3  UNL     1      21.118  26.404  14.387  1.00  0.00    -0.328 N
HETATM   37  C9  UNL     1      22.188  27.272  14.634  1.00  0.00     0.363 C
HETATM   38  C14 UNL     1      19.932  26.791  13.667  1.00  0.00     0.128 C
HETATM   39  O1  UNL     1      22.163  28.459  14.237  1.00  0.00    -0.238 OA
HETATM   40  C15 UNL     1      18.792  26.907  14.635  1.00  0.00     0.026 C
BRANCH  37  41
HETATM   41  O2  UNL     1      23.281  26.822  15.316  1.00  0.00    -0.293 OA
BRANCH  41  42
HETATM   42  C10 UNL     1      23.614  27.103  16.655  1.00  0.00     0.069 A
HETATM   43  C11 UNL     1      22.406  27.307  17.558  1.00  0.00     0.047 C
HETATM   44  C12 UNL     1      24.786  28.023  16.806  1.00  0.00     0.041 A
HETATM   45  C13 UNL     1      24.876  26.564  17.173  1.00  0.00     0.041 A
ENDBRANCH  41  42
ENDBRANCH  37  41
ENDBRANCH  32  33
ENDBRANCH   4  32
TORSDOF 14
ENDMDL