MODEL 2
REMARK VINA RESULT: -8.686151534      1.770      2.513
REMARK  14 active torsions:
REMARK  status: ('A' for Active; 'I' for Inactive)
REMARK    1  A    between atoms: C2_2  and  C3_3
REMARK    2  A    between atoms: C3_3  and  C4_4
REMARK    3  A    between atoms: C4_4  and  N1_5
REMARK    4  A    between atoms: N2_11  and  C9_12
REMARK    5  A    between atoms: N3_15  and  C12_16
REMARK    6  A    between atoms: C15_21  and  N5_22
REMARK    7  A    between atoms: N5_22  and  C16_23
REMARK    8  A    between atoms: N5_22  and  C18_27
REMARK    9  A    between atoms: C16_23  and  C17_24
REMARK   10  A    between atoms: C17_24  and  O2_25
REMARK   11  A    between atoms: C18_27  and  C19_28
REMARK   12  A    between atoms: C19_28  and  C20_29
REMARK   13  A    between atoms: C20_29  and  N6_30
REMARK   14  A    between atoms: C23_33  and  N7_34
ROOT
HETATM    1  C12 UNL     1      15.962  22.405  15.804  1.00  0.00     0.682 A
HETATM    2  N4  UNL     1      14.942  22.012  16.586  1.00  0.00    -0.188 N
ATOM      3  H4  UNL     1      14.849  22.253  17.572  1.00  0.00     0.184 HD
HETATM    4  C13 UNL     1      14.052  21.251  15.894  1.00  0.00     0.096 A
HETATM    5  C14 UNL     1      12.887  20.631  16.227  1.00  0.00     0.067 A
HETATM    6  C15 UNL     1      12.174  19.899  15.259  1.00  0.00     0.077 A
HETATM    7  C23 UNL     1      12.671  19.824  13.990  1.00  0.00     0.132 A
HETATM    8  N8  UNL     1      13.853  20.474  13.723  1.00  0.00    -0.325 N
ATOM      9  H8  UNL     1      14.220  20.414  12.773  1.00  0.00     0.169 HD
HETATM   10  C29 UNL     1      14.554  21.173  14.606  1.00  0.00     0.150 A
HETATM   11  N9  UNL     1      15.693  21.876  14.600  1.00  0.00    -0.174 N
ATOM     12  H9  UNL     1      16.287  21.995  13.779  1.00  0.00     0.186 HD
ENDROOT
BRANCH   1  13
HETATM   13  N3  UNL     1      17.084  23.215  16.176  1.00  0.00    -0.217 N
HETATM   14  C11 UNL     1      18.366  22.874  15.611  1.00  0.00     0.143 C
HETATM   15  C10 UNL     1      19.453  23.733  16.227  1.00  0.00     0.046 C
HETATM   16  C9  UNL     1      18.947  25.166  16.106  1.00  0.00     0.100 C
HETATM   17  C31 UNL     1      17.875  25.380  17.103  1.00  0.00     0.046 C
HETATM   18  C30 UNL     1      16.853  24.298  17.074  1.00  0.00     0.143 C
BRANCH  16  19
HETATM   19  N2  UNL     1      20.061  26.031  16.170  1.00  0.00    -0.265 N
HETATM   20  C8  UNL     1      20.274  26.961  15.095  1.00  0.00     0.233 C
HETATM   21  C6  UNL     1      21.693  27.382  14.802  1.00  0.00     0.092 C
HETATM   22  O1  UNL     1      19.342  27.428  14.405  1.00  0.00    -0.272 OA
HETATM   23  C5  UNL     1      22.238  27.991  16.068  1.00  0.00     0.141 C
HETATM   24  C7  UNL     1      21.715  28.374  13.678  1.00  0.00     0.021 C
HETATM   25  N1  UNL     1      22.083  27.022  17.134  1.00  0.00    -0.333 N
HETATM   26  C32 UNL     1      21.016  26.091  17.203  1.00  0.00     0.327 C
HETATM   27  O3  UNL     1      20.927  25.338  18.168  1.00  0.00    -0.247 OA
BRANCH  25  28
HETATM   28  C4  UNL     1      23.094  27.023  18.200  1.00  0.00     0.127 C
BRANCH  28  29
HETATM   29  C3  UNL     1      24.394  27.473  17.623  1.00  0.00     0.020 C
BRANCH  29  30
HETATM   30  C2  UNL     1      25.175  26.321  17.019  1.00  0.00    -0.003 C
HETATM   31  C1  UNL     1      25.864  26.770  15.750  1.00  0.00     0.005 C
ENDBRANCH  29  30
ENDBRANCH  28  29
ENDBRANCH  25  28
ENDBRANCH  16  19
ENDBRANCH   1  13
BRANCH   6  32
HETATM   32  N5  UNL     1      10.971  19.267  15.671  1.00  0.00    -0.375 N
BRANCH  32  33
HETATM   33  C16 UNL     1       9.673  19.853  15.568  1.00  0.00     0.149 C
BRANCH  33  34
HETATM   34  C17 UNL     1       9.733  21.340  15.225  1.00  0.00     0.183 C
BRANCH  34  35
HETATM   35  O2  UNL     1       8.811  21.969  16.062  1.00  0.00    -0.399 OA
ATOM     36  H2  UNL     1       8.743  22.866  15.754  1.00  0.00     0.209 HD
ENDBRANCH  34  35
ENDBRANCH  33  34
ENDBRANCH  32  33
BRANCH  32  37
HETATM   37  C18 UNL     1      11.067  17.882  16.172  1.00  0.00     0.128 C
BRANCH  37  38
HETATM   38  C19 UNL     1      10.805  17.731  17.622  1.00  0.00     0.064 C
BRANCH  38  39
HETATM   39  C20 UNL     1      11.635  16.753  18.369  1.00  0.00     0.058 C
BRANCH  39  40
HETATM   40  N6  UNL     1      12.530  17.206  19.347  1.00  0.00    -0.402 N
HETATM   41  C21 UNL     1      13.813  17.662  18.961  1.00  0.00     0.148 C
HETATM   42  C22 UNL     1      11.956  17.923  20.459  1.00  0.00     0.148 C
ENDBRANCH  39  40
ENDBRANCH  38  39
ENDBRANCH  37  38
ENDBRANCH  32  37
ENDBRANCH   6  32
BRANCH   7  43
HETATM   43  N7  UNL     1      12.046  19.131  12.913  1.00  0.00    -0.365 N
HETATM   44  C24 UNL     1      12.389  17.770  12.622  1.00  0.00     0.124 C
HETATM   45  C25 UNL     1      11.183  16.899  12.372  1.00  0.00     0.020 C
HETATM   46  C26 UNL     1       9.877  17.562  12.631  1.00  0.00     0.003 C
HETATM   47  C27 UNL     1       9.745  18.944  12.079  1.00  0.00     0.020 C
HETATM   48  C28 UNL     1      11.009  19.730  12.076  1.00  0.00     0.124 C
ENDBRANCH   7  43
TORSDOF 14
ENDMDL