MODEL 1
REMARK VINA RESULT: -9.254602494      0.000      0.000
REMARK  14 active torsions:
REMARK  status: ('A' for Active; 'I' for Inactive)
REMARK    1  A    between atoms: C2_2  and  C3_3
REMARK    2  A    between atoms: C3_3  and  C4_4
REMARK    3  A    between atoms: C4_4  and  N1_5
REMARK    4  A    between atoms: N1_5  and  C5_7
REMARK    5  A    between atoms: C6_10  and  N3_11
REMARK    6  A    between atoms: C12_18  and  O1_19
REMARK    7  A    between atoms: O1_19  and  C13_20
REMARK    8  A    between atoms: C16_23  and  C17_24
REMARK    9  A    between atoms: C17_24  and  O2_25
REMARK   10  A    between atoms: C17_24  and  C23_31
REMARK   11  A    between atoms: O2_25  and  C18_26
REMARK       I    between atoms: C23_31  and  N5_33
REMARK   12  A    between atoms: N5_33  and  C24_35
REMARK   13  A    between atoms: C24_35  and  C25_36
REMARK   14  A    between atoms: C25_36  and  N6_37
ROOT
HETATM    1  C13 UNL     1      14.111  19.883  18.814  1.00  0.00     0.129 C
HETATM    2  C14 UNL     1      14.637  20.616  20.025  1.00  0.00     0.033 C
HETATM    3  C15 UNL     1      15.558  21.763  19.541  1.00  0.00     0.010 C
HETATM    4  C16 UNL     1      16.743  21.054  18.934  1.00  0.00     0.024 C
HETATM    5  C30 UNL     1      16.337  20.324  17.705  1.00  0.00     0.010 C
HETATM    6  C31 UNL     1      14.841  20.288  17.561  1.00  0.00     0.033 C
ENDROOT
BRANCH   1   7
HETATM    7  O1  UNL     1      12.722  19.933  18.777  1.00  0.00    -0.340 OA
BRANCH   7   8
HETATM    8  C12 UNL     1      11.866  18.859  18.605  1.00  0.00     0.136 A
HETATM    9  C6  UNL     1      11.062  18.785  17.482  1.00  0.00     0.154 A
HETATM   10  N2  UNL     1      10.246  17.727  17.371  1.00  0.00    -0.174 N
HETATM   11  C5  UNL     1      10.148  16.729  18.262  1.00  0.00     0.683 A
ATOM     12  H2  UNL     1       9.652  17.677  16.542  1.00  0.00     0.186 HD
HETATM   13  N7  UNL     1      10.964  16.827  19.368  1.00  0.00    -0.193 N
HETATM   14  C32 UNL     1      11.798  17.850  19.546  1.00  0.00     0.060 A
ATOM     15  H7  UNL     1      10.929  16.092  20.074  1.00  0.00     0.184 HD
HETATM   16  C33 UNL     1      12.692  17.825  20.767  1.00  0.00     0.072 C
BRANCH   9  17
HETATM   17  N3  UNL     1      11.121  19.753  16.423  1.00  0.00    -0.361 N
HETATM   18  C7  UNL     1      12.143  19.634  15.424  1.00  0.00     0.154 C
HETATM   19  C8  UNL     1      11.872  20.664  14.348  1.00  0.00     0.291 C
HETATM   20  N4  UNL     1      10.489  20.637  13.926  1.00  0.00     0.087 N
HETATM   21  C9  UNL     1      10.107  19.396  13.315  1.00  0.00     0.310 C
HETATM   22  C10 UNL     1       9.590  21.033  14.987  1.00  0.00     0.291 C
HETATM   23  C11 UNL     1      10.173  20.816  16.368  1.00  0.00     0.154 C
ENDBRANCH   9  17
BRANCH  11  24
HETATM   24  N1  UNL     1       9.378  15.779  18.123  1.00  0.00    -0.205 N
ATOM     25  H1  UNL     1       8.537  16.010  18.651  1.00  0.00     0.183 HD
BRANCH  24  26
HETATM   26  C4  UNL     1       9.162  14.547  17.567  1.00  0.00     0.079 C
BRANCH  26  27
HETATM   27  C3  UNL     1      10.361  13.813  17.037  1.00  0.00     0.045 C
BRANCH  27  28
HETATM   28  C2  UNL     1      10.397  13.590  15.567  1.00  0.00     0.001 C
HETATM   29  C1  UNL     1      10.835  14.887  14.884  1.00  0.00     0.005 C
ENDBRANCH  27  28
ENDBRANCH  26  27
ENDBRANCH  24  26
ENDBRANCH  11  24
ENDBRANCH   7   8
ENDBRANCH   1   7
BRANCH   4  30
HETATM   30  C17 UNL     1      17.927  21.973  18.765  1.00  0.00     0.217 C
BRANCH  30  31
HETATM   31  O2  UNL     1      17.968  22.925  19.698  1.00  0.00    -0.371 OA
BRANCH  31  32
HETATM   32  C18 UNL     1      19.013  23.145  20.515  1.00  0.00     0.122 C
HETATM   33  C19 UNL     1      19.657  24.463  20.210  1.00  0.00     0.032 C
HETATM   34  C20 UNL     1      21.050  24.148  19.696  1.00  0.00     0.002 C
HETATM   35  C21 UNL     1      21.380  22.918  20.530  1.00  0.00     0.002 C
HETATM   36  C22 UNL     1      20.117  22.135  20.407  1.00  0.00     0.032 C
ENDBRANCH  31  32
ENDBRANCH  30  31
BRANCH  30  37
HETATM   37  C23 UNL     1      17.890  22.632  17.429  1.00  0.00     0.247 C
HETATM   38  O3  UNL     1      18.563  22.055  16.502  1.00  0.00    -0.271 OA
HETATM   39  N5  UNL     1      17.211  23.800  17.085  1.00  0.00    -0.357 N
ATOM     40  H5  UNL     1      16.685  24.287  17.811  1.00  0.00     0.162 HD
BRANCH  39  41
HETATM   41  C24 UNL     1      17.216  24.360  15.737  1.00  0.00     0.152 C
BRANCH  41  42
HETATM   42  C25 UNL     1      18.017  25.597  15.736  1.00  0.00     0.292 C
BRANCH  42  43
HETATM   43  N6  UNL     1      19.382  25.442  15.311  1.00  0.00     0.094 N
HETATM   44  C26 UNL     1      20.229  25.596  16.480  1.00  0.00     0.298 C
HETATM   45  C27 UNL     1      20.319  26.978  17.021  1.00  0.00     0.198 C
HETATM   46  O4  UNL     1      20.852  27.800  16.016  1.00  0.00    -0.388 OA
HETATM   47  C28 UNL     1      19.867  27.855  15.036  1.00  0.00     0.198 C
HETATM   48  C29 UNL     1      19.805  26.475  14.385  1.00  0.00     0.298 C
ENDBRANCH  42  43
ENDBRANCH  41  42
ENDBRANCH  39  41
ENDBRANCH  30  37
ENDBRANCH   4  30
TORSDOF 14
ENDMDL