MODEL 3
REMARK VINA RESULT: -8.151712138      4.124     10.809
REMARK  15 active torsions:
REMARK  status: ('A' for Active; 'I' for Inactive)
REMARK    1  A    between atoms: C2_2  and  C10_16
REMARK    2  A    between atoms: C3_3  and  S1_4
REMARK    3  A    between atoms: S1_4  and  C4_5
REMARK    4  A    between atoms: C4_5  and  C5_7
REMARK    5  A    between atoms: C5_7  and  C6_8
REMARK    6  A    between atoms: C6_8  and  C7_9
REMARK    7  A    between atoms: C7_9  and  N1_10
REMARK    8  A    between atoms: N1_10  and  S2_12
REMARK       I    between atoms: C10_16  and  N2_18
REMARK    9  A    between atoms: N2_18  and  C11_20
REMARK   10  A    between atoms: C11_20  and  C12_21
REMARK   11  A    between atoms: C12_21  and  N3_22
REMARK       I    between atoms: N3_22  and  C13_24
REMARK   12  A    between atoms: C13_24  and  C14_26
REMARK   13  A    between atoms: C14_26  and  C15_27
REMARK   14  A    between atoms: C15_27  and  O6_28
REMARK   15  A    between atoms: O6_28  and  C16_29
ROOT
HETATM    1  N3  UNL     1      17.291  21.321  18.800  1.00  0.00    -0.339 N
ATOM      2  H3  UNL     1      16.421  21.428  19.321  1.00  0.00     0.167 HD
HETATM    3  C13 UNL     1      17.222  21.012  17.376  1.00  0.00     0.224 C
HETATM    4  O5  UNL     1      18.326  20.899  16.830  1.00  0.00    -0.273 OA
ENDROOT
BRANCH   1   5
HETATM    5  C12 UNL     1      18.510  21.478  19.481  1.00  0.00     0.083 C
BRANCH   5   6
HETATM    6  C11 UNL     1      18.935  22.904  19.630  1.00  0.00     0.167 C
BRANCH   6   7
HETATM    7  N2  UNL     1      19.157  23.671  18.465  1.00  0.00    -0.352 N
HETATM    8  C10 UNL     1      20.152  24.501  17.985  1.00  0.00     0.247 C
HETATM    9  O4  UNL     1      21.196  24.766  18.629  1.00  0.00    -0.268 OA
ATOM     10  H2  UNL     1      18.381  23.591  17.807  1.00  0.00     0.163 HD
BRANCH   8  11
HETATM   11  C2  UNL     1      20.099  25.164  16.664  1.00  0.00     0.012 C
HETATM   12  C1  UNL     1      20.077  24.276  15.458  1.00  0.00     0.054 C
HETATM   13  C3  UNL     1      20.048  26.449  16.458  1.00  0.00     0.065 C
BRANCH  13  14
HETATM   14  S1  UNL     1      19.952  27.111  14.779  1.00  0.00    -0.064 SA
BRANCH  14  15
HETATM   15  C4  UNL     1      21.430  28.113  14.498  1.00  0.00     0.190 C
HETATM   16  O1  UNL     1      21.759  28.378  13.349  1.00  0.00    -0.285 OA
BRANCH  15  17
HETATM   17  C5  UNL     1      22.179  28.573  15.682  1.00  0.00     0.092 C
BRANCH  17  18
HETATM   18  C6  UNL     1      23.639  28.277  15.687  1.00  0.00     0.024 C
BRANCH  18  19
HETATM   19  C7  UNL     1      23.919  26.809  15.685  1.00  0.00     0.107 C
BRANCH  19  20
HETATM   20  N1  UNL     1      25.340  26.523  15.751  1.00  0.00    -0.215 NA
HETATM   21  C8  UNL     1      26.162  27.538  15.182  1.00  0.00     0.129 C
BRANCH  20  22
HETATM   22  S2  UNL     1      25.836  25.973  17.277  1.00  0.00     0.207 S
HETATM   23  C9  UNL     1      27.143  26.919  18.009  1.00  0.00     0.180 C
HETATM   24  O2  UNL     1      24.708  25.878  18.263  1.00  0.00    -0.212 OA
HETATM   25  O3  UNL     1      26.365  24.564  17.095  1.00  0.00    -0.212 OA
ENDBRANCH  20  22
ENDBRANCH  19  20
ENDBRANCH  18  19
ENDBRANCH  17  18
ENDBRANCH  15  17
ENDBRANCH  14  15
ENDBRANCH  13  14
ENDBRANCH   8  11
ENDBRANCH   6   7
ENDBRANCH   5   6
ENDBRANCH   1   5
BRANCH   3  26
HETATM   26  C14 UNL     1      15.963  20.854  16.712  1.00  0.00     0.144 C
BRANCH  26  27
HETATM   27  C15 UNL     1      15.188  22.099  16.298  1.00  0.00     0.105 C
HETATM   28  C17 UNL     1      15.735  22.399  14.907  1.00  0.00     0.045 C
HETATM   29  C18 UNL     1      15.251  21.440  13.872  1.00  0.00     0.042 C
HETATM   30  C19 UNL     1      13.881  20.951  14.180  1.00  0.00     0.071 C
HETATM   31  C20 UNL     1      13.314  20.182  13.062  1.00  0.00     0.040 C
HETATM   32  C26 UNL     1      13.044  21.964  14.862  1.00  0.00     0.017 C
HETATM   33  O8  UNL     1      13.978  20.257  15.409  1.00  0.00    -0.370 OA
HETATM   34  C21 UNL     1      11.851  20.228  12.863  1.00  0.00     0.012 C
HETATM   35  C22 UNL     1      11.138  20.418  14.169  1.00  0.00    -0.047 C
HETATM   36  C23 UNL     1       9.658  20.625  13.786  1.00  0.00     0.015 C
HETATM   37  C24 UNL     1      11.141  19.111  14.971  1.00  0.00     0.015 C
HETATM   38  C25 UNL     1      11.593  21.551  14.998  1.00  0.00     0.023 C
HETATM   39  C27 UNL     1      13.124  23.378  14.418  1.00  0.00     0.021 C
HETATM   40  C28 UNL     1      13.783  21.486  16.030  1.00  0.00     0.169 C
BRANCH  27  41
HETATM   41  O6  UNL     1      15.045  23.020  17.138  1.00  0.00    -0.314 OA
BRANCH  41  42
HETATM   42  C16 UNL     1      14.972  23.990  17.980  1.00  0.00     0.399 C
HETATM   43  O7  UNL     1      16.091  24.307  18.429  1.00  0.00    -0.276 OA
ENDBRANCH  41  42
ENDBRANCH  27  41
ENDBRANCH  26  27
ENDBRANCH   3  26
TORSDOF 15
ENDMDL