MODEL 4
REMARK VINA RESULT: -8.788534268      3.302      9.771
REMARK  13 active torsions:
REMARK  status: ('A' for Active; 'I' for Inactive)
REMARK    1  A    between atoms: C2_2  and  C3_3
REMARK    2  A    between atoms: C3_3  and  C4_4
REMARK    3  A    between atoms: C4_4  and  C5_5
REMARK    4  A    between atoms: C5_5  and  C6_6
REMARK    5  A    between atoms: C6_6  and  C7_7
REMARK    6  A    between atoms: C7_7  and  C8_8
REMARK    7  A    between atoms: C8_8  and  S1_9
REMARK    8  A    between atoms: S1_9  and  N1_12
REMARK    9  A    between atoms: C12_16  and  C13_17
REMARK       I    between atoms: C13_17  and  N2_19
REMARK   10  A    between atoms: C15_26  and  C16_27
REMARK   11  A    between atoms: C16_27  and  C17_28
REMARK   12  A    between atoms: C17_28  and  S2_29
REMARK   13  A    between atoms: S2_29  and  C18_30
ROOT
HETATM    1  C13 UNL     1      14.478  21.150  18.729  1.00  0.00     0.242 C
HETATM    2  O3  UNL     1      13.956  22.228  18.319  1.00  0.00    -0.271 OA
HETATM    3  N2  UNL     1      15.845  20.896  18.883  1.00  0.00    -0.305 N
ATOM      4  H2  UNL     1      16.184  19.954  18.689  1.00  0.00     0.171 HD
HETATM    5  C14 UNL     1      16.698  21.779  19.255  1.00  0.00     0.167 A
HETATM    6  N3  UNL     1      16.526  23.063  19.566  1.00  0.00    -0.279 N
ATOM      7  H3  UNL     1      15.598  23.483  19.531  1.00  0.00     0.189 HD
HETATM    8  N4  UNL     1      17.537  23.759  19.909  1.00  0.00    -0.296 N
ATOM      9  H4  UNL     1      17.415  24.743  20.149  1.00  0.00     0.187 HD
HETATM   10  C15 UNL     1      18.742  23.218  19.956  1.00  0.00     0.070 A
HETATM   11  S5  UNL     1      18.412  21.611  19.481  1.00  0.00    -0.038 SA
ENDROOT
BRANCH   1  12
HETATM   12  C12 UNL     1      13.457  20.083  19.064  1.00  0.00     0.166 C
HETATM   13  N1  UNL     1      13.440  19.049  18.069  1.00  0.00    -0.197 NA
HETATM   14  C9  UNL     1      13.631  17.778  18.691  1.00  0.00     0.108 C
HETATM   15  C10 UNL     1      13.855  17.987  20.156  1.00  0.00     0.018 C
HETATM   16  C11 UNL     1      13.827  19.474  20.380  1.00  0.00     0.031 C
BRANCH  13  17
HETATM   17  S1  UNL     1      11.855  18.994  17.290  1.00  0.00     0.212 S
HETATM   18  O1  UNL     1      10.965  19.862  18.168  1.00  0.00    -0.211 OA
HETATM   19  O2  UNL     1      11.412  17.597  17.467  1.00  0.00    -0.211 OA
BRANCH  17  20
HETATM   20  C8  UNL     1      11.967  19.628  15.671  1.00  0.00     0.157 C
BRANCH  20  21
HETATM   21  C7  UNL     1      13.013  20.565  15.304  1.00  0.00     0.016 C
BRANCH  21  22
HETATM   22  C6  UNL     1      13.920  20.487  14.174  1.00  0.00     0.001 C
BRANCH  22  23
HETATM   23  C5  UNL     1      14.893  21.558  13.919  1.00  0.00     0.000 C
BRANCH  23  24
HETATM   24  C4  UNL     1      14.521  22.854  14.669  1.00  0.00     0.000 C
BRANCH  24  25
HETATM   25  C3  UNL     1      15.645  23.248  15.545  1.00  0.00    -0.000 C
BRANCH  25  26
HETATM   26  C2  UNL     1      16.915  22.448  15.254  1.00  0.00    -0.005 C
HETATM   27  C1  UNL     1      18.030  23.194  15.978  1.00  0.00     0.005 C
ENDBRANCH  25  26
ENDBRANCH  24  25
ENDBRANCH  23  24
ENDBRANCH  22  23
ENDBRANCH  21  22
ENDBRANCH  20  21
ENDBRANCH  17  20
ENDBRANCH  13  17
ENDBRANCH   1  12
BRANCH  10  28
HETATM   28  C16 UNL     1      20.054  23.865  20.323  1.00  0.00     0.077 C
BRANCH  28  29
HETATM   29  C17 UNL     1      19.825  25.078  21.194  1.00  0.00     0.088 C
BRANCH  29  30
HETATM   30  S2  UNL     1      21.298  26.121  21.044  1.00  0.00    -0.104 SA
BRANCH  30  31
HETATM   31  C18 UNL     1      21.621  26.428  19.290  1.00  0.00     0.113 A
HETATM   32  N5  UNL     1      20.783  26.643  18.306  1.00  0.00    -0.334 N
HETATM   33  C19 UNL     1      21.227  26.838  17.100  1.00  0.00     0.163 A
ATOM     34  H5  UNL     1      19.780  26.657  18.487  1.00  0.00     0.168 HD
HETATM   35  C20 UNL     1      22.587  26.807  16.918  1.00  0.00     0.027 A
HETATM   36  S4  UNL     1      20.294  27.140  15.616  1.00  0.00     0.275 S
HETATM   37  S3  UNL     1      23.140  26.499  18.498  1.00  0.00    -0.067 SA
HETATM   38  C21 UNL     1      23.121  27.019  15.529  1.00  0.00     0.069 C
HETATM   39  C22 UNL     1      22.418  26.009  14.604  1.00  0.00     0.137 C
HETATM   40  N6  UNL     1      21.078  26.417  14.274  1.00  0.00    -0.314 N
ATOM     41  H6  UNL     1      20.649  26.292  13.357  1.00  0.00     0.172 HD
HETATM   42  O4  UNL     1      20.167  28.640  15.393  1.00  0.00    -0.199 OA
HETATM   43  O5  UNL     1      18.897  26.564  15.761  1.00  0.00    -0.199 OA
ENDBRANCH  30  31
ENDBRANCH  29  30
ENDBRANCH  28  29
ENDBRANCH  10  28
TORSDOF 13
ENDMDL