MODEL 4
REMARK VINA RESULT: -8.713103719      2.850      5.568
REMARK  15 active torsions:
REMARK  status: ('A' for Active; 'I' for Inactive)
REMARK    1  A    between atoms: C2_2  and  C3_3
REMARK    2  A    between atoms: C3_3  and  C4_4
REMARK    3  A    between atoms: C4_4  and  C5_5
REMARK    4  A    between atoms: C5_5  and  O1_6
REMARK    5  A    between atoms: O1_6  and  C6_7
REMARK       I    between atoms: C6_7  and  N1_9
REMARK       I    between atoms: N2_12  and  C9_13
REMARK    6  A    between atoms: C9_13  and  C10_15
REMARK    7  A    between atoms: C10_15  and  C11_16
REMARK    8  A    between atoms: C10_15  and  C18_25
REMARK    9  A    between atoms: C11_16  and  C12_17
REMARK   10  A    between atoms: C12_17  and  C13_18
REMARK   11  A    between atoms: C13_18  and  C14_19
REMARK   12  A    between atoms: C14_19  and  N3_20
REMARK       I    between atoms: C18_25  and  N4_27
REMARK   13  A    between atoms: N4_27  and  C19_29
REMARK   14  A    between atoms: C19_29  and  C20_30
REMARK   15  A    between atoms: C21_34  and  C22_35
ROOT
HETATM    1  C10 UNL     1      18.290  23.550  19.304  1.00  0.00     0.170 C
ENDROOT
BRANCH   1   2
HETATM    2  C9  UNL     1      17.788  24.447  18.238  1.00  0.00     0.233 C
HETATM    3  N2  UNL     1      18.511  24.772  17.058  1.00  0.00    -0.348 N
HETATM    4  C8  UNL     1      17.875  25.632  16.081  1.00  0.00     0.145 C
HETATM    5  C28 UNL     1      19.855  24.299  16.790  1.00  0.00     0.145 C
HETATM    6  C7  UNL     1      18.890  26.012  15.031  1.00  0.00     0.148 C
HETATM    7  N1  UNL     1      20.067  26.465  15.737  1.00  0.00    -0.325 N
HETATM    8  C6  UNL     1      20.474  27.800  15.654  1.00  0.00     0.362 C
HETATM    9  C29 UNL     1      20.786  25.478  16.512  1.00  0.00     0.148 C
HETATM   10  O2  UNL     1      19.817  28.608  14.950  1.00  0.00    -0.238 OA
HETATM   11  O3  UNL     1      16.628  24.978  18.353  1.00  0.00    -0.272 OA
BRANCH   8  12
HETATM   12  O1  UNL     1      21.593  28.269  16.333  1.00  0.00    -0.304 OA
BRANCH  12  13
HETATM   13  C5  UNL     1      22.597  28.930  15.588  1.00  0.00     0.180 C
BRANCH  13  14
HETATM   14  C4  UNL     1      23.975  28.459  15.934  1.00  0.00     0.027 C
BRANCH  14  15
HETATM   15  C3  UNL     1      24.181  27.002  15.609  1.00  0.00     0.002 C
BRANCH  15  16
HETATM   16  C2  UNL     1      25.616  26.641  15.951  1.00  0.00    -0.004 C
HETATM   17  C1  UNL     1      26.536  27.553  15.171  1.00  0.00     0.005 C
ENDBRANCH  15  16
ENDBRANCH  14  15
ENDBRANCH  13  14
ENDBRANCH  12  13
ENDBRANCH   8  12
ENDBRANCH   1   2
BRANCH   1  18
HETATM   18  C11 UNL     1      18.226  24.217  20.635  1.00  0.00     0.024 C
BRANCH  18  19
HETATM   19  C12 UNL     1      19.539  24.754  21.074  1.00  0.00     0.003 C
BRANCH  19  20
HETATM   20  C13 UNL     1      20.653  23.882  20.511  1.00  0.00     0.030 C
BRANCH  20  21
HETATM   21  C14 UNL     1      21.789  24.765  20.040  1.00  0.00     0.273 C
BRANCH  21  22
HETATM   22  N3  UNL     1      21.736  26.057  20.690  1.00  0.00     0.098 N
HETATM   23  C15 UNL     1      22.793  26.225  21.662  1.00  0.00     0.283 C
HETATM   24  C16 UNL     1      24.106  25.922  20.925  1.00  0.00     0.105 C
HETATM   25  S1  UNL     1      23.719  26.734  19.318  1.00  0.00    -0.138 SA
HETATM   26  C17 UNL     1      21.945  27.080  19.678  1.00  0.00     0.346 C
ENDBRANCH  21  22
ENDBRANCH  20  21
ENDBRANCH  19  20
ENDBRANCH  18  19
ENDBRANCH   1  18
BRANCH   1  27
HETATM   27  C18 UNL     1      17.414  22.302  19.358  1.00  0.00     0.231 C
HETATM   28  O4  UNL     1      17.932  21.162  19.332  1.00  0.00    -0.273 OA
HETATM   29  N4  UNL     1      16.017  22.416  19.441  1.00  0.00    -0.358 N
ATOM     30  H4  UNL     1      15.593  23.343  19.463  1.00  0.00     0.162 HD
BRANCH  29  31
HETATM   31  C19 UNL     1      15.180  21.268  19.492  1.00  0.00     0.166 C
BRANCH  31  32
HETATM   32  C20 UNL     1      15.052  20.510  18.194  1.00  0.00     0.265 C
HETATM   33  N5  UNL     1      14.955  21.479  17.129  1.00  0.00    -0.053 N
HETATM   34  C21 UNL     1      14.182  20.939  16.071  1.00  0.00     0.230 C
ATOM     35  H52 UNL     1      14.591  22.374  17.454  1.00  0.00     0.279 HD
ATOM     36  H51 UNL     1      15.871  21.799  16.813  1.00  0.00     0.279 HD
HETATM   37  C27 UNL     1      12.805  20.597  16.616  1.00  0.00     0.112 C
HETATM   38  S2  UNL     1      13.338  19.836  18.206  1.00  0.00    -0.133 SA
BRANCH  34  39
HETATM   39  C22 UNL     1      14.095  21.890  14.928  1.00  0.00     0.086 C
HETATM   40  C23 UNL     1      13.454  23.206  15.241  1.00  0.00     0.048 C
HETATM   41  C24 UNL     1      15.449  22.159  14.345  1.00  0.00     0.042 C
HETATM   42  C25 UNL     1      15.355  21.551  12.965  1.00  0.00     0.029 C
HETATM   43  C26 UNL     1      14.224  20.563  13.142  1.00  0.00     0.169 C
HETATM   44  O5  UNL     1      13.336  21.277  13.935  1.00  0.00    -0.378 OA
ENDBRANCH  34  39
ENDBRANCH  31  32
ENDBRANCH  29  31
ENDBRANCH   1  27
TORSDOF 15
ENDMDL