MODEL 3
REMARK VINA RESULT: -8.527561479      1.957     10.877
REMARK  21 active torsions:
REMARK  status: ('A' for Active; 'I' for Inactive)
REMARK    1  A    between atoms: C2_2  and  C4_4
REMARK    2  A    between atoms: C4_4  and  C5_5
REMARK    3  A    between atoms: C7_7  and  C8_8
REMARK    4  A    between atoms: C11_11  and  O1_12
REMARK    5  A    between atoms: O1_12  and  C12_13
REMARK    6  A    between atoms: C14_16  and  C15_17
REMARK    7  A    between atoms: C15_17  and  O3_18
REMARK    8  A    between atoms: C15_17  and  N1_20
REMARK    9  A    between atoms: N2_23  and  C18_24
REMARK   10  A    between atoms: C18_24  and  O4_25
REMARK   11  A    between atoms: C18_24  and  C19_27
REMARK   12  A    between atoms: C19_27  and  C20_28
REMARK   13  A    between atoms: C20_28  and  C21_29
REMARK   14  A    between atoms: C21_29  and  C22_30
REMARK   15  A    between atoms: C22_30  and  C23_31
REMARK   16  A    between atoms: C23_31  and  C24_32
REMARK   17  A    between atoms: C24_32  and  C25_33
REMARK   18  A    between atoms: C25_33  and  C26_34
REMARK   19  A    between atoms: C31_39  and  O5_40
REMARK   20  A    between atoms: C31_39  and  C32_42
REMARK   21  A    between atoms: C32_42  and  O6_43
ROOT
HETATM    1  C8  UNL     1      14.697  19.639  18.701  1.00  0.00     0.065 C
HETATM    2  C9  UNL     1      14.454  20.912  19.443  1.00  0.00     0.040 C
HETATM    3  C10 UNL     1      14.386  22.024  18.416  1.00  0.00     0.113 C
HETATM    4  C11 UNL     1      15.692  22.818  18.390  1.00  0.00     0.166 C
HETATM    5  C14 UNL     1      15.468  23.899  17.319  1.00  0.00     0.096 C
HETATM    6  C30 UNL     1      15.407  23.155  16.016  1.00  0.00     0.078 C
HETATM    7  C31 UNL     1      14.334  22.089  16.015  1.00  0.00     0.152 C
HETATM    8  N3  UNL     1      14.179  21.341  17.189  1.00  0.00    -0.373 N
HETATM    9  C33 UNL     1      14.696  20.027  17.236  1.00  0.00     0.132 C
ENDROOT
BRANCH   5  10
HETATM   10  C15 UNL     1      16.471  24.946  17.407  1.00  0.00     0.120 C
BRANCH  10  11
HETATM   11  O3  UNL     1      16.232  25.825  18.346  1.00  0.00    -0.349 OA
ATOM     12  H3  UNL     1      16.297  26.726  18.051  1.00  0.00     0.219 HD
ENDBRANCH  10  11
BRANCH  10  13
HETATM   13  N1  UNL     1      17.631  25.164  16.660  1.00  0.00    -0.362 N
HETATM   14  C16 UNL     1      17.562  25.180  15.192  1.00  0.00     0.144 C
HETATM   15  C17 UNL     1      18.298  26.430  14.693  1.00  0.00     0.145 C
HETATM   16  N2  UNL     1      19.643  26.502  15.189  1.00  0.00    -0.359 N
HETATM   17  C28 UNL     1      19.993  25.379  16.118  1.00  0.00     0.145 C
HETATM   18  C29 UNL     1      18.928  25.381  17.215  1.00  0.00     0.144 C
BRANCH  16  19
HETATM   19  C18 UNL     1      20.605  27.471  14.912  1.00  0.00     0.137 C
BRANCH  19  20
HETATM   20  O4  UNL     1      20.195  28.724  14.974  1.00  0.00    -0.346 OA
ATOM     21  H4  UNL     1      20.850  29.384  14.778  1.00  0.00     0.219 HD
ENDBRANCH  19  20
BRANCH  19  22
HETATM   22  C19 UNL     1      21.976  27.341  14.569  1.00  0.00     0.052 C
BRANCH  22  23
HETATM   23  C20 UNL     1      23.005  27.068  15.335  1.00  0.00    -0.022 C
BRANCH  23  24
HETATM   24  C21 UNL     1      23.190  27.847  16.614  1.00  0.00     0.027 C
BRANCH  24  25
HETATM   25  C22 UNL     1      22.916  26.892  17.754  1.00  0.00     0.004 C
BRANCH  25  26
HETATM   26  C23 UNL     1      21.791  27.338  18.623  1.00  0.00     0.000 C
BRANCH  26  27
HETATM   27  C24 UNL     1      21.594  26.380  19.768  1.00  0.00     0.000 C
BRANCH  27  28
HETATM   28  C25 UNL     1      21.956  24.982  19.380  1.00  0.00    -0.000 C
BRANCH  28  29
HETATM   29  C26 UNL     1      21.112  23.973  20.161  1.00  0.00    -0.005 C
HETATM   30  C27 UNL     1      19.874  24.624  20.719  1.00  0.00     0.005 C
ENDBRANCH  28  29
ENDBRANCH  27  28
ENDBRANCH  26  27
ENDBRANCH  25  26
ENDBRANCH  24  25
ENDBRANCH  23  24
ENDBRANCH  22  23
ENDBRANCH  19  22
ENDBRANCH  16  19
ENDBRANCH  10  13
ENDBRANCH   5  10
BRANCH   4  31
HETATM   31  O1  UNL     1      16.658  21.940  17.885  1.00  0.00    -0.313 OA
BRANCH  31  32
HETATM   32  C12 UNL     1      17.953  21.806  18.298  1.00  0.00     0.255 C
HETATM   33  C13 UNL     1      18.175  21.467  19.738  1.00  0.00     0.126 C
HETATM   34  O2  UNL     1      18.880  21.965  17.489  1.00  0.00    -0.266 OA
ENDBRANCH  31  32
ENDBRANCH   4  31
BRANCH   7  35
HETATM   35  O5  UNL     1      13.106  22.758  15.776  1.00  0.00    -0.369 OA
ATOM     36  H5  UNL     1      13.038  23.440  16.434  1.00  0.00     0.212 HD
ENDBRANCH   7  35
BRANCH   7  37
HETATM   37  C32 UNL     1      14.552  21.239  14.786  1.00  0.00     0.224 C
BRANCH  37  38
HETATM   38  O6  UNL     1      15.800  21.511  14.259  1.00  0.00    -0.396 OA
ATOM     39  H6  UNL     1      16.233  20.693  14.043  1.00  0.00     0.209 HD
ENDBRANCH  37  38
ENDBRANCH   7  37
BRANCH   1  40
HETATM   40  C7  UNL     1      13.634  18.618  18.986  1.00  0.00     0.084 A
HETATM   41  C6  UNL     1      12.412  18.558  18.351  1.00  0.00     0.062 A
HETATM   42  C5  UNL     1      11.726  17.483  18.896  1.00  0.00     0.039 A
HETATM   43  N4  UNL     1      12.561  16.967  19.812  1.00  0.00    -0.265 N
HETATM   44  O7  UNL     1      13.667  17.641  19.851  1.00  0.00    -0.242 OA
ATOM     45  H4  UNL     1      12.354  16.156  20.396  1.00  0.00     0.194 HD
BRANCH  42  46
HETATM   46  C4  UNL     1      10.355  17.058  18.499  1.00  0.00     0.092 C
BRANCH  46  47
HETATM   47  C2  UNL     1      10.475  16.315  17.210  1.00  0.00    -0.087 C
HETATM   48  C1  UNL     1      10.768  15.034  17.231  1.00  0.00     0.014 C
HETATM   49  C3  UNL     1      10.260  16.993  15.894  1.00  0.00     0.043 C
ENDBRANCH  46  47
ENDBRANCH  42  46
ENDBRANCH   1  40
TORSDOF 21
ENDMDL