MODEL 2
REMARK VINA RESULT: -8.556251009      1.977      9.890
REMARK  15 active torsions:
REMARK  status: ('A' for Active; 'I' for Inactive)
REMARK    1  A    between atoms: C2_2  and  C3_3
REMARK    2  A    between atoms: C7_7  and  C8_8
REMARK    3  A    between atoms: C8_8  and  S1_9
REMARK    4  A    between atoms: S1_9  and  C9_11
REMARK    5  A    between atoms: S1_9  and  N1_13
REMARK       I    between atoms: N2_16  and  C13_17
REMARK    6  A    between atoms: C13_17  and  C14_19
REMARK    7  A    between atoms: C14_19  and  N3_20
REMARK    8  A    between atoms: C14_19  and  C15_24
REMARK    9  A    between atoms: C15_24  and  C16_25
REMARK   10  A    between atoms: C16_25  and  C17_26
REMARK   11  A    between atoms: C17_26  and  C18_27
REMARK   12  A    between atoms: C18_27  and  N4_28
REMARK   13  A    between atoms: C20_33  and  C21_34
REMARK   14  A    between atoms: C21_34  and  C22_35
REMARK   15  A    between atoms: C28_41  and  C29_42
ROOT
HETATM    1  N1  UNL     1      17.272  22.110  17.333  1.00  0.00    -0.334 N
HETATM    2  C11 UNL     1      17.742  21.884  16.021  1.00  0.00     0.152 C
HETATM    3  C12 UNL     1      16.488  22.066  15.103  1.00  0.00     0.146 C
HETATM    4  N2  UNL     1      15.435  21.381  15.813  1.00  0.00    -0.347 N
HETATM    5  C13 UNL     1      14.060  21.674  15.817  1.00  0.00     0.250 C
HETATM    6  O2  UNL     1      13.238  20.984  16.514  1.00  0.00    -0.271 OA
HETATM    7  C19 UNL     1      15.892  20.264  16.637  1.00  0.00     0.151 C
HETATM    8  C20 UNL     1      16.645  20.943  17.800  1.00  0.00     0.111 C
ENDROOT
BRANCH   1   9
HETATM    9  S1  UNL     1      17.755  23.550  18.361  1.00  0.00     0.027 S
HETATM   10  O1  UNL     1      15.659  23.869  18.201  1.00  0.00    -0.249 OA
BRANCH   9  11
HETATM   11  C8  UNL     1      17.868  25.365  17.633  1.00  0.00     0.157 C
BRANCH  11  12
HETATM   12  C7  UNL     1      19.081  25.717  16.887  1.00  0.00    -0.026 A
HETATM   13  C5  UNL     1      18.819  25.994  15.509  1.00  0.00    -0.053 A
HETATM   14  C4  UNL     1      19.811  26.413  14.678  1.00  0.00     0.014 A
HETATM   15  C6  UNL     1      17.452  25.825  14.946  1.00  0.00     0.049 C
HETATM   16  C3  UNL     1      21.095  26.584  15.143  1.00  0.00    -0.057 A
HETATM   17  C31 UNL     1      21.340  26.326  16.455  1.00  0.00     0.023 A
HETATM   18  C28 UNL     1      20.342  25.889  17.375  1.00  0.00     0.019 A
BRANCH  16  19
HETATM   19  C2  UNL     1      22.176  27.027  14.245  1.00  0.00     0.034 C
HETATM   20  C1  UNL     1      22.417  28.504  14.587  1.00  0.00     0.010 C
ENDBRANCH  16  19
BRANCH  18  21
HETATM   21  C29 UNL     1      20.746  25.835  18.765  1.00  0.00     0.148 A
HETATM   22  N5  UNL     1      21.317  24.760  19.348  1.00  0.00    -0.268 N
HETATM   23  N6  UNL     1      21.676  25.118  20.571  1.00  0.00    -0.225 N
ATOM     24  H5  UNL     1      21.448  23.842  18.925  1.00  0.00     0.190 HD
HETATM   25  N7  UNL     1      21.360  26.376  20.796  1.00  0.00    -0.223 N
ATOM     26  H6  UNL     1      22.134  24.504  21.245  1.00  0.00     0.210 HD
HETATM   27  C30 UNL     1      21.585  27.153  22.010  1.00  0.00     0.202 C
HETATM   28  N8  UNL     1      20.792  26.789  19.674  1.00  0.00    -0.266 N
ATOM     29  H8  UNL     1      20.432  27.733  19.529  1.00  0.00     0.190 HD
ENDBRANCH  18  21
ENDBRANCH  11  12
ENDBRANCH   9  11
BRANCH   9  30
HETATM   30  C9  UNL     1      17.237  23.528  20.304  1.00  0.00     0.113 C
HETATM   31  C10 UNL     1      18.284  24.267  21.165  1.00  0.00     0.019 C
ENDBRANCH   9  30
ENDBRANCH   1   9
BRANCH   8  32
HETATM   32  C21 UNL     1      15.840  20.824  19.007  1.00  0.00     0.032 C
BRANCH  32  33
HETATM   33  C22 UNL     1      15.481  19.516  19.546  1.00  0.00    -0.013 C
HETATM   34  C23 UNL     1      14.292  19.617  20.528  1.00  0.00     0.005 C
HETATM   35  C24 UNL     1      13.032  19.550  19.748  1.00  0.00     0.000 C
HETATM   36  C25 UNL     1      12.853  18.171  19.142  1.00  0.00     0.000 C
HETATM   37  C26 UNL     1      14.217  17.517  18.925  1.00  0.00     0.000 C
HETATM   38  C27 UNL     1      15.105  18.607  18.381  1.00  0.00     0.005 C
ENDBRANCH  32  33
ENDBRANCH   8  32
BRANCH   5  39
HETATM   39  C14 UNL     1      13.432  22.776  15.045  1.00  0.00     0.275 C
BRANCH  39  40
HETATM   40  N3  UNL     1      13.264  23.968  15.870  1.00  0.00    -0.067 N
ATOM     41  H33 UNL     1      12.385  24.445  15.665  1.00  0.00     0.275 HD
ATOM     42  H32 UNL     1      13.086  23.728  16.845  1.00  0.00     0.275 HD
ATOM     43  H31 UNL     1      14.062  24.595  15.777  1.00  0.00     0.275 HD
ENDBRANCH  39  40
BRANCH  39  44
HETATM   44  C15 UNL     1      12.022  22.293  14.670  1.00  0.00     0.042 C
BRANCH  44  45
HETATM   45  C16 UNL     1      12.113  21.096  13.758  1.00  0.00     0.004 C
BRANCH  45  46
HETATM   46  C17 UNL     1      10.779  20.432  13.671  1.00  0.00     0.027 C
BRANCH  46  47
HETATM   47  C18 UNL     1      10.513  19.496  14.805  1.00  0.00     0.229 C
BRANCH  47  48
HETATM   48  N4  UNL     1      11.723  18.703  15.069  1.00  0.00    -0.079 N
ATOM     49  H43 UNL     1      11.549  17.931  15.713  1.00  0.00     0.274 HD
ATOM     50  H42 UNL     1      12.010  18.152  14.260  1.00  0.00     0.274 HD
ATOM     51  H41 UNL     1      12.463  19.323  15.399  1.00  0.00     0.274 HD
ENDBRANCH  47  48
ENDBRANCH  46  47
ENDBRANCH  45  46
ENDBRANCH  44  45
ENDBRANCH  39  44
ENDBRANCH   5  39
TORSDOF 15
ENDMDL