MODEL 2
REMARK VINA RESULT: -8.814571478      0.841      1.501
REMARK  15 active torsions:
REMARK  status: ('A' for Active; 'I' for Inactive)
REMARK    1  A    between atoms: O1_2  and  C2_3
REMARK    2  A    between atoms: C4_5  and  N1_6
REMARK    3  A    between atoms: N1_6  and  C5_8
REMARK    4  A    between atoms: C8_13  and  N3_14
REMARK    5  A    between atoms: N3_14  and  C9_16
REMARK    6  A    between atoms: C9_16  and  C10_17
REMARK    7  A    between atoms: C10_17  and  C11_18
REMARK    8  A    between atoms: C11_18  and  N4_19
REMARK    9  A    between atoms: C17_28  and  O2_29
REMARK   10  A    between atoms: C19_31  and  O3_32
REMARK   11  A    between atoms: O3_32  and  C20_33
REMARK   12  A    between atoms: C25_39  and  O5_40
REMARK   13  A    between atoms: O5_40  and  C26_41
REMARK   14  A    between atoms: C26_41  and  C27_42
REMARK   15  A    between atoms: C27_42  and  N7_43
ROOT
HETATM    1  C2  UNL     1      15.726  21.730  15.457  1.00  0.00     0.106 A
HETATM    2  C3  UNL     1      14.540  21.201  15.871  1.00  0.00     0.072 A
HETATM    3  C4  UNL     1      14.113  21.291  17.168  1.00  0.00     0.088 A
HETATM    4  C17 UNL     1      14.945  21.950  18.057  1.00  0.00     0.132 A
HETATM    5  C19 UNL     1      16.171  22.511  17.700  1.00  0.00     0.141 A
HETATM    6  C25 UNL     1      16.558  22.394  16.387  1.00  0.00     0.138 A
ENDROOT
BRANCH   3   7
HETATM    7  N1  UNL     1      12.874  20.712  17.567  1.00  0.00    -0.189 N
ATOM      8  H1  UNL     1      12.068  21.332  17.647  1.00  0.00     0.184 HD
BRANCH   7   9
HETATM    9  C5  UNL     1      12.693  19.469  17.834  1.00  0.00     0.684 A
HETATM   10  N2  UNL     1      13.635  18.666  18.365  1.00  0.00    -0.202 N
HETATM   11  C6  UNL     1      13.410  17.359  18.637  1.00  0.00     0.110 A
ATOM     12  H2  UNL     1      14.553  19.058  18.571  1.00  0.00     0.183 HD
HETATM   13  C7  UNL     1      12.180  16.787  18.372  1.00  0.00     0.066 A
HETATM   14  C8  UNL     1      11.210  17.623  17.823  1.00  0.00     0.118 A
HETATM   15  N6  UNL     1      11.488  18.914  17.574  1.00  0.00    -0.177 N
ATOM     16  H6  UNL     1      10.758  19.501  17.171  1.00  0.00     0.186 HD
BRANCH  14  17
HETATM   17  N3  UNL     1      10.034  17.122  17.559  1.00  0.00    -0.376 N
ATOM     18  H3  UNL     1       9.181  17.626  17.801  1.00  0.00     0.161 HD
BRANCH  17  19
HETATM   19  C9  UNL     1       9.981  15.848  16.922  1.00  0.00     0.123 C
BRANCH  19  20
HETATM   20  C10 UNL     1      10.586  15.805  15.546  1.00  0.00     0.050 C
BRANCH  20  21
HETATM   21  C11 UNL     1       9.965  16.812  14.614  1.00  0.00     0.274 C
BRANCH  21  22
HETATM   22  N4  UNL     1      10.860  17.840  14.198  1.00  0.00     0.091 N
HETATM   23  C12 UNL     1      11.675  17.388  13.124  1.00  0.00     0.302 C
HETATM   24  C13 UNL     1      12.622  18.455  12.609  1.00  0.00     0.302 C
HETATM   25  N5  UNL     1      11.797  19.550  12.152  1.00  0.00     0.087 N
HETATM   26  C14 UNL     1      10.992  19.240  11.013  1.00  0.00     0.310 C
HETATM   27  C15 UNL     1      11.099  20.104  13.262  1.00  0.00     0.302 C
HETATM   28  C16 UNL     1      10.312  19.138  14.085  1.00  0.00     0.302 C
ENDBRANCH  21  22
ENDBRANCH  20  21
ENDBRANCH  19  20
ENDBRANCH  17  19
ENDBRANCH  14  17
ENDBRANCH   7   9
ENDBRANCH   3   7
BRANCH   4  29
HETATM   29  O2  UNL     1      14.430  21.998  19.365  1.00  0.00    -0.351 OA
HETATM   30  C18 UNL     1      14.879  21.051  20.331  1.00  0.00     0.210 C
ENDBRANCH   4  29
BRANCH   1  31
HETATM   31  O1  UNL     1      16.121  21.617  14.109  1.00  0.00    -0.353 OA
HETATM   32  C1  UNL     1      15.149  21.493  13.114  1.00  0.00     0.210 C
ENDBRANCH   1  31
BRANCH   5  33
HETATM   33  O3  UNL     1      16.914  23.142  18.625  1.00  0.00    -0.333 OA
BRANCH  33  34
HETATM   34  C20 UNL     1      17.683  22.791  19.693  1.00  0.00     0.198 C
HETATM   35  C21 UNL     1      18.172  24.125  20.349  1.00  0.00     0.041 C
HETATM   36  C22 UNL     1      19.140  24.625  19.283  1.00  0.00     0.010 C
HETATM   37  C23 UNL     1      19.817  23.342  18.808  1.00  0.00     0.081 C
HETATM   38  C24 UNL     1      19.047  22.235  19.425  1.00  0.00     0.156 C
HETATM   39  O4  UNL     1      19.427  21.135  19.663  1.00  0.00    -0.295 OA
ENDBRANCH  33  34
ENDBRANCH   5  33
BRANCH   6  40
HETATM   40  O5  UNL     1      17.713  22.880  15.829  1.00  0.00    -0.344 OA
BRANCH  40  41
HETATM   41  C26 UNL     1      17.855  24.032  15.094  1.00  0.00     0.195 C
BRANCH  41  42
HETATM   42  C27 UNL     1      18.041  25.249  15.923  1.00  0.00     0.143 C
BRANCH  42  43
HETATM   43  N7  UNL     1      19.162  26.068  15.547  1.00  0.00    -0.410 N
HETATM   44  C28 UNL     1      20.414  25.430  15.750  1.00  0.00     0.117 C
HETATM   45  C29 UNL     1      21.424  25.753  14.667  1.00  0.00     0.019 C
HETATM   46  C30 UNL     1      21.463  27.213  14.314  1.00  0.00     0.003 C
HETATM   47  C31 UNL     1      20.158  27.927  14.454  1.00  0.00     0.019 C
HETATM   48  C32 UNL     1      19.020  26.904  14.421  1.00  0.00     0.117 C
ENDBRANCH  42  43
ENDBRANCH  41  42
ENDBRANCH  40  41
ENDBRANCH   6  40
TORSDOF 15
ENDMDL