MODEL 3
REMARK VINA RESULT: -8.127524619      1.576      2.306
REMARK  14 active torsions:
REMARK  status: ('A' for Active; 'I' for Inactive)
REMARK    1  A    between atoms: C2_2  and  C3_3
REMARK    2  A    between atoms: C3_3  and  C4_4
REMARK    3  A    between atoms: C4_4  and  C5_5
REMARK    4  A    between atoms: C5_5  and  C6_6
REMARK    5  A    between atoms: C6_6  and  O1_7
REMARK    6  A    between atoms: O1_7  and  C7_8
REMARK       I    between atoms: C7_8  and  N1_10
REMARK    7  A    between atoms: N2_13  and  C10_14
REMARK    8  A    between atoms: C10_14  and  C11_15
REMARK    9  A    between atoms: C10_14  and  C21_27
REMARK   10  A    between atoms: C11_15  and  N3_16
REMARK   11  A    between atoms: C15_20  and  C16_21
REMARK       I    between atoms: C21_27  and  N5_29
REMARK   12  A    between atoms: N5_29  and  C22_31
REMARK   13  A    between atoms: C23_32  and  C24_33
REMARK   14  A    between atoms: N6_35  and  C26_36
ROOT
HETATM    1  N3  UNL     1      20.680  25.293  19.828  1.00  0.00    -0.354 N
HETATM    2  C12 UNL     1      21.025  23.959  19.543  1.00  0.00     0.065 C
HETATM    3  C13 UNL     1      21.465  23.238  20.777  1.00  0.00     0.045 C
HETATM    4  C14 UNL     1      22.841  23.516  21.252  1.00  0.00     0.010 C
HETATM    5  C15 UNL     1      23.647  24.474  20.449  1.00  0.00    -0.012 C
HETATM    6  C18 UNL     1      23.023  25.844  20.345  1.00  0.00     0.045 C
HETATM    7  C19 UNL     1      21.582  25.839  20.806  1.00  0.00     0.195 C
HETATM    8  C20 UNL     1      21.247  27.201  21.209  1.00  0.00     0.085 C
HETATM    9  N4  UNL     1      20.964  28.273  21.541  1.00  0.00    -0.195 NA
ENDROOT
BRANCH   1  10
HETATM   10  C11 UNL     1      20.327  26.182  18.796  1.00  0.00     0.110 C
BRANCH  10  11
HETATM   11  C10 UNL     1      20.636  25.780  17.377  1.00  0.00     0.352 C
BRANCH  11  12
HETATM   12  N2  UNL     1      19.619  25.932  16.421  1.00  0.00     0.110 N
HETATM   13  C9  UNL     1      18.266  25.798  16.877  1.00  0.00     0.294 C
HETATM   14  C8  UNL     1      17.660  24.463  16.998  1.00  0.00     0.158 C
HETATM   15  N1  UNL     1      18.396  23.334  16.564  1.00  0.00    -0.325 N
HETATM   16  C7  UNL     1      17.906  22.037  16.797  1.00  0.00     0.362 C
HETATM   17  C31 UNL     1      19.630  23.515  15.871  1.00  0.00     0.158 C
HETATM   18  O2  UNL     1      18.528  20.992  16.445  1.00  0.00    -0.238 OA
HETATM   19  C30 UNL     1      19.784  24.942  15.379  1.00  0.00     0.294 C
BRANCH  16  20
HETATM   20  O1  UNL     1      16.679  21.808  17.442  1.00  0.00    -0.304 OA
BRANCH  20  21
HETATM   21  C6  UNL     1      15.558  21.356  16.708  1.00  0.00     0.180 C
BRANCH  21  22
HETATM   22  C5  UNL     1      14.601  22.465  16.393  1.00  0.00     0.027 C
BRANCH  22  23
HETATM   23  C4  UNL     1      14.559  22.864  14.956  1.00  0.00     0.002 C
BRANCH  23  24
HETATM   24  C3  UNL     1      15.572  22.095  14.152  1.00  0.00    -0.000 C
BRANCH  24  25
HETATM   25  C2  UNL     1      14.971  21.414  12.955  1.00  0.00    -0.005 C
HETATM   26  C1  UNL     1      14.089  20.264  13.445  1.00  0.00     0.005 C
ENDBRANCH  24  25
ENDBRANCH  23  24
ENDBRANCH  22  23
ENDBRANCH  21  22
ENDBRANCH  20  21
ENDBRANCH  16  20
ENDBRANCH  11  12
BRANCH  11  27
HETATM   27  C21 UNL     1      21.771  26.707  17.031  1.00  0.00     0.261 C
HETATM   28  O3  UNL     1      21.656  27.889  17.487  1.00  0.00    -0.270 OA
HETATM   29  N5  UNL     1      22.906  26.393  16.264  1.00  0.00    -0.319 N
ATOM     30  H5  UNL     1      23.027  25.451  15.890  1.00  0.00     0.169 HD
BRANCH  29  31
HETATM   31  C22 UNL     1      23.884  27.392  16.013  1.00  0.00     0.127 A
HETATM   32  C23 UNL     1      25.035  27.590  16.720  1.00  0.00     0.048 A
HETATM   33  N6  UNL     1      25.889  28.601  16.397  1.00  0.00    -0.301 N
HETATM   34  C28 UNL     1      25.602  29.418  15.367  1.00  0.00     0.329 A
HETATM   35  O4  UNL     1      26.438  30.342  15.113  1.00  0.00    -0.246 OA
HETATM   36  N7  UNL     1      24.487  29.258  14.649  1.00  0.00    -0.273 N
HETATM   37  C29 UNL     1      23.638  28.269  14.957  1.00  0.00     0.278 A
ATOM     38  H7  UNL     1      24.284  29.886  13.871  1.00  0.00     0.173 HD
HETATM   39  O5  UNL     1      22.583  28.115  14.280  1.00  0.00    -0.265 OA
BRANCH  32  40
HETATM   40  C24 UNL     1      25.410  26.716  17.828  1.00  0.00     0.055 C
HETATM   41  C25 UNL     1      26.015  25.393  17.369  1.00  0.00     0.011 C
ENDBRANCH  32  40
BRANCH  33  42
HETATM   42  C26 UNL     1      27.093  28.783  17.160  1.00  0.00     0.129 C
HETATM   43  C27 UNL     1      26.917  29.783  18.282  1.00  0.00     0.027 C
ENDBRANCH  33  42
ENDBRANCH  29  31
ENDBRANCH  11  27
ENDBRANCH  10  11
ENDBRANCH   1  10
BRANCH   5  44
HETATM   44  C16 UNL     1      25.052  24.556  20.925  1.00  0.00     0.000 C
HETATM   45  C17 UNL     1      25.366  25.761  21.747  1.00  0.00     0.005 C
ENDBRANCH   5  44
TORSDOF 14
ENDMDL