MODEL 3
REMARK VINA RESULT: -8.185047174      1.391      1.822
REMARK  27 active torsions:
REMARK  status: ('A' for Active; 'I' for Inactive)
REMARK    1  A    between atoms: C2_2  and  C3_3
REMARK    2  A    between atoms: C4_4  and  N1_5
REMARK    3  A    between atoms: C4_4  and  C23_38
REMARK    4  A    between atoms: N1_5  and  C5_6
REMARK    5  A    between atoms: C5_6  and  O1_7
REMARK    6  A    between atoms: C5_6  and  C6_9
REMARK    7  A    between atoms: C6_9  and  C7_10
REMARK    8  A    between atoms: C6_9  and  N2_15
REMARK    9  A    between atoms: C7_10  and  C8_11
REMARK   10  A    between atoms: C8_11  and  C9_12
REMARK   11  A    between atoms: N2_15  and  C11_16
REMARK   12  A    between atoms: C11_16  and  O3_17
REMARK   13  A    between atoms: C11_16  and  C12_19
REMARK   14  A    between atoms: C13_20  and  C14_21
REMARK   15  A    between atoms: C14_21  and  C15_22
REMARK   16  A    between atoms: C15_22  and  O4_23
REMARK   17  A    between atoms: C15_22  and  N3_25
REMARK   18  A    between atoms: N3_25  and  C16_27
REMARK   19  A    between atoms: C16_27  and  O5_28
REMARK   20  A    between atoms: C16_27  and  N4_30
REMARK   21  A    between atoms: N4_30  and  C17_32
REMARK   22  A    between atoms: C23_38  and  O6_39
REMARK   23  A    between atoms: C23_38  and  N5_41
REMARK   24  A    between atoms: N6_44  and  C26_45
REMARK   25  A    between atoms: C26_45  and  O7_46
REMARK   26  A    between atoms: C26_45  and  O8_48
REMARK   27  A    between atoms: O8_48  and  C27_49
ROOT
HETATM    1  C6  UNL     1      17.529  24.897  16.026  1.00  0.00     0.255 C
ENDROOT
BRANCH   1   2
HETATM    2  C5  UNL     1      18.024  23.861  17.007  1.00  0.00     0.227 C
BRANCH   2   3
HETATM    3  N1  UNL     1      17.545  23.291  17.991  1.00  0.00    -0.378 NA
BRANCH   3   4
HETATM    4  C4  UNL     1      17.089  22.694  18.998  1.00  0.00     0.156 C
HETATM    5  C3  UNL     1      17.949  22.677  20.161  1.00  0.00     0.022 C
BRANCH   5   6
HETATM    6  C2  UNL     1      18.288  21.471  20.926  1.00  0.00     0.026 C
HETATM    7  C1  UNL     1      19.804  21.633  21.295  1.00  0.00     0.009 C
ENDBRANCH   5   6
BRANCH   4   8
HETATM    8  C23 UNL     1      15.707  22.347  18.809  1.00  0.00     0.179 C
BRANCH   8   9
HETATM    9  O6  UNL     1      15.014  23.527  18.506  1.00  0.00    -0.344 OA
ATOM     10  H6  UNL     1      14.088  23.354  18.630  1.00  0.00     0.219 HD
ENDBRANCH   8   9
BRANCH   8  11
HETATM   11  N5  UNL     1      14.780  21.321  18.795  1.00  0.00    -0.356 N
HETATM   12  C24 UNL     1      15.030  20.351  19.905  1.00  0.00     0.145 C
HETATM   13  C25 UNL     1      14.081  19.283  20.121  1.00  0.00     0.147 C
HETATM   14  N6  UNL     1      12.980  19.262  19.174  1.00  0.00    -0.339 N
HETATM   15  C29 UNL     1      13.236  19.712  17.816  1.00  0.00     0.147 C
HETATM   16  C30 UNL     1      13.657  21.188  17.954  1.00  0.00     0.145 C
BRANCH  14  17
HETATM   17  C26 UNL     1      11.716  18.804  19.606  1.00  0.00     0.260 C
BRANCH  17  18
HETATM   18  O7  UNL     1      11.598  18.716  20.899  1.00  0.00    -0.327 OA
ATOM     19  H7  UNL     1      10.701  18.751  21.209  1.00  0.00     0.221 HD
ENDBRANCH  17  18
BRANCH  17  20
HETATM   20  O8  UNL     1      10.650  18.465  18.843  1.00  0.00    -0.317 OA
BRANCH  20  21
HETATM   21  C27 UNL     1      10.526  17.134  18.344  1.00  0.00     0.175 C
HETATM   22  C28 UNL     1      10.390  17.279  16.827  1.00  0.00     0.034 C
ENDBRANCH  20  21
ENDBRANCH  17  20
ENDBRANCH  14  17
ENDBRANCH   8  11
ENDBRANCH   4   8
ENDBRANCH   3   4
ENDBRANCH   2   3
BRANCH   2  23
HETATM   23  O1  UNL     1      19.291  23.554  16.682  1.00  0.00    -0.336 OA
ATOM     24  H1  UNL     1      19.671  24.019  15.947  1.00  0.00     0.220 HD
ENDBRANCH   2  23
ENDBRANCH   1   2
BRANCH   1  25
HETATM   25  C7  UNL     1      16.621  24.479  14.961  1.00  0.00     0.056 C
BRANCH  25  26
HETATM   26  C8  UNL     1      15.574  23.483  15.192  1.00  0.00     0.081 C
BRANCH  26  27
HETATM   27  C9  UNL     1      15.843  22.119  14.852  1.00  0.00     0.123 C
HETATM   28  C10 UNL     1      15.461  21.714  13.423  1.00  0.00     0.091 C
HETATM   29  O2  UNL     1      16.326  21.239  15.499  1.00  0.00    -0.298 OA
ENDBRANCH  26  27
ENDBRANCH  25  26
ENDBRANCH   1  25
BRANCH   1  30
HETATM   30  N2  UNL     1      18.526  25.769  15.484  1.00  0.00    -0.410 NA
BRANCH  30  31
HETATM   31  C11 UNL     1      19.423  26.557  14.994  1.00  0.00     0.209 C
BRANCH  31  32
HETATM   32  O3  UNL     1      19.267  27.808  14.647  1.00  0.00    -0.336 OA
ATOM     33  H3  UNL     1      19.112  28.546  15.224  1.00  0.00     0.220 HD
ENDBRANCH  31  32
BRANCH  31  34
HETATM   34  C12 UNL     1      20.856  26.127  14.715  1.00  0.00     0.071 C
HETATM   35  C13 UNL     1      21.922  27.075  14.551  1.00  0.00     0.010 C
BRANCH  35  36
HETATM   36  C14 UNL     1      22.692  27.671  15.637  1.00  0.00     0.056 C
BRANCH  36  37
HETATM   37  C15 UNL     1      23.039  27.100  16.917  1.00  0.00     0.142 C
BRANCH  37  38
HETATM   38  O4  UNL     1      24.011  26.200  16.880  1.00  0.00    -0.346 OA
ATOM     39  H4  UNL     1      23.720  25.296  16.913  1.00  0.00     0.219 HD
ENDBRANCH  37  38
BRANCH  37  40
HETATM   40  N3  UNL     1      22.503  27.374  18.178  1.00  0.00    -0.303 N
ATOM     41  H3  UNL     1      23.117  27.847  18.841  1.00  0.00     0.171 HD
BRANCH  40  42
HETATM   42  C16 UNL     1      21.234  27.075  18.621  1.00  0.00     0.219 C
BRANCH  42  43
HETATM   43  O5  UNL     1      20.641  28.196  19.125  1.00  0.00    -0.332 OA
ATOM     44  H5  UNL     1      19.737  28.011  19.351  1.00  0.00     0.220 HD
ENDBRANCH  42  43
BRANCH  42  45
HETATM   45  N4  UNL     1      20.380  26.001  18.725  1.00  0.00    -0.352 N
ATOM     46  H4  UNL     1      19.556  25.980  18.123  1.00  0.00     0.163 HD
BRANCH  45  47
HETATM   47  C17 UNL     1      20.587  24.887  19.649  1.00  0.00     0.085 C
HETATM   48  C18 UNL     1      20.367  25.335  21.083  1.00  0.00     0.025 C
HETATM   49  C19 UNL     1      21.511  26.090  21.690  1.00  0.00     0.002 C
HETATM   50  C20 UNL     1      22.824  25.389  21.487  1.00  0.00     0.000 C
HETATM   51  C21 UNL     1      22.639  24.052  20.784  1.00  0.00     0.002 C
HETATM   52  C22 UNL     1      21.886  24.194  19.464  1.00  0.00     0.025 C
ENDBRANCH  45  47
ENDBRANCH  42  45
ENDBRANCH  40  42
ENDBRANCH  37  40
ENDBRANCH  36  37
ENDBRANCH  35  36
ENDBRANCH  31  34
ENDBRANCH  30  31
ENDBRANCH   1  30
TORSDOF 27
ENDMDL