MODEL 5
REMARK VINA RESULT: -8.790460684      1.747      2.888
REMARK  16 active torsions:
REMARK  status: ('A' for Active; 'I' for Inactive)
REMARK    1  A    between atoms: O1_2  and  N1_3
REMARK    2  A    between atoms: C2_5  and  C4_7
REMARK       I    between atoms: C4_7  and  N2_9
REMARK    3  A    between atoms: N2_9  and  C5_11
REMARK    4  A    between atoms: C5_11  and  C6_12
REMARK    5  A    between atoms: C5_11  and  C29_46
REMARK    6  A    between atoms: C6_12  and  C7_14
REMARK    7  A    between atoms: C7_14  and  C8_15
REMARK       I    between atoms: C8_15  and  N3_17
REMARK    8  A    between atoms: N3_17  and  C9_19
REMARK    9  A    between atoms: C9_19  and  C10_20
REMARK   10  A    between atoms: C9_19  and  C26_43
REMARK   11  A    between atoms: C10_20  and  C11_22
REMARK       I    between atoms: C11_22  and  N4_24
REMARK   12  A    between atoms: C15_28  and  C16_29
REMARK       I    between atoms: C16_29  and  N5_31
REMARK   13  A    between atoms: N5_31  and  C17_33
REMARK   14  A    between atoms: C17_33  and  C18_34
REMARK   15  A    between atoms: C17_33  and  C23_40
REMARK   16  A    between atoms: C18_34  and  C19_36
ROOT
HETATM    1  C9  UNL     1      15.440  21.817  16.229  1.00  0.00     0.167 C
ENDROOT
BRANCH   1   2
HETATM    2  N3  UNL     1      15.598  23.261  16.356  1.00  0.00    -0.348 N
HETATM    3  C8  UNL     1      16.817  23.893  15.998  1.00  0.00     0.225 C
HETATM    4  O4  UNL     1      17.737  23.151  15.571  1.00  0.00    -0.273 OA
ATOM      5  H3  UNL     1      14.823  23.823  16.707  1.00  0.00     0.163 HD
BRANCH   3   6
HETATM    6  C7  UNL     1      16.972  25.373  16.133  1.00  0.00     0.183 C
BRANCH   6   7
HETATM    7  C6  UNL     1      17.957  25.925  15.188  1.00  0.00     0.158 C
HETATM    8  O3  UNL     1      17.568  26.105  14.023  1.00  0.00    -0.295 OA
BRANCH   7   9
HETATM    9  C5  UNL     1      19.355  26.281  15.485  1.00  0.00     0.158 C
BRANCH   9  10
HETATM   10  N2  UNL     1      19.838  25.433  16.593  1.00  0.00    -0.344 N
HETATM   11  C4  UNL     1      20.413  26.010  17.725  1.00  0.00     0.266 C
HETATM   12  O2  UNL     1      20.546  27.271  17.857  1.00  0.00    -0.266 OA
ATOM     13  H2  UNL     1      19.750  24.418  16.530  1.00  0.00     0.163 HD
BRANCH  11  14
HETATM   14  C2  UNL     1      20.901  25.208  18.832  1.00  0.00     0.095 C
HETATM   15  N1  UNL     1      20.245  24.261  19.393  1.00  0.00    -0.266 N
ATOM     16  H1  UNL     1      20.700  23.775  20.166  1.00  0.00     0.194 HD
HETATM   17  C3  UNL     1      22.260  25.492  19.374  1.00  0.00     0.076 C
BRANCH  15  18
HETATM   18  O1  UNL     1      18.993  23.846  19.049  1.00  0.00    -0.285 OA
HETATM   19  C1  UNL     1      18.735  22.438  18.957  1.00  0.00     0.237 C
ENDBRANCH  15  18
ENDBRANCH  11  14
ENDBRANCH   9  10
BRANCH   9  20
HETATM   20  C29 UNL     1      20.312  26.182  14.333  1.00  0.00     0.007 C
HETATM   21  C30 UNL     1      21.197  27.395  14.191  1.00  0.00     0.012 C
HETATM   22  C31 UNL     1      21.154  24.949  14.346  1.00  0.00     0.012 C
ENDBRANCH   9  20
ENDBRANCH   7   9
ENDBRANCH   6   7
ENDBRANCH   3   6
ENDBRANCH   1   2
BRANCH   1  23
HETATM   23  C10 UNL     1      14.666  21.468  15.018  1.00  0.00     0.239 C
HETATM   24  O5  UNL     1      15.259  20.804  14.131  1.00  0.00    -0.285 OA
BRANCH  23  25
HETATM   25  C11 UNL     1      13.288  21.843  14.798  1.00  0.00     0.292 C
HETATM   26  O6  UNL     1      13.101  23.093  14.562  1.00  0.00    -0.264 OA
HETATM   27  N4  UNL     1      12.177  20.989  14.821  1.00  0.00    -0.332 N
HETATM   28  C12 UNL     1      10.799  21.499  14.615  1.00  0.00     0.127 C
HETATM   29  C15 UNL     1      12.085  19.579  15.001  1.00  0.00     0.179 C
HETATM   30  C13 UNL     1       9.982  20.319  14.197  1.00  0.00     0.022 C
HETATM   31  C14 UNL     1      10.958  19.193  14.073  1.00  0.00     0.037 C
BRANCH  29  32
HETATM   32  C16 UNL     1      11.745  19.135  16.363  1.00  0.00     0.241 C
HETATM   33  O7  UNL     1      11.572  19.972  17.298  1.00  0.00    -0.271 OA
HETATM   34  N5  UNL     1      11.616  17.752  16.614  1.00  0.00    -0.347 N
ATOM     35  H5  UNL     1      11.756  17.111  15.833  1.00  0.00     0.163 HD
BRANCH  34  36
HETATM   36  C17 UNL     1      11.293  17.177  17.918  1.00  0.00     0.158 C
BRANCH  36  37
HETATM   37  C18 UNL     1      12.547  17.140  18.712  1.00  0.00     0.157 C
HETATM   38  O8  UNL     1      13.587  16.753  18.129  1.00  0.00    -0.295 OA
BRANCH  37  39
HETATM   39  C19 UNL     1      12.698  17.517  20.114  1.00  0.00     0.012 C
HETATM   40  C20 UNL     1      14.139  18.013  20.343  1.00  0.00     0.022 C
HETATM   41  C21 UNL     1      12.348  16.510  21.147  1.00  0.00     0.022 C
HETATM   42  C22 UNL     1      11.838  18.759  20.363  1.00  0.00     0.022 C
ENDBRANCH  37  39
ENDBRANCH  36  37
BRANCH  36  43
HETATM   43  C23 UNL     1      10.771  15.763  17.652  1.00  0.00     0.007 C
HETATM   44  C24 UNL     1      10.841  15.400  16.193  1.00  0.00     0.012 C
HETATM   45  C25 UNL     1       9.294  15.698  18.060  1.00  0.00     0.012 C
ENDBRANCH  36  43
ENDBRANCH  34  36
ENDBRANCH  29  32
ENDBRANCH  23  25
ENDBRANCH   1  23
BRANCH   1  46
HETATM   46  C26 UNL     1      14.738  21.265  17.458  1.00  0.00     0.008 C
HETATM   47  C27 UNL     1      15.539  20.082  18.021  1.00  0.00     0.012 C
HETATM   48  C28 UNL     1      14.427  22.290  18.494  1.00  0.00     0.012 C
ENDBRANCH   1  46
TORSDOF 16
ENDMDL