MODEL 2
REMARK VINA RESULT: -8.645527466      2.158      9.620
REMARK  18 active torsions:
REMARK  status: ('A' for Active; 'I' for Inactive)
REMARK    1  A    between atoms: C5_6  and  C6_7
REMARK    2  A    between atoms: C6_7  and  N2_8
REMARK    3  A    between atoms: N2_8  and  C7_9
REMARK    4  A    between atoms: C7_9  and  O1_10
REMARK    5  A    between atoms: C7_9  and  C8_12
REMARK    6  A    between atoms: C10_14  and  N3_15
REMARK    7  A    between atoms: C16_22  and  C17_23
REMARK    8  A    between atoms: C17_23  and  O4_25
REMARK    9  A    between atoms: O4_25  and  C18_26
REMARK   10  A    between atoms: C18_26  and  C19_27
REMARK   11  A    between atoms: C22_30  and  O5_31
REMARK   12  A    between atoms: O5_31  and  C23_32
REMARK   13  A    between atoms: C23_32  and  C24_33
REMARK       I    between atoms: C24_33  and  N4_35
REMARK   14  A    between atoms: C28_42  and  C29_43
REMARK   15  A    between atoms: C29_43  and  C30_44
REMARK   16  A    between atoms: C30_44  and  C31_45
REMARK   17  A    between atoms: C31_45  and  C32_46
REMARK   18  A    between atoms: C32_46  and  N6_47
ROOT
HETATM    1  C8  UNL     1      16.978  22.176  17.618  1.00  0.00     0.066 A
HETATM    2  C9  UNL     1      15.878  21.994  16.756  1.00  0.00     0.049 A
HETATM    3  C10 UNL     1      15.848  22.672  15.561  1.00  0.00     0.039 A
HETATM    4  C15 UNL     1      16.881  23.510  15.229  1.00  0.00     0.050 A
HETATM    5  C16 UNL     1      17.994  23.725  16.050  1.00  0.00     0.076 A
HETATM    6  C22 UNL     1      17.985  23.018  17.263  1.00  0.00     0.101 A
ENDROOT
BRANCH   6   7
HETATM    7  O5  UNL     1      19.120  23.296  18.052  1.00  0.00    -0.340 OA
BRANCH   7   8
HETATM    8  C23 UNL     1      18.974  24.186  19.162  1.00  0.00     0.278 C
BRANCH   8   9
HETATM    9  C24 UNL     1      20.288  24.424  19.794  1.00  0.00     0.244 C
HETATM   10  O6  UNL     1      20.645  23.654  20.748  1.00  0.00    -0.271 OA
HETATM   11  N4  UNL     1      21.164  25.448  19.397  1.00  0.00    -0.335 N
HETATM   12  C25 UNL     1      20.873  26.347  18.346  1.00  0.00     0.146 C
HETATM   13  C28 UNL     1      22.472  25.578  20.103  1.00  0.00     0.179 C
HETATM   14  C26 UNL     1      21.774  27.530  18.204  1.00  0.00     0.142 C
HETATM   15  N5  UNL     1      23.154  27.117  18.332  1.00  0.00    -0.358 N
HETATM   16  C27 UNL     1      23.471  25.919  19.087  1.00  0.00     0.240 C
ATOM     17  H5  UNL     1      23.897  27.662  17.895  1.00  0.00     0.162 HD
HETATM   18  O7  UNL     1      24.510  25.258  18.862  1.00  0.00    -0.271 OA
BRANCH  13  19
HETATM   19  C29 UNL     1      22.262  26.469  21.246  1.00  0.00     0.035 C
BRANCH  19  20
HETATM   20  C30 UNL     1      22.768  26.125  22.591  1.00  0.00     0.004 C
BRANCH  20  21
HETATM   21  C31 UNL     1      23.832  25.080  22.669  1.00  0.00     0.027 C
BRANCH  21  22
HETATM   22  C32 UNL     1      25.197  25.811  22.714  1.00  0.00     0.229 C
BRANCH  22  23
HETATM   23  N6  UNL     1      26.024  25.478  21.597  1.00  0.00    -0.079 N
ATOM     24  H63 UNL     1      25.464  25.165  20.804  1.00  0.00     0.274 HD
ATOM     25  H62 UNL     1      26.439  26.313  21.184  1.00  0.00     0.274 HD
ATOM     26  H61 UNL     1      26.739  24.791  21.839  1.00  0.00     0.274 HD
ENDBRANCH  22  23
ENDBRANCH  21  22
ENDBRANCH  20  21
ENDBRANCH  19  20
ENDBRANCH  13  19
ENDBRANCH   8   9
ENDBRANCH   7   8
ENDBRANCH   6   7
BRANCH   1  27
HETATM   27  C7  UNL     1      16.982  21.294  18.789  1.00  0.00     0.226 C
BRANCH  27  28
HETATM   28  N2  UNL     1      15.906  20.922  19.513  1.00  0.00    -0.394 NA
BRANCH  28  29
HETATM   29  C6  UNL     1      14.817  20.558  20.282  1.00  0.00     0.194 C
BRANCH  29  30
HETATM   30  C5  UNL     1      14.294  19.186  20.027  1.00  0.00     0.274 C
HETATM   31  N1  UNL     1      12.884  19.030  19.884  1.00  0.00     0.094 N
HETATM   32  C1  UNL     1      12.296  19.525  18.681  1.00  0.00     0.310 C
HETATM   33  C2  UNL     1      12.827  17.545  19.740  1.00  0.00     0.273 C
HETATM   34  C3  UNL     1      13.946  17.233  18.777  1.00  0.00     0.033 C
HETATM   35  C4  UNL     1      14.866  18.469  18.841  1.00  0.00     0.044 C
ENDBRANCH  29  30
ENDBRANCH  28  29
ENDBRANCH  27  28
BRANCH  27  36
HETATM   36  O1  UNL     1      18.165  20.870  19.128  1.00  0.00    -0.335 OA
ATOM     37  H1  UNL     1      18.885  21.487  19.193  1.00  0.00     0.220 HD
ENDBRANCH  27  36
ENDBRANCH   1  27
BRANCH   5  38
HETATM   38  C17 UNL     1      19.093  24.533  15.590  1.00  0.00     0.296 C
HETATM   39  O3  UNL     1      20.214  24.178  15.262  1.00  0.00    -0.259 OA
BRANCH  38  40
HETATM   40  O4  UNL     1      18.840  25.916  15.506  1.00  0.00    -0.317 OA
BRANCH  40  41
HETATM   41  C18 UNL     1      19.283  26.676  14.398  1.00  0.00     0.183 C
BRANCH  41  42
HETATM   42  C19 UNL     1      20.382  27.620  14.749  1.00  0.00     0.010 A
HETATM   43  C20 UNL     1      21.818  27.108  14.539  1.00  0.00     0.007 A
HETATM   44  C21 UNL     1      21.278  28.247  13.758  1.00  0.00     0.007 A
ENDBRANCH  41  42
ENDBRANCH  40  41
ENDBRANCH  38  40
ENDBRANCH   5  38
BRANCH   3  45
HETATM   45  N3  UNL     1      14.743  22.446  14.703  1.00  0.00    -0.318 N
HETATM   46  C11 UNL     1      13.454  23.089  14.898  1.00  0.00     0.133 C
HETATM   47  C12 UNL     1      12.476  22.313  14.050  1.00  0.00     0.029 C
HETATM   48  C13 UNL     1      13.256  21.285  13.272  1.00  0.00     0.105 C
HETATM   49  C14 UNL     1      14.686  21.614  13.572  1.00  0.00     0.224 C
HETATM   50  O2  UNL     1      15.635  21.174  12.870  1.00  0.00    -0.273 OA
ENDBRANCH   3  45
TORSDOF 18
ENDMDL