MODEL 2
REMARK VINA RESULT: -6.783736062      8.329     14.083
REMARK  15 active torsions:
REMARK  status: ('A' for Active; 'I' for Inactive)
REMARK    1  A    between atoms: C2_2  and  C3_3
REMARK    2  A    between atoms: C3_3  and  C4_4
REMARK    3  A    between atoms: C4_4  and  C5_5
REMARK    4  A    between atoms: C5_5  and  C6_6
REMARK    5  A    between atoms: C6_6  and  C7_7
REMARK    6  A    between atoms: C7_7  and  C8_8
REMARK    7  A    between atoms: C7_7  and  N1_10
REMARK       I    between atoms: N1_10  and  C9_12
REMARK    8  A    between atoms: C9_12  and  C10_14
REMARK    9  A    between atoms: C10_14  and  N2_15
REMARK       I    between atoms: N2_15  and  C11_17
REMARK   10  A    between atoms: C11_17  and  C12_19
REMARK   11  A    between atoms: C12_19  and  N3_20
REMARK   12  A    between atoms: C20_31  and  C21_32
REMARK   13  A    between atoms: C21_32  and  C23_34
REMARK   14  A    between atoms: C23_34  and  N5_38
REMARK   15  A    between atoms: N6_41  and  C26_42
ROOT
HETATM    1  N3  UNL     1      10.773  18.424  15.469  1.00  0.00    -0.313 N
HETATM    2  C13 UNL     1      10.896  17.216  14.725  1.00  0.00     0.243 C
HETATM    3  O4  UNL     1      11.227  16.188  15.422  1.00  0.00    -0.271 OA
HETATM    4  C14 UNL     1      10.720  16.891  13.324  1.00  0.00     0.092 C
HETATM    5  C15 UNL     1      11.844  16.133  12.662  1.00  0.00     0.038 C
HETATM    6  C16 UNL     1       9.558  15.851  13.289  1.00  0.00     0.038 C
HETATM    7  S1  UNL     1      10.164  18.179  12.248  1.00  0.00    -0.077 SA
HETATM    8  S2  UNL     1       9.328  19.846  13.115  1.00  0.00    -0.081 SA
HETATM    9  C17 UNL     1      10.302  20.620  14.419  1.00  0.00     0.051 C
HETATM   10  C18 UNL     1       9.279  21.036  15.464  1.00  0.00     0.034 C
HETATM   11  C19 UNL     1      10.876  21.943  13.943  1.00  0.00     0.034 C
HETATM   12  C20 UNL     1      11.292  19.744  15.061  1.00  0.00     0.022 C
ENDROOT
BRANCH   1  13
HETATM   13  C12 UNL     1      10.173  18.190  16.751  1.00  0.00     0.234 C
BRANCH  13  14
HETATM   14  C11 UNL     1      10.849  18.685  17.944  1.00  0.00     0.236 C
HETATM   15  N2  UNL     1      11.455  17.696  18.798  1.00  0.00    -0.351 N
ATOM     16  H2  UNL     1      11.395  16.707  18.554  1.00  0.00     0.163 HD
HETATM   17  O3  UNL     1      10.940  19.871  18.277  1.00  0.00    -0.272 OA
BRANCH  15  18
HETATM   18  C10 UNL     1      12.137  18.096  19.978  1.00  0.00     0.225 C
BRANCH  18  19
HETATM   19  C9  UNL     1      13.553  18.382  19.758  1.00  0.00     0.235 C
HETATM   20  N1  UNL     1      14.062  19.667  20.158  1.00  0.00    -0.349 N
ATOM     21  H1  UNL     1      13.443  20.358  20.581  1.00  0.00     0.163 HD
HETATM   22  O2  UNL     1      14.319  17.544  19.239  1.00  0.00    -0.272 OA
BRANCH  20  23
HETATM   23  C7  UNL     1      15.452  19.966  19.954  1.00  0.00     0.146 C
BRANCH  23  24
HETATM   24  C6  UNL     1      15.925  20.874  21.088  1.00  0.00     0.032 C
BRANCH  24  25
HETATM   25  C5  UNL     1      16.989  21.802  20.653  1.00  0.00     0.002 C
BRANCH  25  26
HETATM   26  C4  UNL     1      18.388  21.486  20.980  1.00  0.00     0.000 C
BRANCH  26  27
HETATM   27  C3  UNL     1      19.456  21.710  20.009  1.00  0.00    -0.000 C
BRANCH  27  28
HETATM   28  C2  UNL     1      20.457  22.791  20.211  1.00  0.00    -0.005 C
HETATM   29  C1  UNL     1      19.875  24.074  20.744  1.00  0.00     0.005 C
ENDBRANCH  27  28
ENDBRANCH  26  27
ENDBRANCH  25  26
ENDBRANCH  24  25
ENDBRANCH  23  24
BRANCH  23  30
HETATM   30  C8  UNL     1      15.697  20.551  18.622  1.00  0.00     0.256 C
HETATM   31  O1  UNL     1      16.555  20.123  17.877  1.00  0.00    -0.305 OA
ENDBRANCH  23  30
ENDBRANCH  20  23
ENDBRANCH  18  19
ENDBRANCH  15  18
ENDBRANCH  13  14
ENDBRANCH   1  13
BRANCH  12  32
HETATM   32  C21 UNL     1      12.677  19.651  14.544  1.00  0.00     0.096 C
HETATM   33  C22 UNL     1      13.126  20.219  13.281  1.00  0.00     0.024 C
BRANCH  32  34
HETATM   34  C23 UNL     1      13.731  20.143  15.534  1.00  0.00     0.082 C
HETATM   35  N4  UNL     1      13.938  19.437  16.572  1.00  0.00    -0.388 N
ATOM     36  H42 UNL     1      13.442  18.560  16.732  1.00  0.00     0.157 HD
ATOM     37  H41 UNL     1      14.642  19.766  17.234  1.00  0.00     0.157 HD
BRANCH  34  38
HETATM   38  N5  UNL     1      14.415  21.354  15.314  1.00  0.00    -0.367 N
HETATM   39  C24 UNL     1      15.556  21.361  14.435  1.00  0.00     0.143 C
HETATM   40  C25 UNL     1      16.550  22.446  14.712  1.00  0.00     0.136 C
HETATM   41  N6  UNL     1      15.961  23.712  14.926  1.00  0.00    -0.410 N
HETATM   42  C28 UNL     1      14.574  23.770  15.192  1.00  0.00     0.136 C
HETATM   43  C29 UNL     1      14.004  22.581  15.933  1.00  0.00     0.143 C
BRANCH  41  44
HETATM   44  C26 UNL     1      16.762  24.675  15.603  1.00  0.00     0.112 C
HETATM   45  C27 UNL     1      17.213  25.826  14.760  1.00  0.00     0.026 C
ENDBRANCH  41  44
ENDBRANCH  34  38
ENDBRANCH  32  34
ENDBRANCH  12  32
TORSDOF 15
ENDMDL