MODEL 4
REMARK VINA RESULT: -8.361608158      3.524     10.743
REMARK  17 active torsions:
REMARK  status: ('A' for Active; 'I' for Inactive)
REMARK    1  A    between atoms: C2_2  and  C3_3
REMARK    2  A    between atoms: C3_3  and  C4_4
REMARK    3  A    between atoms: C7_9  and  C8_10
REMARK    4  A    between atoms: C8_10  and  C9_11
REMARK    5  A    between atoms: C10_12  and  N2_13
REMARK    6  A    between atoms: N3_16  and  C13_17
REMARK    7  A    between atoms: C13_17  and  O1_18
REMARK    8  A    between atoms: C13_17  and  C14_20
REMARK       I    between atoms: C14_20  and  N4_22
REMARK    9  A    between atoms: N4_22  and  C15_24
REMARK   10  A    between atoms: C15_24  and  C16_25
REMARK   11  A    between atoms: N6_33  and  C20_34
REMARK   12  A    between atoms: C20_34  and  C21_35
REMARK   13  A    between atoms: C24_38  and  C25_39
REMARK   14  A    between atoms: C25_39  and  N7_40
REMARK       I    between atoms: N7_40  and  C27_42
REMARK   15  A    between atoms: C27_42  and  C28_44
REMARK   16  A    between atoms: C28_44  and  C29_45
REMARK   17  A    between atoms: C28_44  and  C31_47
ROOT
HETATM    1  C4  UNL     1      16.384  22.168  19.424  1.00  0.00     0.022 C
HETATM    2  C5  UNL     1      15.568  21.573  18.553  1.00  0.00     0.104 A
HETATM    3  N1  UNL     1      15.373  20.242  18.408  1.00  0.00    -0.350 N
ATOM      4  H1  UNL     1      15.835  19.518  18.959  1.00  0.00     0.166 HD
HETATM    5  C6  UNL     1      14.480  20.015  17.432  1.00  0.00     0.119 A
HETATM    6  C7  UNL     1      14.076  21.245  16.919  1.00  0.00     0.052 A
HETATM    7  N6  UNL     1      14.777  22.161  17.646  1.00  0.00    -0.327 N
ENDROOT
BRANCH   6   8
HETATM    8  C8  UNL     1      13.234  21.474  15.927  1.00  0.00     0.052 C
BRANCH   8   9
HETATM    9  C9  UNL     1      12.995  20.370  14.981  1.00  0.00     0.079 A
HETATM   10  C10 UNL     1      11.842  19.615  15.037  1.00  0.00     0.131 A
HETATM   11  N3  UNL     1      11.632  18.589  14.167  1.00  0.00    -0.223 N
HETATM   12  C18 UNL     1      12.622  18.390  13.280  1.00  0.00     0.337 A
HETATM   13  O3  UNL     1      12.558  17.485  12.430  1.00  0.00    -0.246 OA
HETATM   14  N5  UNL     1      13.768  19.134  13.217  1.00  0.00    -0.274 N
HETATM   15  C19 UNL     1      13.986  20.141  14.062  1.00  0.00     0.263 A
ATOM     16  H5  UNL     1      14.469  18.915  12.510  1.00  0.00     0.173 HD
HETATM   17  O4  UNL     1      15.033  20.843  14.024  1.00  0.00    -0.267 OA
BRANCH  10  18
HETATM   18  N2  UNL     1      10.908  19.997  16.027  1.00  0.00    -0.375 N
HETATM   19  C11 UNL     1       9.873  20.966  15.621  1.00  0.00     0.150 C
HETATM   20  C12 UNL     1      10.898  19.572  17.401  1.00  0.00     0.150 C
ENDBRANCH  10  18
BRANCH  11  21
HETATM   21  C13 UNL     1      10.457  17.818  14.241  1.00  0.00     0.222 C
BRANCH  21  22
HETATM   22  O1  UNL     1       9.493  18.139  13.412  1.00  0.00    -0.342 OA
ATOM     23  H1  UNL     1       9.482  17.684  12.578  1.00  0.00     0.219 HD
ENDBRANCH  21  22
BRANCH  21  24
HETATM   24  C14 UNL     1      10.066  16.711  15.061  1.00  0.00     0.293 C
HETATM   25  O2  UNL     1       8.904  16.256  15.098  1.00  0.00    -0.264 OA
HETATM   26  N4  UNL     1      11.037  16.051  15.911  1.00  0.00    -0.354 N
ATOM     27  H4  UNL     1      11.998  16.392  15.912  1.00  0.00     0.162 HD
BRANCH  26  28
HETATM   28  C15 UNL     1      10.699  14.942  16.748  1.00  0.00     0.122 C
BRANCH  28  29
HETATM   29  C16 UNL     1      10.351  15.287  18.166  1.00  0.00     0.015 C
HETATM   30  C17 UNL     1      11.407  16.242  18.726  1.00  0.00     0.006 C
ENDBRANCH  28  29
ENDBRANCH  26  28
ENDBRANCH  21  24
ENDBRANCH  11  21
ENDBRANCH   8   9
ENDBRANCH   6   8
BRANCH   7  31
HETATM   31  C20 UNL     1      14.656  23.596  17.415  1.00  0.00     0.187 C
BRANCH  31  32
HETATM   32  C21 UNL     1      15.798  24.145  16.647  1.00  0.00     0.028 A
HETATM   33  C22 UNL     1      16.081  23.899  15.296  1.00  0.00     0.028 A
HETATM   34  C23 UNL     1      17.232  24.554  14.938  1.00  0.00     0.028 A
HETATM   35  C24 UNL     1      17.663  25.209  16.071  1.00  0.00     0.027 A
HETATM   36  N8  UNL     1      16.779  24.946  17.088  1.00  0.00    -0.360 N
ATOM     37  H8  UNL     1      16.857  25.306  18.039  1.00  0.00     0.165 HD
BRANCH  35  38
HETATM   38  C25 UNL     1      18.889  26.037  16.165  1.00  0.00     0.182 C
BRANCH  38  39
HETATM   39  N7  UNL     1      19.765  25.363  17.155  1.00  0.00    -0.351 N
HETATM   40  C26 UNL     1      19.765  23.938  17.120  1.00  0.00     0.153 C
HETATM   41  C27 UNL     1      20.560  26.119  18.024  1.00  0.00     0.224 C
HETATM   42  O5  UNL     1      20.554  27.415  17.943  1.00  0.00    -0.273 OA
BRANCH  41  43
HETATM   43  C28 UNL     1      21.418  25.509  19.047  1.00  0.00     0.077 C
BRANCH  43  44
HETATM   44  C29 UNL     1      20.974  25.862  20.426  1.00  0.00     0.009 C
HETATM   45  C30 UNL     1      19.920  24.897  20.892  1.00  0.00     0.006 C
ENDBRANCH  43  44
BRANCH  43  46
HETATM   46  C31 UNL     1      22.861  25.967  18.877  1.00  0.00     0.009 C
HETATM   47  C32 UNL     1      23.552  25.874  20.195  1.00  0.00     0.006 C
ENDBRANCH  43  46
ENDBRANCH  41  43
ENDBRANCH  38  39
ENDBRANCH  35  38
ENDBRANCH  31  32
ENDBRANCH   7  31
BRANCH   1  48
HETATM   48  C3  UNL     1      17.165  21.294  20.335  1.00  0.00     0.030 C
BRANCH  48  49
HETATM   49  C2  UNL     1      18.660  21.395  20.102  1.00  0.00    -0.001 C
HETATM   50  C1  UNL     1      19.364  21.389  21.438  1.00  0.00     0.005 C
ENDBRANCH  48  49
ENDBRANCH   1  48
TORSDOF 17
ENDMDL