MODEL 5
REMARK VINA RESULT: -8.952225127      1.546      2.097
REMARK  15 active torsions:
REMARK  status: ('A' for Active; 'I' for Inactive)
REMARK    1  A    between atoms: C2_2  and  C3_4
REMARK    2  A    between atoms: C3_4  and  C4_5
REMARK    3  A    between atoms: C4_5  and  C5_6
REMARK    4  A    between atoms: C5_6  and  C6_7
REMARK       I    between atoms: N1_10  and  C7_12
REMARK    5  A    between atoms: C7_12  and  C8_14
REMARK    6  A    between atoms: C15_22  and  C16_23
REMARK       I    between atoms: C16_23  and  N2_25
REMARK    7  A    between atoms: N2_25  and  C17_27
REMARK    8  A    between atoms: C17_27  and  C18_28
REMARK    9  A    between atoms: C18_28  and  C19_29
REMARK   10  A    between atoms: C19_29  and  C20_30
REMARK   11  A    between atoms: C20_30  and  C21_31
REMARK   12  A    between atoms: C21_31  and  C22_32
REMARK   13  A    between atoms: C22_32  and  N3_33
REMARK   14  A    between atoms: C28_39  and  C29_40
REMARK       I    between atoms: C29_40  and  N4_42
REMARK   15  A    between atoms: N4_42  and  C30_44
ROOT
HETATM    1  C8  UNL     1      18.994  24.546  18.046  1.00  0.00     0.108 C
HETATM    2  C9  UNL     1      18.960  23.630  16.801  1.00  0.00     0.023 C
HETATM    3  C10 UNL     1      18.726  22.220  17.318  1.00  0.00     0.018 A
HETATM    4  C11 UNL     1      18.510  22.442  18.558  1.00  0.00     0.012 A
HETATM    5  C12 UNL     1      18.584  21.714  19.874  1.00  0.00     0.046 C
HETATM    6  C13 UNL     1      17.291  22.435  20.239  1.00  0.00     0.137 C
HETATM    7  O5  UNL     1      17.812  23.755  20.130  1.00  0.00    -0.378 OA
HETATM    8  C14 UNL     1      18.005  23.853  18.832  1.00  0.00     0.145 C
HETATM    9  C15 UNL     1      16.531  21.988  19.005  1.00  0.00     0.126 C
HETATM   10  C28 UNL     1      17.425  21.735  17.859  1.00  0.00     0.071 A
ENDROOT
BRANCH   9  11
HETATM   11  C16 UNL     1      15.881  20.707  19.402  1.00  0.00     0.225 C
HETATM   12  O6  UNL     1      16.078  19.631  18.771  1.00  0.00    -0.273 OA
HETATM   13  N2  UNL     1      14.981  20.595  20.529  1.00  0.00    -0.361 N
ATOM     14  H2  UNL     1      14.771  21.419  21.093  1.00  0.00     0.162 HD
BRANCH  13  15
HETATM   15  C17 UNL     1      14.385  19.344  20.858  1.00  0.00     0.122 C
BRANCH  15  16
HETATM   16  C18 UNL     1      13.140  18.950  20.204  1.00  0.00     0.020 C
BRANCH  16  17
HETATM   17  C19 UNL     1      12.144  18.105  20.902  1.00  0.00     0.002 C
BRANCH  17  18
HETATM   18  C20 UNL     1      12.033  16.705  20.466  1.00  0.00     0.002 C
BRANCH  18  19
HETATM   19  C21 UNL     1      11.834  16.430  19.018  1.00  0.00     0.030 C
BRANCH  19  20
HETATM   20  C22 UNL     1      10.585  16.856  18.368  1.00  0.00     0.272 C
BRANCH  20  21
HETATM   21  N3  UNL     1      10.824  17.657  17.200  1.00  0.00     0.088 N
HETATM   22  C23 UNL     1      10.003  17.275  16.079  1.00  0.00     0.272 C
HETATM   23  C24 UNL     1      10.577  17.941  14.840  1.00  0.00     0.030 C
HETATM   24  C25 UNL     1      10.633  19.426  15.021  1.00  0.00     0.003 C
HETATM   25  C26 UNL     1      11.317  19.821  16.315  1.00  0.00     0.030 C
HETATM   26  C27 UNL     1      10.615  19.071  17.447  1.00  0.00     0.272 C
ENDBRANCH  20  21
ENDBRANCH  19  20
ENDBRANCH  18  19
ENDBRANCH  17  18
ENDBRANCH  16  17
ENDBRANCH  15  16
ENDBRANCH  13  15
ENDBRANCH   9  11
BRANCH  10  27
HETATM   27  C29 UNL     1      16.643  22.030  16.631  1.00  0.00     0.246 C
HETATM   28  O7  UNL     1      17.073  21.849  15.448  1.00  0.00    -0.272 OA
HETATM   29  N4  UNL     1      15.325  22.547  16.729  1.00  0.00    -0.159 N
ATOM     30  H4  UNL     1      15.049  22.945  17.626  1.00  0.00     0.187 HD
BRANCH  29  31
HETATM   31  C30 UNL     1      14.450  22.560  15.794  1.00  0.00     0.684 A
HETATM   32  N5  UNL     1      14.411  21.531  14.928  1.00  0.00    -0.202 N
HETATM   33  C31 UNL     1      13.510  21.478  13.922  1.00  0.00     0.107 A
ATOM     34  H5  UNL     1      15.081  20.769  15.034  1.00  0.00     0.183 HD
HETATM   35  C32 UNL     1      12.596  22.496  13.763  1.00  0.00     0.035 A
HETATM   36  C33 UNL     1      12.638  23.555  14.657  1.00  0.00     0.107 A
HETATM   37  N6  UNL     1      13.561  23.555  15.642  1.00  0.00    -0.202 N
ATOM     38  H6  UNL     1      13.583  24.338  16.294  1.00  0.00     0.183 HD
ENDBRANCH  29  31
ENDBRANCH  10  27
BRANCH   1  39
HETATM   39  C7  UNL     1      20.344  24.532  18.619  1.00  0.00     0.228 C
HETATM   40  N1  UNL     1      21.486  25.035  18.001  1.00  0.00    -0.327 N
HETATM   41  C3  UNL     1      22.011  26.167  18.188  1.00  0.00     0.058 C
ATOM     42  H1  UNL     1      21.946  24.424  17.326  1.00  0.00     0.168 HD
HETATM   43  O4  UNL     1      20.450  24.007  19.787  1.00  0.00    -0.273 OA
BRANCH  41  44
HETATM   44  C2  UNL     1      21.463  27.131  19.115  1.00  0.00     0.168 C
HETATM   45  C1  UNL     1      21.846  27.199  20.555  1.00  0.00     0.098 C
HETATM   46  O1  UNL     1      20.610  27.968  18.683  1.00  0.00    -0.292 OA
ENDBRANCH  41  44
BRANCH  41  47
HETATM   47  C4  UNL     1      23.275  26.550  17.463  1.00  0.00     0.071 C
BRANCH  47  48
HETATM   48  C5  UNL     1      23.052  26.915  16.033  1.00  0.00     0.119 C
BRANCH  48  49
HETATM   49  C6  UNL     1      22.847  28.393  15.883  1.00  0.00     0.172 C
HETATM   50  O2  UNL     1      23.782  29.217  15.988  1.00  0.00    -0.648 OA
HETATM   51  O3  UNL     1      21.572  28.848  15.617  1.00  0.00    -0.648 OA
ENDBRANCH  48  49
ENDBRANCH  47  48
ENDBRANCH  41  47
ENDBRANCH   1  39
TORSDOF 15
ENDMDL