MODEL 3
REMARK VINA RESULT: -8.652725304      2.880      9.273
REMARK  17 active torsions:
REMARK  status: ('A' for Active; 'I' for Inactive)
REMARK    1  A    between atoms: C2_2  and  C4_4
REMARK    2  A    between atoms: C4_4  and  C26_38
REMARK       I    between atoms: N1_5  and  C5_7
REMARK    3  A    between atoms: C5_7  and  C6_9
REMARK    4  A    between atoms: C6_9  and  N2_10
REMARK    5  A    between atoms: C8_13  and  C9_14
REMARK    6  A    between atoms: C9_14  and  C10_15
REMARK    7  A    between atoms: C10_15  and  C11_16
REMARK    8  A    between atoms: C13_20  and  C14_21
REMARK    9  A    between atoms: C14_21  and  N4_22
REMARK       I    between atoms: N5_25  and  C17_26
REMARK   10  A    between atoms: C17_26  and  O4_28
REMARK   11  A    between atoms: O4_28  and  C18_29
REMARK   12  A    between atoms: C18_29  and  C19_30
REMARK   13  A    between atoms: C19_30  and  C20_31
REMARK   14  A    between atoms: C20_31  and  C21_32
REMARK   15  A    between atoms: C26_38  and  C27_40
REMARK   16  A    between atoms: C27_40  and  O7_41
REMARK   17  A    between atoms: C27_40  and  N6_43
ROOT
HETATM    1  N2  UNL     1      16.525  21.457  17.193  1.00  0.00    -0.276 N
HETATM    2  C7  UNL     1      16.179  20.904  18.473  1.00  0.00     0.249 C
HETATM    3  O2  UNL     1      17.126  20.523  19.210  1.00  0.00    -0.271 OA
HETATM    4  C8  UNL     1      14.777  20.793  18.901  1.00  0.00     0.170 C
HETATM    5  N3  UNL     1      13.980  21.786  18.316  1.00  0.00    -0.396 N
ATOM      6  H3  UNL     1      13.378  22.390  18.876  1.00  0.00     0.155 HD
HETATM    7  C13 UNL     1      14.052  21.908  16.909  1.00  0.00     0.199 C
HETATM    8  C25 UNL     1      15.519  22.181  16.508  1.00  0.00     0.251 C
HETATM    9  O5  UNL     1      15.796  23.006  15.619  1.00  0.00    -0.271 OA
ENDROOT
BRANCH   1  10
HETATM   10  C6  UNL     1      17.866  21.305  16.699  1.00  0.00     0.238 C
BRANCH  10  11
HETATM   11  C5  UNL     1      18.699  22.449  16.964  1.00  0.00     0.240 C
HETATM   12  N1  UNL     1      18.940  23.498  16.009  1.00  0.00    -0.322 N
HETATM   13  C4  UNL     1      19.696  24.606  16.234  1.00  0.00     0.095 C
ATOM     14  H1  UNL     1      18.509  23.404  15.090  1.00  0.00     0.169 HD
HETATM   15  O1  UNL     1      19.252  22.535  18.112  1.00  0.00    -0.271 OA
BRANCH  13  16
HETATM   16  C2  UNL     1      18.266  25.566  15.913  1.00  0.00    -0.040 C
HETATM   17  C1  UNL     1      17.520  25.655  16.917  1.00  0.00     0.021 C
HETATM   18  C3  UNL     1      18.181  26.032  14.558  1.00  0.00     0.050 C
ENDBRANCH  13  16
BRANCH  13  19
HETATM   19  C26 UNL     1      20.490  25.751  16.481  1.00  0.00     0.249 C
HETATM   20  O6  UNL     1      21.038  26.435  15.613  1.00  0.00    -0.281 OA
BRANCH  19  21
HETATM   21  C27 UNL     1      20.719  26.222  17.862  1.00  0.00     0.192 C
BRANCH  21  22
HETATM   22  O7  UNL     1      20.352  27.468  18.068  1.00  0.00    -0.343 OA
ATOM     23  H7  UNL     1      21.049  28.101  17.940  1.00  0.00     0.219 HD
ENDBRANCH  21  22
BRANCH  21  24
HETATM   24  N6  UNL     1      21.230  25.590  18.971  1.00  0.00    -0.359 N
HETATM   25  C28 UNL     1      22.675  25.442  19.076  1.00  0.00     0.125 C
HETATM   26  C29 UNL     1      23.245  25.663  20.409  1.00  0.00     0.020 C
HETATM   27  C30 UNL     1      22.296  25.518  21.588  1.00  0.00     0.003 C
HETATM   28  C31 UNL     1      20.886  25.821  21.288  1.00  0.00     0.020 C
HETATM   29  C32 UNL     1      20.465  25.013  20.043  1.00  0.00     0.125 C
ENDBRANCH  21  24
ENDBRANCH  19  21
ENDBRANCH  13  19
ENDBRANCH  10  11
ENDBRANCH   1  10
BRANCH   4  30
HETATM   30  C9  UNL     1      14.678  20.834  20.420  1.00  0.00     0.034 C
BRANCH  30  31
HETATM   31  C10 UNL     1      14.388  19.503  21.024  1.00  0.00     0.002 C
BRANCH  31  32
HETATM   32  C11 UNL     1      13.506  18.741  20.028  1.00  0.00    -0.004 C
HETATM   33  C12 UNL     1      12.529  17.926  20.849  1.00  0.00     0.005 C
ENDBRANCH  31  32
ENDBRANCH  30  31
ENDBRANCH   4  30
BRANCH   7  34
HETATM   34  C14 UNL     1      13.667  20.626  16.178  1.00  0.00     0.306 C
BRANCH  34  35
HETATM   35  N4  UNL     1      13.276  20.976  14.806  1.00  0.00     0.094 N
HETATM   36  C15 UNL     1      13.758  20.042  13.835  1.00  0.00     0.292 C
HETATM   37  C16 UNL     1      12.809  19.057  13.262  1.00  0.00     0.158 C
HETATM   38  N5  UNL     1      11.565  18.885  13.935  1.00  0.00    -0.325 N
HETATM   39  C17 UNL     1      10.620  17.964  13.443  1.00  0.00     0.362 C
HETATM   40  C23 UNL     1      11.198  19.714  15.082  1.00  0.00     0.158 C
HETATM   41  O3  UNL     1       9.585  17.675  14.089  1.00  0.00    -0.238 OA
HETATM   42  C24 UNL     1      11.819  21.077  14.757  1.00  0.00     0.292 C
BRANCH  39  43
HETATM   43  O4  UNL     1      10.813  17.353  12.242  1.00  0.00    -0.304 OA
BRANCH  43  44
HETATM   44  C18 UNL     1      10.751  15.956  12.032  1.00  0.00     0.180 C
BRANCH  44  45
HETATM   45  C19 UNL     1      12.138  15.418  12.390  1.00  0.00     0.027 C
BRANCH  45  46
HETATM   46  C20 UNL     1      13.049  15.801  11.204  1.00  0.00     0.002 C
BRANCH  46  47
HETATM   47  C21 UNL     1      14.481  15.721  11.595  1.00  0.00    -0.004 C
HETATM   48  C22 UNL     1      15.423  15.318  10.493  1.00  0.00     0.005 C
ENDBRANCH  46  47
ENDBRANCH  45  46
ENDBRANCH  44  45
ENDBRANCH  43  44
ENDBRANCH  39  43
ENDBRANCH  34  35
ENDBRANCH   7  34
TORSDOF 17
ENDMDL