MODEL 2
REMARK VINA RESULT: -9.360728820      2.155      9.599
REMARK  18 active torsions:
REMARK  status: ('A' for Active; 'I' for Inactive)
REMARK    1  A    between atoms: C2_2  and  C3_3
REMARK    2  A    between atoms: C3_3  and  C4_4
REMARK    3  A    between atoms: C4_4  and  N1_5
REMARK    4  A    between atoms: C4_4  and  C19_28
REMARK    5  A    between atoms: N1_5  and  C5_7
REMARK    6  A    between atoms: C5_7  and  O1_8
REMARK    7  A    between atoms: C5_7  and  C6_10
REMARK    8  A    between atoms: N2_15  and  C11_16
REMARK    9  A    between atoms: C11_16  and  O2_18
REMARK   10  A    between atoms: C11_16  and  C13_20
REMARK   11  A    between atoms: C13_20  and  C14_22
REMARK   12  A    between atoms: C14_22  and  C15_24
REMARK   13  A    between atoms: C19_28  and  C20_30
REMARK       I    between atoms: C20_30  and  N3_32
REMARK   14  A    between atoms: N3_32  and  C21_33
REMARK   15  A    between atoms: C21_33  and  C22_34
REMARK   16  A    between atoms: C22_34  and  N4_35
REMARK   17  A    between atoms: N5_38  and  C25_39
REMARK   18  A    between atoms: C25_39  and  C26_40
ROOT
HETATM    1  C4  UNL     1      17.318  25.084  15.896  1.00  0.00     0.068 C
ENDROOT
BRANCH   1   2
HETATM    2  C3  UNL     1      17.908  25.881  14.795  1.00  0.00     0.061 C
BRANCH   2   3
HETATM    3  C2  UNL     1      19.364  26.164  14.766  1.00  0.00     0.002 C
HETATM    4  C1  UNL     1      19.730  27.572  14.529  1.00  0.00     0.005 C
ENDBRANCH   2   3
ENDBRANCH   1   2
BRANCH   1   5
HETATM    5  N1  UNL     1      17.418  25.490  17.252  1.00  0.00    -0.339 N
ATOM      6  H1  UNL     1      17.943  26.335  17.479  1.00  0.00     0.167 HD
BRANCH   5   7
HETATM    7  C5  UNL     1      16.798  24.741  18.320  1.00  0.00     0.139 C
BRANCH   7   8
HETATM    8  O1  UNL     1      15.546  25.117  18.524  1.00  0.00    -0.348 OA
ATOM      9  H1  UNL     1      15.205  24.782  19.345  1.00  0.00     0.219 HD
ENDBRANCH   7   8
BRANCH   7  10
HETATM   10  C6  UNL     1      17.235  23.709  19.172  1.00  0.00     0.161 C
HETATM   11  C7  UNL     1      16.087  22.632  19.148  1.00  0.00     0.034 C
HETATM   12  C8  UNL     1      16.175  21.800  20.392  1.00  0.00     0.007 C
HETATM   13  C9  UNL     1      17.482  21.052  20.367  1.00  0.00     0.044 C
HETATM   14  C10 UNL     1      18.409  21.580  19.300  1.00  0.00     0.062 C
HETATM   15  N2  UNL     1      18.424  22.981  19.178  1.00  0.00    -0.344 N
BRANCH  15  16
HETATM   16  C11 UNL     1      19.602  23.653  19.662  1.00  0.00     0.200 C
HETATM   17  C12 UNL     1      19.361  24.470  20.880  1.00  0.00     0.080 C
BRANCH  16  18
HETATM   18  O2  UNL     1      20.431  22.548  20.203  1.00  0.00    -0.364 OA
ATOM     19  H2  UNL     1      20.410  22.695  21.141  1.00  0.00     0.213 HD
ENDBRANCH  16  18
BRANCH  16  20
HETATM   20  C13 UNL     1      20.485  24.274  18.697  1.00  0.00     0.250 C
HETATM   21  O3  UNL     1      20.302  24.183  17.441  1.00  0.00    -0.284 OA
BRANCH  20  22
HETATM   22  C14 UNL     1      21.657  25.052  19.093  1.00  0.00     0.207 C
HETATM   23  O4  UNL     1      22.635  24.430  19.615  1.00  0.00    -0.288 OA
BRANCH  22  24
HETATM   24  C15 UNL     1      21.838  26.505  18.956  1.00  0.00     0.018 C
HETATM   25  C16 UNL     1      20.760  27.162  18.152  1.00  0.00     0.023 C
HETATM   26  C17 UNL     1      21.939  27.092  20.344  1.00  0.00     0.023 C
HETATM   27  C18 UNL     1      23.136  26.794  18.171  1.00  0.00     0.023 C
ENDBRANCH  22  24
ENDBRANCH  20  22
ENDBRANCH  16  20
ENDBRANCH  15  16
ENDBRANCH   7  10
ENDBRANCH   5   7
ENDBRANCH   1   5
BRANCH   1  28
HETATM   28  C19 UNL     1      16.347  24.084  15.466  1.00  0.00     0.276 C
HETATM   29  O5  UNL     1      15.134  24.368  15.455  1.00  0.00    -0.279 OA
BRANCH  28  30
HETATM   30  C20 UNL     1      16.682  22.697  15.040  1.00  0.00     0.367 C
HETATM   31  O6  UNL     1      17.698  22.247  15.638  1.00  0.00    -0.247 OA
HETATM   32  N3  UNL     1      15.970  21.956  14.111  1.00  0.00    -0.379 NA
BRANCH  32  33
HETATM   33  C21 UNL     1      15.278  21.230  13.206  1.00  0.00     0.189 C
BRANCH  33  34
HETATM   34  C22 UNL     1      13.866  21.611  12.823  1.00  0.00     0.331 C
BRANCH  34  35
HETATM   35  N4  UNL     1      12.851  20.718  13.296  1.00  0.00     0.097 N
HETATM   36  C23 UNL     1      12.058  21.462  14.248  1.00  0.00     0.303 C
HETATM   37  C24 UNL     1      12.740  21.794  15.547  1.00  0.00     0.302 C
HETATM   38  N5  UNL     1      13.502  20.658  16.062  1.00  0.00     0.092 N
HETATM   39  C32 UNL     1      12.938  19.495  15.385  1.00  0.00     0.302 C
HETATM   40  C33 UNL     1      13.402  19.559  13.961  1.00  0.00     0.303 C
BRANCH  38  41
HETATM   41  C25 UNL     1      13.316  20.593  17.498  1.00  0.00     0.277 C
BRANCH  41  42
HETATM   42  C26 UNL     1      13.160  19.195  18.023  1.00  0.00     0.014 C
HETATM   43  C27 UNL     1      11.852  19.043  18.785  1.00  0.00     0.006 C
HETATM   44  C28 UNL     1      11.873  17.820  19.646  1.00  0.00     0.000 C
HETATM   45  C29 UNL     1      12.987  17.829  20.660  1.00  0.00     0.000 C
HETATM   46  C30 UNL     1      13.896  18.992  20.357  1.00  0.00     0.000 C
HETATM   47  C31 UNL     1      14.333  18.834  18.914  1.00  0.00     0.006 C
ENDBRANCH  41  42
ENDBRANCH  38  41
ENDBRANCH  34  35
ENDBRANCH  33  34
ENDBRANCH  32  33
ENDBRANCH  28  30
ENDBRANCH   1  28
TORSDOF 18
ENDMDL