MODEL 4
REMARK VINA RESULT: -8.884740618      2.200     10.436
REMARK  17 active torsions:
REMARK  status: ('A' for Active; 'I' for Inactive)
REMARK    1  A    between atoms: C2_2  and  C3_3
REMARK    2  A    between atoms: C5_5  and  C6_6
REMARK    3  A    between atoms: C6_6  and  O1_7
REMARK    4  A    between atoms: C6_6  and  N1_9
REMARK    5  A    between atoms: N1_9  and  C7_10
REMARK    6  A    between atoms: C7_10  and  C8_11
REMARK    7  A    between atoms: C8_11  and  N2_12
REMARK    8  A    between atoms: N2_12  and  C9_13
REMARK    9  A    between atoms: N2_12  and  C11_15
REMARK   10  A    between atoms: C13_17  and  C14_18
REMARK   11  A    between atoms: N6_26  and  C16_27
REMARK   12  A    between atoms: C16_27  and  C17_28
REMARK       I    between atoms: C17_28  and  N7_30
REMARK       I    between atoms: N8_33  and  C20_34
REMARK   13  A    between atoms: C20_34  and  C21_36
REMARK   14  A    between atoms: C21_36  and  C22_37
REMARK   15  A    between atoms: C22_37  and  C23_38
REMARK   16  A    between atoms: C23_38  and  C24_39
REMARK   17  A    between atoms: C24_39  and  N9_40
ROOT
HETATM    1  C3  UNL     1      15.792  21.886  18.691  1.00  0.00     0.048 A
HETATM    2  C4  UNL     1      14.941  20.849  19.141  1.00  0.00     0.052 A
HETATM    3  C5  UNL     1      13.945  20.040  18.812  1.00  0.00     0.077 A
HETATM    4  C13 UNL     1      13.646  19.341  19.993  1.00  0.00     0.116 A
HETATM    5  N4  UNL     1      14.438  19.707  20.972  1.00  0.00    -0.336 N
ATOM      6  H4  UNL     1      14.429  19.343  21.925  1.00  0.00     0.168 HD
HETATM    7  C15 UNL     1      15.272  20.657  20.484  1.00  0.00     0.134 A
HETATM    8  N5  UNL     1      16.235  21.509  20.758  1.00  0.00    -0.278 N
ATOM      9  H5  UNL     1      16.678  21.582  21.675  1.00  0.00     0.189 HD
HETATM   10  N6  UNL     1      16.564  22.246  19.746  1.00  0.00    -0.264 N
ENDROOT
BRANCH  10  11
HETATM   11  C16 UNL     1      17.438  23.366  19.771  1.00  0.00     0.190 C
BRANCH  11  12
HETATM   12  C17 UNL     1      18.844  23.212  19.577  1.00  0.00     0.261 C
HETATM   13  O3  UNL     1      19.207  22.410  18.635  1.00  0.00    -0.267 OA
HETATM   14  N7  UNL     1      19.948  23.820  20.253  1.00  0.00    -0.344 N
HETATM   15  C18 UNL     1      21.290  23.373  19.779  1.00  0.00     0.146 C
HETATM   16  C32 UNL     1      19.855  24.794  21.281  1.00  0.00     0.146 C
HETATM   17  C19 UNL     1      22.396  24.023  20.492  1.00  0.00     0.145 C
HETATM   18  N8  UNL     1      22.059  25.437  20.495  1.00  0.00    -0.349 N
HETATM   19  C20 UNL     1      22.471  26.393  19.567  1.00  0.00     0.219 C
HETATM   20  C31 UNL     1      21.005  25.753  21.506  1.00  0.00     0.145 C
HETATM   21  O4  UNL     1      22.344  27.627  19.936  1.00  0.00    -0.273 OA
BRANCH  19  22
HETATM   22  C21 UNL     1      23.005  26.097  18.250  1.00  0.00     0.103 C
BRANCH  22  23
HETATM   23  C22 UNL     1      22.990  27.257  17.249  1.00  0.00     0.011 C
BRANCH  23  24
HETATM   24  C23 UNL     1      22.236  26.893  15.982  1.00  0.00     0.020 C
BRANCH  24  25
HETATM   25  C24 UNL     1      20.804  27.342  16.125  1.00  0.00     0.117 C
BRANCH  25  26
HETATM   26  N9  UNL     1      19.860  26.403  15.631  1.00  0.00    -0.408 N
HETATM   27  C25 UNL     1      19.524  26.440  14.250  1.00  0.00     0.117 C
HETATM   28  C26 UNL     1      17.991  26.523  14.188  1.00  0.00     0.019 C
HETATM   29  C27 UNL     1      17.398  25.346  14.951  1.00  0.00     0.004 C
HETATM   30  C28 UNL     1      17.842  25.447  16.380  1.00  0.00     0.024 C
HETATM   31  C29 UNL     1      19.393  25.278  16.339  1.00  0.00     0.075 C
HETATM   32  C30 UNL     1      19.664  23.929  15.732  1.00  0.00     0.032 C
ENDBRANCH  25  26
ENDBRANCH  24  25
ENDBRANCH  23  24
ENDBRANCH  22  23
ENDBRANCH  19  22
ENDBRANCH  11  12
ENDBRANCH  10  11
BRANCH   1  33
HETATM   33  C2  UNL     1      15.721  22.405  17.303  1.00  0.00     0.056 C
HETATM   34  C1  UNL     1      16.622  21.760  16.325  1.00  0.00     0.011 C
ENDBRANCH   1  33
BRANCH   3  35
HETATM   35  C6  UNL     1      13.203  19.780  17.586  1.00  0.00     0.222 C
BRANCH  35  36
HETATM   36  O1  UNL     1      14.029  19.431  16.601  1.00  0.00    -0.335 OA
ATOM     37  H1  UNL     1      13.566  19.392  15.773  1.00  0.00     0.220 HD
ENDBRANCH  35  36
BRANCH  35  38
HETATM   38  N1  UNL     1      11.881  19.846  17.403  1.00  0.00    -0.422 NA
BRANCH  38  39
HETATM   39  C7  UNL     1      10.490  19.916  17.208  1.00  0.00     0.251 C
BRANCH  39  40
HETATM   40  C8  UNL     1      10.292  19.756  15.662  1.00  0.00     0.305 C
BRANCH  40  41
HETATM   41  N2  UNL     1      10.461  20.924  14.919  1.00  0.00     0.090 N
BRANCH  41  42
HETATM   42  C9  UNL     1       9.458  20.758  13.828  1.00  0.00     0.268 C
HETATM   43  C10 UNL     1       8.753  22.051  13.538  1.00  0.00     0.037 C
ENDBRANCH  41  42
BRANCH  41  44
HETATM   44  C11 UNL     1      11.753  20.875  14.185  1.00  0.00     0.268 C
HETATM   45  C12 UNL     1      12.518  22.107  14.532  1.00  0.00     0.037 C
ENDBRANCH  41  44
ENDBRANCH  40  41
ENDBRANCH  39  40
ENDBRANCH  38  39
ENDBRANCH  35  38
ENDBRANCH   3  35
BRANCH   4  46
HETATM   46  C14 UNL     1      12.447  18.491  20.135  1.00  0.00     0.282 C
HETATM   47  N3  UNL     1      12.686  17.139  19.617  1.00  0.00    -0.056 NA
HETATM   48  O2  UNL     1      11.360  18.758  20.592  1.00  0.00    -0.269 OA
ENDBRANCH   4  46
TORSDOF 17
ENDMDL