MODEL 4
REMARK VINA RESULT: -8.979201136      2.321      6.823
REMARK  15 active torsions:
REMARK  status: ('A' for Active; 'I' for Inactive)
REMARK    1  A    between atoms: C2_2  and  C3_3
REMARK    2  A    between atoms: C3_3  and  C4_4
REMARK    3  A    between atoms: C4_4  and  N1_5
REMARK    4  A    between atoms: N1_5  and  C5_7
REMARK    5  A    between atoms: N2_10  and  C8_11
REMARK    6  A    between atoms: C8_11  and  C9_12
REMARK    7  A    between atoms: C9_12  and  C10_13
REMARK    8  A    between atoms: C10_13  and  C11_14
REMARK    9  A    between atoms: C11_14  and  N3_15
REMARK       I    between atoms: N4_21  and  C17_22
REMARK   10  A    between atoms: C17_22  and  C18_24
REMARK   11  A    between atoms: C18_24  and  C19_25
REMARK   12  A    between atoms: C19_25  and  C20_26
REMARK       I    between atoms: N5_33  and  C25_35
REMARK   13  A    between atoms: C25_35  and  C26_37
REMARK   14  A    between atoms: C26_37  and  C27_39
REMARK   15  A    between atoms: C27_39  and  C28_40
ROOT
HETATM    1  C9  UNL     1      18.447  23.071  17.055  1.00  0.00     0.013 C
HETATM    2  N5  UNL     1      18.655  24.296  17.298  1.00  0.00    -0.326 N
ATOM      3  H5  UNL     1      19.007  24.532  18.227  1.00  0.00     0.168 HD
HETATM    4  C25 UNL     1      18.445  25.371  16.397  1.00  0.00     0.291 C
HETATM    5  O4  UNL     1      17.463  26.118  16.565  1.00  0.00    -0.264 OA
ENDROOT
BRANCH   1   6
HETATM    6  C8  UNL     1      18.721  22.051  18.098  1.00  0.00     0.186 C
BRANCH   6   7
HETATM    7  N2  UNL     1      17.519  21.551  18.693  1.00  0.00    -0.304 N
HETATM    8  C7  UNL     1      16.997  20.375  18.311  1.00  0.00     0.100 A
HETATM    9  C6  UNL     1      15.841  19.842  18.863  1.00  0.00     0.065 A
HETATM   10  C5  UNL     1      15.206  20.559  19.847  1.00  0.00     0.106 A
HETATM   11  N6  UNL     1      15.743  21.754  20.230  1.00  0.00    -0.294 N
HETATM   12  C32 UNL     1      16.875  22.220  19.651  1.00  0.00     0.328 A
ATOM     13  H6  UNL     1      15.287  22.302  20.960  1.00  0.00     0.172 HD
HETATM   14  O6  UNL     1      17.308  23.329  20.057  1.00  0.00    -0.246 OA
BRANCH  10  15
HETATM   15  N1  UNL     1      14.136  20.169  20.434  1.00  0.00    -0.376 N
ATOM     16  H1  UNL     1      13.470  20.875  20.748  1.00  0.00     0.161 HD
BRANCH  15  17
HETATM   17  C4  UNL     1      13.828  18.787  20.672  1.00  0.00     0.121 C
BRANCH  17  18
HETATM   18  C3  UNL     1      12.334  18.561  20.520  1.00  0.00     0.019 C
BRANCH  18  19
HETATM   19  C2  UNL     1      11.978  17.110  20.470  1.00  0.00    -0.003 C
HETATM   20  C1  UNL     1      11.678  16.587  19.102  1.00  0.00     0.005 C
ENDBRANCH  18  19
ENDBRANCH  17  18
ENDBRANCH  15  17
ENDBRANCH  10  15
ENDBRANCH   6   7
ENDBRANCH   1   6
BRANCH   1  21
HETATM   21  C10 UNL     1      17.885  22.617  15.763  1.00  0.00     0.098 C
BRANCH  21  22
HETATM   22  C11 UNL     1      16.480  23.166  15.667  1.00  0.00     0.064 C
BRANCH  22  23
HETATM   23  N3  UNL     1      15.545  22.212  16.112  1.00  0.00    -0.392 N
HETATM   24  C12 UNL     1      14.340  22.692  16.711  1.00  0.00     0.124 C
HETATM   25  C13 UNL     1      13.342  23.047  15.656  1.00  0.00     0.052 C
HETATM   26  C14 UNL     1      13.023  21.792  14.860  1.00  0.00     0.046 C
HETATM   27  C15 UNL     1      12.123  22.186  13.702  1.00  0.00     0.052 C
HETATM   28  N4  UNL     1      11.969  20.996  15.390  1.00  0.00    -0.342 N
HETATM   29  C21 UNL     1      14.245  21.140  14.321  1.00  0.00    -0.006 C
HETATM   30  C16 UNL     1      11.007  21.680  14.531  1.00  0.00     0.129 C
HETATM   31  C17 UNL     1      11.739  19.956  16.354  1.00  0.00     0.221 C
HETATM   32  O1  UNL     1      12.644  19.458  17.067  1.00  0.00    -0.273 OA
HETATM   33  C22 UNL     1      13.997  19.781  13.729  1.00  0.00     0.019 C
HETATM   34  C23 UNL     1      14.701  22.013  13.132  1.00  0.00     0.019 C
HETATM   35  C24 UNL     1      15.385  21.055  15.288  1.00  0.00     0.133 C
BRANCH  31  36
HETATM   36  C18 UNL     1      10.375  19.412  16.548  1.00  0.00     0.113 C
BRANCH  36  37
HETATM   37  C19 UNL     1      10.186  18.010  16.102  1.00  0.00     0.122 C
BRANCH  37  38
HETATM   38  C20 UNL     1      10.358  17.913  14.643  1.00  0.00     0.172 C
HETATM   39  O2  UNL     1      11.259  17.207  14.161  1.00  0.00    -0.648 OA
HETATM   40  O3  UNL     1       9.493  18.623  13.840  1.00  0.00    -0.648 OA
ENDBRANCH  37  38
ENDBRANCH  36  37
ENDBRANCH  31  36
ENDBRANCH  22  23
ENDBRANCH  21  22
ENDBRANCH   1  21
BRANCH   4  41
HETATM   41  C26 UNL     1      19.373  25.574  15.306  1.00  0.00     0.217 C
HETATM   42  O5  UNL     1      20.270  24.741  15.100  1.00  0.00    -0.287 OA
BRANCH  41  43
HETATM   43  C27 UNL     1      19.226  26.765  14.467  1.00  0.00     0.093 C
BRANCH  43  44
HETATM   44  C28 UNL     1      20.180  27.876  14.674  1.00  0.00    -0.007 C
HETATM   45  C29 UNL     1      21.439  27.852  13.807  1.00  0.00     0.005 C
HETATM   46  C30 UNL     1      22.156  28.486  14.984  1.00  0.00     0.001 C
HETATM   47  C31 UNL     1      21.034  27.952  15.879  1.00  0.00     0.005 C
ENDBRANCH  43  44
ENDBRANCH  41  43
ENDBRANCH   4  41
TORSDOF 15
ENDMDL