MODEL 4
REMARK VINA RESULT: -7.100666618      0.763      1.024
REMARK  6 active torsions:
REMARK  status: ('A' for Active; 'I' for Inactive)
REMARK    1  A    between atoms: C2_2  and  O1_5
REMARK    2  A    between atoms: O1_5  and  C4_6
REMARK    3  A    between atoms: C4_6  and  N2_10
REMARK    4  A    between atoms: N3_12  and  C5_14
REMARK    5  A    between atoms: C6_15  and  N4_16
REMARK    6  A    between atoms: C10_22  and  N5_23
ROOT
HETATM    1  N2  UNL     1       5.966  10.948  45.787  1.00  0.00    -0.265 N
ATOM      2  H2  UNL     1       4.997  10.639  45.862  1.00  0.00     0.190 HD
HETATM    3  N3  UNL     1       6.234  12.138  45.433  1.00  0.00    -0.293 N
ATOM      4  H3  UNL     1       7.212  12.420  45.367  1.00  0.00     0.187 HD
ENDROOT
BRANCH   3   5
HETATM    5  C5  UNL     1       5.227  13.091  45.125  1.00  0.00     0.114 A
HETATM    6  C6  UNL     1       4.756  13.922  46.131  1.00  0.00     0.133 A
HETATM    7  C7  UNL     1       3.776  14.837  45.794  1.00  0.00     0.038 A
HETATM    8  C8  UNL     1       3.268  14.941  44.517  1.00  0.00     0.005 A
HETATM    9  C9  UNL     1       3.754  14.103  43.535  1.00  0.00     0.038 A
HETATM   10  C10 UNL     1       4.745  13.171  43.857  1.00  0.00     0.133 A
BRANCH   6  11
HETATM   11  N4  UNL     1       5.287  13.804  47.436  1.00  0.00    -0.113 N
HETATM   12  O2  UNL     1       5.998  14.687  47.933  1.00  0.00    -0.532 OA
HETATM   13  O3  UNL     1       4.998  12.681  48.160  1.00  0.00    -0.532 OA
ENDBRANCH   6  11
BRANCH  10  14
HETATM   14  N5  UNL     1       5.183  12.355  42.778  1.00  0.00    -0.113 N
HETATM   15  O4  UNL     1       5.321  12.817  41.647  1.00  0.00    -0.532 OA
HETATM   16  O5  UNL     1       5.465  11.009  42.985  1.00  0.00    -0.532 OA
ENDBRANCH  10  14
ENDBRANCH   3   5
BRANCH   1  17
HETATM   17  C4  UNL     1       7.030  10.054  46.078  1.00  0.00     0.234 C
HETATM   18  N1  UNL     1       7.157   9.657  47.298  1.00  0.00    -0.364 N
ATOM     19  H12 UNL     1       7.922   9.014  47.507  1.00  0.00     0.159 HD
ATOM     20  H11 UNL     1       6.500   9.994  48.002  1.00  0.00     0.159 HD
BRANCH  17  21
HETATM   21  O1  UNL     1       7.922   9.596  45.125  1.00  0.00    -0.279 OA
BRANCH  21  22
HETATM   22  C2  UNL     1       7.654   8.355  44.470  1.00  0.00     0.206 C
HETATM   23  C1  UNL     1       8.542   7.265  45.008  1.00  0.00     0.084 C
HETATM   24  C3  UNL     1       6.181   7.990  44.670  1.00  0.00     0.084 C
HETATM   25  F1  UNL     1       7.925   8.551  43.132  1.00  0.00    -0.212 F
ENDBRANCH  21  22
ENDBRANCH  17  21
ENDBRANCH   1  17
TORSDOF 6
ENDMDL