MODEL 5
REMARK VINA RESULT: -5.366303194      2.574      3.204
REMARK  5 active torsions:
REMARK  status: ('A' for Active; 'I' for Inactive)
REMARK    1  A    between atoms: C2_2  and  S1_3
REMARK    2  A    between atoms: S1_3  and  C3_4
REMARK    3  A    between atoms: C3_4  and  N2_8
REMARK    4  A    between atoms: N2_8  and  C4_10
REMARK    5  A    between atoms: C4_10  and  N3_11
ROOT
HETATM    1  N3  UNL     1       6.761   9.987  43.255  1.00  0.00    -0.305 N
HETATM    2  C5  UNL     1       7.753   9.313  43.818  1.00  0.00     0.125 A
HETATM    3  C6  UNL     1       7.911   9.114  45.280  1.00  0.00     0.118 C
HETATM    4  N4  UNL     1       8.016   8.969  46.429  1.00  0.00    -0.190 NA
HETATM    5  C7  UNL     1       8.688   8.768  42.984  1.00  0.00     0.094 A
HETATM    6  S2  UNL     1       8.128   9.231  41.440  1.00  0.00    -0.069 SA
HETATM    7  C8  UNL     1       6.740  10.089  41.933  1.00  0.00     0.147 A
HETATM    8  S3  UNL     1       5.613  10.875  40.991  1.00  0.00    -0.052 SA
ENDROOT
BRANCH   1   9
HETATM    9  C4  UNL     1       5.674  10.630  44.046  1.00  0.00     0.277 C
BRANCH   9  10
HETATM   10  N2  UNL     1       6.191  11.763  44.763  1.00  0.00    -0.251 N
HETATM   11 CL1  UNL     1       7.443  12.737  44.025  1.00  0.00     0.017 Cl
BRANCH  10  12
HETATM   12  C3  UNL     1       5.761  12.163  46.046  1.00  0.00     0.152 C
HETATM   13  N1  UNL     1       5.756  11.302  47.006  1.00  0.00    -0.379 N
ATOM     14  H12 UNL     1       5.445  11.591  47.935  1.00  0.00     0.158 HD
ATOM     15  H11 UNL     1       6.059  10.342  46.839  1.00  0.00     0.158 HD
BRANCH  12  16
HETATM   16  S1  UNL     1       5.226  13.854  46.341  1.00  0.00    -0.094 SA
BRANCH  16  17
HETATM   17  C2  UNL     1       3.482  14.033  45.950  1.00  0.00     0.078 C
HETATM   18  C1  UNL     1       3.381  14.931  44.715  1.00  0.00     0.016 C
ENDBRANCH  16  17
ENDBRANCH  12  16
ENDBRANCH  10  12
ENDBRANCH   9  10
ENDBRANCH   1   9
TORSDOF 5
ENDMDL