MODEL 5
REMARK VINA RESULT: -5.604030362      4.334      5.650
REMARK  4 active torsions:
REMARK  status: ('A' for Active; 'I' for Inactive)
REMARK    1  A    between atoms: C2_2  and  C3_3
REMARK    2  A    between atoms: N1_4  and  C4_6
REMARK    3  A    between atoms: C9_16  and  N4_17
REMARK    4  A    between atoms: N4_17  and  O1_19
ROOT
HETATM    1  C4  UNL     1       5.524  11.488  43.994  1.00  0.00     0.097 A
HETATM    2  C5  UNL     1       5.677  11.451  42.626  1.00  0.00     0.111 A
HETATM    3  S1  UNL     1       6.556  10.074  41.903  1.00  0.00    -0.030 SA
HETATM    4  N2  UNL     1       5.181  12.421  41.846  1.00  0.00    -0.339 N
ATOM      5  H2  UNL     1       5.318  12.354  40.838  1.00  0.00     0.167 HD
HETATM    6  C6  UNL     1       4.508  13.485  42.337  1.00  0.00     0.134 A
HETATM    7  C7  UNL     1       3.992  14.505  41.465  1.00  0.00     0.119 C
HETATM    8  N3  UNL     1       3.565  15.311  40.757  1.00  0.00    -0.190 NA
HETATM    9  C8  UNL     1       4.340  13.548  43.718  1.00  0.00     0.079 A
HETATM   10 BR1  UNL     1       3.399  15.020  44.489  1.00  0.00    -0.045 Br
HETATM   11  C9  UNL     1       4.846  12.552  44.551  1.00  0.00     0.104 A
ENDROOT
BRANCH  11  12
HETATM   12  N4  UNL     1       4.690  12.587  45.966  1.00  0.00    -0.266 N
ATOM     13  H4  UNL     1       3.859  12.213  46.424  1.00  0.00     0.194 HD
BRANCH  12  14
HETATM   14  O1  UNL     1       5.627  13.101  46.616  1.00  0.00    -0.289 OA
ATOM     15  H1  UNL     1       5.601  14.044  46.720  1.00  0.00     0.244 HD
ENDBRANCH  12  14
ENDBRANCH  11  12
BRANCH   1  16
HETATM   16  N1  UNL     1       6.033  10.489  44.827  1.00  0.00    -0.362 N
HETATM   17  C3  UNL     1       7.188  10.478  45.366  1.00  0.00     0.088 C
ATOM     18  H1  UNL     1       5.424   9.694  45.023  1.00  0.00     0.165 HD
BRANCH  17  19
HETATM   19  C2  UNL     1       7.574   9.360  46.213  1.00  0.00     0.007 C
HETATM   20  C1  UNL     1       7.929   8.215  45.654  1.00  0.00     0.012 C
ENDBRANCH  17  19
ENDBRANCH   1  16
TORSDOF 4
ENDMDL