MODEL 3
REMARK VINA RESULT: -8.071558301      0.056      1.429
REMARK  4 active torsions:
REMARK  status: ('A' for Active; 'I' for Inactive)
REMARK    1  A    between atoms: N1_1  and  N2_4
REMARK    2  A    between atoms: C2_6  and  N3_7
REMARK    3  A    between atoms: N4_9  and  C3_11
REMARK    4  A    between atoms: N5_20  and  C10_21
ROOT
HETATM    1  N2  UNL     1       8.387   7.120  44.674  1.00  0.00    -0.202 N
HETATM    2  C1  UNL     1       7.690   8.125  45.250  1.00  0.00     0.173 A
HETATM    3  C2  UNL     1       7.650   9.216  44.403  1.00  0.00     0.137 A
HETATM    4  C9  UNL     1       8.358   8.822  43.282  1.00  0.00     0.298 A
HETATM    5  O1  UNL     1       8.535   9.565  42.284  1.00  0.00    -0.264 OA
HETATM    6  N5  UNL     1       8.777   7.569  43.492  1.00  0.00    -0.198 N
ENDROOT
BRANCH   3   7
HETATM    7  N3  UNL     1       7.012  10.486  44.631  1.00  0.00    -0.294 N
HETATM    8  N4  UNL     1       6.055  10.782  43.884  1.00  0.00    -0.300 N
ATOM      9  H4  UNL     1       5.802  10.098  43.171  1.00  0.00     0.187 HD
ATOM     10  H3  UNL     1       7.327  11.116  45.369  1.00  0.00     0.187 HD
BRANCH   8  11
HETATM   11  C3  UNL     1       5.296  11.952  43.925  1.00  0.00     0.048 A
HETATM   12  C4  UNL     1       4.825  12.452  45.119  1.00  0.00     0.034 A
HETATM   13  C5  UNL     1       4.071  13.612  45.174  1.00  0.00     0.044 A
HETATM   14  C6  UNL     1       3.773  14.295  44.027  1.00  0.00     0.116 A
HETATM   15  F1  UNL     1       3.034  15.432  44.079  1.00  0.00    -0.206 F
HETATM   16  C7  UNL     1       4.243  13.798  42.830  1.00  0.00     0.044 A
HETATM   17  C8  UNL     1       5.001  12.633  42.766  1.00  0.00     0.034 A
ENDBRANCH   8  11
ENDBRANCH   3   7
BRANCH   1  18
HETATM   18  N1  UNL     1       8.634   5.861  45.243  1.00  0.00    -0.324 N
ATOM     19  H12 UNL     1       8.278   5.491  46.124  1.00  0.00     0.178 HD
ATOM     20  H11 UNL     1       9.216   5.128  44.839  1.00  0.00     0.178 HD
ENDBRANCH   1  18
BRANCH   6  21
HETATM   21  C10 UNL     1       9.549   6.787  42.572  1.00  0.00     0.062 A
HETATM   22  C11 UNL     1      10.916   6.871  42.550  1.00  0.00     0.032 A
HETATM   23  C12 UNL     1      11.684   6.117  41.661  1.00  0.00     0.002 A
HETATM   24  C13 UNL     1      11.054   5.279  40.794  1.00  0.00     0.000 A
HETATM   25  C14 UNL     1       9.682   5.164  40.782  1.00  0.00     0.002 A
HETATM   26  C15 UNL     1       8.941   5.922  41.673  1.00  0.00     0.032 A
ENDBRANCH   6  21
TORSDOF 4
ENDMDL