MODEL 5
REMARK VINA RESULT: -8.197894006      2.460      3.465
REMARK  4 active torsions:
REMARK  status: ('A' for Active; 'I' for Inactive)
REMARK    1  A    between atoms: C2_2  and  C3_3
REMARK    2  A    between atoms: C6_6  and  C7_7
REMARK    3  A    between atoms: C13_16  and  C14_17
REMARK    4  A    between atoms: N1_18  and  O3_20
ROOT
HETATM    1  C3  UNL     1       7.474   9.752  44.237  1.00  0.00     0.176 C
HETATM    2  C4  UNL     1       6.211   9.909  45.048  1.00  0.00     0.072 C
HETATM    3  C5  UNL     1       5.347  11.069  44.522  1.00  0.00     0.045 C
HETATM    4  C6  UNL     1       5.348  12.057  45.690  1.00  0.00     0.196 C
HETATM    5  O1  UNL     1       6.832  12.289  45.720  1.00  0.00    -0.225 OA
HETATM    6  O2  UNL     1       7.242  12.399  44.485  1.00  0.00    -0.165 OA
HETATM    7  C13 UNL     1       8.136  11.526  43.994  1.00  0.00     0.353 C
HETATM    8  O4  UNL     1       8.485  10.484  44.796  1.00  0.00    -0.289 OA
HETATM    9  O5  UNL     1       7.428  10.621  43.125  1.00  0.00    -0.289 OA
ENDROOT
BRANCH   4  10
HETATM   10  C7  UNL     1       4.705  13.302  45.509  1.00  0.00     0.012 A
HETATM   11  C8  UNL     1       3.938  13.757  44.449  1.00  0.00     0.013 A
HETATM   12  C9  UNL     1       3.475  15.045  44.309  1.00  0.00     0.001 A
HETATM   13  C10 UNL     1       3.781  15.982  45.287  1.00  0.00     0.003 A
HETATM   14  C11 UNL     1       4.530  15.597  46.352  1.00  0.00     0.043 A
HETATM   15  C12 UNL     1       4.983  14.319  46.473  1.00  0.00     0.125 A
HETATM   16  F1  UNL     1       5.695  14.003  47.558  1.00  0.00    -0.205 F
ENDBRANCH   4  10
BRANCH   1  17
HETATM   17  C2  UNL     1       7.797   8.348  43.833  1.00  0.00     0.064 C
HETATM   18  C1  UNL     1       6.617   7.441  43.830  1.00  0.00     0.010 C
ENDBRANCH   1  17
BRANCH   7  19
HETATM   19  C14 UNL     1       9.294  12.109  43.204  1.00  0.00     0.190 C
HETATM   20  N1  UNL     1       9.862  13.117  43.694  1.00  0.00    -0.276 N
ATOM     21  H1  UNL     1       9.490  13.452  44.584  1.00  0.00     0.193 HD
BRANCH  20  22
HETATM   22  O3  UNL     1      10.922  13.823  43.180  1.00  0.00    -0.290 OA
ATOM     23  H3  UNL     1      11.283  14.644  43.493  1.00  0.00     0.244 HD
ENDBRANCH  20  22
ENDBRANCH   7  19
TORSDOF 4
ENDMDL