MODEL 1
REMARK VINA RESULT: -7.592463055      0.000      0.000
REMARK  5 active torsions:
REMARK  status: ('A' for Active; 'I' for Inactive)
REMARK       I    between atoms: C1_2  and  N1_3
REMARK    1  A    between atoms: C1_2  and  O4_15
REMARK    2  A    between atoms: N1_3  and  C2_5
REMARK    3  A    between atoms: C5_8  and  N2_9
REMARK    4  A    between atoms: O4_15  and  C8_16
REMARK    5  A    between atoms: C8_16  and  C9_18
ROOT
HETATM    1  O1  UNL     1       6.653   7.282  43.505  1.00  0.00    -0.238 OA
HETATM    2  C1  UNL     1       7.760   7.381  44.063  1.00  0.00     0.373 C
HETATM    3  N1  UNL     1       8.285   8.447  44.793  1.00  0.00    -0.302 N
ATOM      4  H1  UNL     1       9.224   8.327  45.173  1.00  0.00     0.171 HD
ENDROOT
BRANCH   3   5
HETATM    5  C2  UNL     1       7.648   9.664  45.054  1.00  0.00     0.040 A
HETATM    6  C3  UNL     1       6.693   9.707  46.088  1.00  0.00     0.032 A
HETATM    7  C4  UNL     1       6.034  10.877  46.377  1.00  0.00     0.041 A
HETATM    8  C5  UNL     1       6.295  12.027  45.661  1.00  0.00     0.141 A
HETATM    9  C6  UNL     1       7.215  12.035  44.646  1.00  0.00     0.151 A
HETATM   10  F1  UNL     1       7.492  13.148  43.930  1.00  0.00    -0.203 F
HETATM   11  C7  UNL     1       7.877  10.824  44.369  1.00  0.00     0.074 A
BRANCH   8  12
HETATM   12  N2  UNL     1       5.586  13.208  46.001  1.00  0.00    -0.113 N
HETATM   13  O2  UNL     1       5.799  13.813  47.070  1.00  0.00    -0.532 OA
HETATM   14  O3  UNL     1       4.640  13.706  45.135  1.00  0.00    -0.532 OA
ENDBRANCH   8  12
ENDBRANCH   3   5
BRANCH   2  15
HETATM   15  O4  UNL     1       8.571   6.236  43.918  1.00  0.00    -0.221 OA
BRANCH  15  16
HETATM   16  C8  UNL     1       9.954   6.318  43.828  1.00  0.00     0.326 C
HETATM   17  O5  UNL     1      10.589   6.723  44.820  1.00  0.00    -0.256 OA
BRANCH  16  18
HETATM   18  C9  UNL     1      10.607   5.931  42.584  1.00  0.00     0.150 A
HETATM   19  C10 UNL     1      10.018   5.750  41.352  1.00  0.00     0.045 A
HETATM   20  C11 UNL     1      11.003   5.392  40.477  1.00  0.00     0.027 A
HETATM   21  C12 UNL     1      12.184   5.369  41.225  1.00  0.00     0.143 A
HETATM   22  O6  UNL     1      11.888   5.695  42.456  1.00  0.00    -0.317 OA
ENDBRANCH  16  18
ENDBRANCH  15  16
ENDBRANCH   2  15
TORSDOF 5
ENDMDL