MODEL 4
REMARK VINA RESULT: -7.337206714      1.411      1.989
REMARK  5 active torsions:
REMARK  status: ('A' for Active; 'I' for Inactive)
REMARK    1  A    between atoms: C1_2  and  C2_3
REMARK    2  A    between atoms: C1_2  and  C8_17
REMARK    3  A    between atoms: C4_5  and  N1_6
REMARK    4  A    between atoms: C6_10  and  N2_11
REMARK    5  A    between atoms: C7_14  and  O6_15
ROOT
HETATM    1  C2  UNL     1       5.886  11.066  44.373  1.00  0.00     0.048 A
HETATM    2  C3  UNL     1       5.350  11.812  43.366  1.00  0.00     0.054 A
HETATM    3  C4  UNL     1       4.711  13.044  43.546  1.00  0.00     0.106 A
HETATM    4  C5  UNL     1       4.642  13.498  44.837  1.00  0.00     0.075 A
HETATM    5  C6  UNL     1       5.166  12.798  45.932  1.00  0.00     0.139 A
HETATM    6  C7  UNL     1       5.775  11.601  45.677  1.00  0.00     0.112 A
ENDROOT
BRANCH   1   7
HETATM    7  C1  UNL     1       6.551   9.782  44.169  1.00  0.00     0.166 C
HETATM    8  O1  UNL     1       6.104   8.800  44.870  1.00  0.00    -0.292 OA
BRANCH   7   9
HETATM    9  C8  UNL     1       7.650   9.487  43.274  1.00  0.00     0.061 C
HETATM   10  C9  UNL     1       7.300   8.990  41.915  1.00  0.00     0.012 C
HETATM   11  C10 UNL     1       8.323   9.631  40.975  1.00  0.00     0.001 C
HETATM   12  C11 UNL     1       9.472  10.041  41.909  1.00  0.00     0.001 C
HETATM   13  C12 UNL     1       8.677  10.569  43.094  1.00  0.00     0.012 C
ENDBRANCH   7   9
ENDBRANCH   1   7
BRANCH   6  14
HETATM   14  O6  UNL     1       6.320  10.832  46.673  1.00  0.00    -0.357 OA
ATOM     15  H6  UNL     1       5.702  10.293  47.153  1.00  0.00     0.217 HD
ENDBRANCH   6  14
BRANCH   3  16
HETATM   16  N1  UNL     1       4.176  13.763  42.449  1.00  0.00    -0.116 N
HETATM   17  O2  UNL     1       4.432  13.390  41.299  1.00  0.00    -0.532 OA
HETATM   18  O3  UNL     1       3.392  14.845  42.660  1.00  0.00    -0.532 OA
ENDBRANCH   3  16
BRANCH   5  19
HETATM   19  N2  UNL     1       5.028  13.368  47.214  1.00  0.00    -0.113 N
HETATM   20  O4  UNL     1       4.993  14.640  47.253  1.00  0.00    -0.532 OA
HETATM   21  O5  UNL     1       4.924  12.732  48.406  1.00  0.00    -0.532 OA
ENDBRANCH   5  19
TORSDOF 5
ENDMDL