MODEL 5
REMARK VINA RESULT: -8.121729346      0.771      1.455
REMARK  3 active torsions:
REMARK  status: ('A' for Active; 'I' for Inactive)
REMARK       I    between atoms: C1_2  and  N1_3
REMARK       I    between atoms: C1_2  and  N3_14
REMARK    1  A    between atoms: N1_3  and  C2_5
REMARK    2  A    between atoms: C5_8  and  N2_9
REMARK    3  A    between atoms: C11_19  and  N4_20
ROOT
HETATM    1  O1  UNL     1       8.485   8.919  44.545  1.00  0.00    -0.246 OA
HETATM    2  C1  UNL     1       8.132   8.919  43.349  1.00  0.00     0.335 C
HETATM    3  N1  UNL     1       7.283   9.994  42.992  1.00  0.00    -0.308 N
ATOM      4  H1  UNL     1       6.962  10.030  42.024  1.00  0.00     0.170 HD
HETATM    5  N3  UNL     1       8.539   7.930  42.409  1.00  0.00    -0.219 N
HETATM    6  C8  UNL     1       8.186   7.901  41.123  1.00  0.00     0.200 A
HETATM    7  F1  UNL     1       7.400   8.741  40.384  1.00  0.00    -0.185 F
HETATM    8  C9  UNL     1       8.753   6.798  40.474  1.00  0.00     0.066 A
HETATM    9  C10 UNL     1       9.460   6.173  41.444  1.00  0.00     0.060 A
HETATM   10  C11 UNL     1       9.342   6.867  42.677  1.00  0.00     0.186 A
ENDROOT
BRANCH   3  11
HETATM   11  C2  UNL     1       6.840  11.023  43.859  1.00  0.00     0.036 A
HETATM   12  C3  UNL     1       5.475  11.077  44.177  1.00  0.00     0.032 A
HETATM   13  C4  UNL     1       4.928  12.042  44.986  1.00  0.00     0.038 A
HETATM   14  C5  UNL     1       5.741  13.019  45.524  1.00  0.00     0.103 A
HETATM   15  C6  UNL     1       7.079  12.993  45.231  1.00  0.00     0.038 A
HETATM   16  C7  UNL     1       7.602  12.002  44.407  1.00  0.00     0.032 A
BRANCH  14  17
HETATM   17  N2  UNL     1       5.166  14.019  46.365  1.00  0.00    -0.116 N
HETATM   18  O2  UNL     1       5.561  14.157  47.540  1.00  0.00    -0.532 OA
HETATM   19  O3  UNL     1       4.179  14.844  45.913  1.00  0.00    -0.532 OA
ENDBRANCH  14  17
ENDBRANCH   3  11
BRANCH  10  20
HETATM   20  N4  UNL     1       9.971   6.445  43.857  1.00  0.00    -0.097 N
HETATM   21  O4  UNL     1      11.108   6.664  44.192  1.00  0.00    -0.531 OA
HETATM   22  O5  UNL     1       9.234   5.681  44.778  1.00  0.00    -0.531 OA
ENDBRANCH  10  20
TORSDOF 3
ENDMDL