MODEL 1
REMARK VINA RESULT: -7.602082669      0.000      0.000
REMARK  5 active torsions:
REMARK  status: ('A' for Active; 'I' for Inactive)
REMARK    1  A    between atoms: N1_2  and  C1_4
REMARK    2  A    between atoms: C4_7  and  C5_8
REMARK    3  A    between atoms: C5_8  and  O4_13
REMARK    4  A    between atoms: N2_9  and  O3_11
REMARK    5  A    between atoms: O4_13  and  C6_14
ROOT
HETATM    1  C5  UNL     1       7.708   7.673  44.707  1.00  0.00     0.178 C
HETATM    2  N2  UNL     1       7.982   7.802  45.934  1.00  0.00    -0.246 N
ATOM      3  H2  UNL     1       7.235   8.164  46.527  1.00  0.00     0.196 HD
ENDROOT
BRANCH   1   4
HETATM    4  C4  UNL     1       8.546   7.192  43.633  1.00  0.00     0.017 A
HETATM    5  C3  UNL     1       8.399   5.909  43.152  1.00  0.00     0.018 A
HETATM    6  C2  UNL     1       9.159   5.379  42.137  1.00  0.00     0.037 A
HETATM    7  C1  UNL     1      10.129   6.150  41.548  1.00  0.00     0.102 A
HETATM    8  C13 UNL     1      10.304   7.432  42.002  1.00  0.00     0.037 A
HETATM    9  C12 UNL     1       9.511   7.949  43.044  1.00  0.00     0.018 A
BRANCH   7  10
HETATM   10  N1  UNL     1      10.926   5.638  40.506  1.00  0.00    -0.116 N
HETATM   11  O1  UNL     1      10.448   5.513  39.364  1.00  0.00    -0.532 OA
HETATM   12  O2  UNL     1      12.225   5.277  40.737  1.00  0.00    -0.532 OA
ENDBRANCH   7  10
ENDBRANCH   1   4
BRANCH   1  13
HETATM   13  O4  UNL     1       6.374   8.081  44.432  1.00  0.00    -0.291 OA
BRANCH  13  14
HETATM   14  C6  UNL     1       6.073   9.218  43.726  1.00  0.00     0.078 A
HETATM   15  C7  UNL     1       6.097   9.401  42.373  1.00  0.00     0.039 A
HETATM   16  C8  UNL     1       5.759  10.628  41.777  1.00  0.00     0.026 A
HETATM   17  C9  UNL     1       5.386  11.705  42.544  1.00  0.00     0.034 A
HETATM   18 CL1  UNL     1       4.969  13.221  41.784  1.00  0.00    -0.084 Cl
HETATM   19  C10 UNL     1       5.354  11.542  43.904  1.00  0.00     0.026 A
HETATM   20  C11 UNL     1       5.688  10.336  44.483  1.00  0.00     0.039 A
ENDBRANCH  13  14
ENDBRANCH   1  13
BRANCH   2  21
HETATM   21  O3  UNL     1       9.131   7.520  46.541  1.00  0.00    -0.288 OA
ATOM     22  H3  UNL     1       9.383   6.700  46.950  1.00  0.00     0.244 HD
ENDBRANCH   2  21
TORSDOF 5
ENDMDL