MODEL 1
REMARK VINA RESULT: -6.584310926      0.000      0.000
REMARK  3 active torsions:
REMARK  status: ('A' for Active; 'I' for Inactive)
REMARK    1  A    between atoms: C5_8  and  S2_9
REMARK    2  A    between atoms: C8_14  and  C9_15
REMARK    3  A    between atoms: C9_15  and  C10_16
ROOT
HETATM    1  S2  UNL     1      10.810   9.238  40.594  1.00  0.00    -0.005 SA
HETATM    2  C6  UNL     1      12.401   9.902  40.927  1.00  0.00     0.139 C
HETATM    3  N2  UNL     1      13.462  10.334  41.149  1.00  0.00    -0.184 NA
ENDROOT
BRANCH   1   4
HETATM    4  C5  UNL     1      10.274   8.183  41.992  1.00  0.00     0.083 A
HETATM    5  C4  UNL     1      10.934   7.009  42.220  1.00  0.00     0.110 A
HETATM    6  S1  UNL     1      10.128   6.357  43.572  1.00  0.00    -0.046 SA
HETATM    7  N1  UNL     1      12.049   6.455  41.486  1.00  0.00    -0.093 NA
HETATM    8  C3  UNL     1       8.970   7.587  43.821  1.00  0.00     0.147 A
HETATM    9  O1  UNL     1       7.922   7.800  44.750  1.00  0.00    -0.334 OA
HETATM   10  C7  UNL     1       9.248   8.483  42.831  1.00  0.00     0.130 A
HETATM   11  C2  UNL     1       7.381   9.076  45.027  1.00  0.00     0.155 C
HETATM   12  C1  UNL     1       7.605   9.365  46.485  1.00  0.00     0.042 C
HETATM   13  C8  UNL     1       7.947  10.137  44.123  1.00  0.00     0.159 C
HETATM   14  O2  UNL     1       8.369   9.610  42.872  1.00  0.00    -0.338 OA
BRANCH  13  15
HETATM   15  C9  UNL     1       6.945  11.217  43.779  1.00  0.00     0.050 C
BRANCH  15  16
HETATM   16  C10 UNL     1       7.502  12.517  44.350  1.00  0.00     0.117 C
HETATM   17 CL1  UNL     1       9.179  12.778  43.779  1.00  0.00    -0.130 Cl
ENDBRANCH  15  16
ENDBRANCH  13  15
ENDBRANCH   1   4
TORSDOF 3
ENDMDL