MODEL 1
REMARK VINA RESULT: -6.977028506      0.000      0.000
REMARK  7 active torsions:
REMARK  status: ('A' for Active; 'I' for Inactive)
REMARK    1  A    between atoms: S1_2  and  C2_3
REMARK       I    between atoms: N1_7  and  C6_8
REMARK    2  A    between atoms: C6_8  and  C7_10
REMARK    3  A    between atoms: C7_10  and  S2_12
REMARK    4  A    between atoms: S2_12  and  C9_13
REMARK    5  A    between atoms: C10_18  and  S3_19
REMARK    6  A    between atoms: S3_19  and  C11_20
REMARK    7  A    between atoms: C11_20  and  C12_21
ROOT
HETATM    1  C9  UNL     1       6.940   9.796  47.124  1.00  0.00     0.130 A
HETATM    2  N2  UNL     1       6.364  10.250  48.232  1.00  0.00    -0.287 N
ATOM      3  H2  UNL     1       6.556   9.795  49.124  1.00  0.00     0.188 HD
HETATM    4  N3  UNL     1       5.583  11.237  48.189  1.00  0.00    -0.287 N
ATOM      5  H3  UNL     1       5.145  11.579  49.044  1.00  0.00     0.188 HD
HETATM    6  C10 UNL     1       5.330  11.833  47.027  1.00  0.00     0.129 A
HETATM    7  S4  UNL     1       6.281  10.902  45.964  1.00  0.00    -0.038 SA
ENDROOT
BRANCH   1   8
HETATM    8  S2  UNL     1       8.054   8.429  46.884  1.00  0.00    -0.089 SA
BRANCH   8   9
HETATM    9  C7  UNL     1       7.606   7.354  45.552  1.00  0.00     0.142 C
HETATM   10  C8  UNL     1       6.161   7.232  45.225  1.00  0.00     0.031 C
BRANCH   9  11
HETATM   11  C6  UNL     1       8.458   7.698  44.357  1.00  0.00     0.234 C
HETATM   12  N1  UNL     1       8.811   6.758  43.358  1.00  0.00    -0.338 N
HETATM   13  C2  UNL     1       9.615   7.056  42.208  1.00  0.00     0.148 C
HETATM   14  C5  UNL     1       8.448   5.381  43.348  1.00  0.00     0.127 C
HETATM   15  C3  UNL     1       9.558   5.824  41.354  1.00  0.00     0.038 C
HETATM   16  C4  UNL     1       8.346   5.046  41.878  1.00  0.00     0.023 C
HETATM   17  O1  UNL     1       8.849   8.913  44.307  1.00  0.00    -0.272 OA
BRANCH  13  18
HETATM   18  S1  UNL     1      11.353   7.338  42.644  1.00  0.00    -0.148 SA
HETATM   19  C1  UNL     1      12.333   5.826  42.528  1.00  0.00     0.092 C
ENDBRANCH  13  18
ENDBRANCH   9  11
ENDBRANCH   8   9
ENDBRANCH   1   8
BRANCH   6  20
HETATM   20  S3  UNL     1       4.249  13.240  46.695  1.00  0.00    -0.093 SA
BRANCH  20  21
HETATM   21  C11 UNL     1       4.423  13.640  44.933  1.00  0.00     0.194 C
BRANCH  21  22
HETATM   22  C12 UNL     1       3.534  14.785  44.593  1.00  0.00     0.182 C
HETATM   23  O2  UNL     1       3.074  15.560  45.467  1.00  0.00    -0.647 OA
HETATM   24  O3  UNL     1       3.198  15.009  43.262  1.00  0.00    -0.647 OA
ENDBRANCH  21  22
ENDBRANCH  20  21
ENDBRANCH   6  20
TORSDOF 7
ENDMDL