MODEL 5
REMARK VINA RESULT: -7.510343223      1.157      1.157
REMARK  9 active torsions:
REMARK  status: ('A' for Active; 'I' for Inactive)
REMARK    1  A    between atoms: O1_2  and  C2_3
REMARK    2  A    between atoms: C7_8  and  O2_9
REMARK    3  A    between atoms: C9_11  and  C10_12
REMARK    4  A    between atoms: C10_12  and  O3_13
REMARK    5  A    between atoms: O3_13  and  C11_14
REMARK       I    between atoms: C11_14  and  N1_16
REMARK    6  A    between atoms: N1_16  and  O5_18
REMARK    7  A    between atoms: C13_20  and  O6_21
REMARK    8  A    between atoms: C17_25  and  O7_26
REMARK    9  A    between atoms: O7_26  and  C18_27
ROOT
HETATM    1  C2  UNL     1       3.682  14.477  44.714  1.00  0.00     0.102 A
HETATM    2  C3  UNL     1       4.434  13.615  45.473  1.00  0.00     0.052 A
HETATM    3  C4  UNL     1       5.162  12.606  44.833  1.00  0.00    -0.012 A
HETATM    4  C5  UNL     1       5.918  11.752  45.622  1.00  0.00    -0.017 A
HETATM    5  C6  UNL     1       5.915  11.942  47.096  1.00  0.00     0.052 C
HETATM    6  C7  UNL     1       6.654  10.748  45.044  1.00  0.00     0.086 A
HETATM    7  C9  UNL     1       6.606  10.631  43.649  1.00  0.00     0.034 A
HETATM    8  C13 UNL     1       5.860  11.472  42.881  1.00  0.00     0.090 A
HETATM    9  C15 UNL     1       5.125  12.478  43.464  1.00  0.00     0.012 A
HETATM   10  C16 UNL     1       4.364  13.349  42.686  1.00  0.00     0.055 A
HETATM   11  C17 UNL     1       3.657  14.333  43.336  1.00  0.00     0.112 A
ENDROOT
BRANCH   7  12
HETATM   12  C10 UNL     1       7.423   9.557  43.080  1.00  0.00     0.225 C
BRANCH  12  13
HETATM   13  O3  UNL     1       6.846   8.306  42.991  1.00  0.00    -0.298 OA
BRANCH  13  14
HETATM   14  C11 UNL     1       7.562   7.270  42.404  1.00  0.00     0.386 C
HETATM   15  O4  UNL     1       8.018   7.449  41.251  1.00  0.00    -0.236 OA
HETATM   16  N1  UNL     1       7.790   6.037  43.054  1.00  0.00    -0.209 N
HETATM   17  C12 UNL     1       8.551   5.013  42.363  1.00  0.00     0.191 C
BRANCH  16  18
HETATM   18  O5  UNL     1       7.305   5.812  44.301  1.00  0.00    -0.283 OA
ATOM     19  H5  UNL     1       7.517   5.011  44.767  1.00  0.00     0.245 HD
ENDBRANCH  16  18
ENDBRANCH  13  14
ENDBRANCH  12  13
ENDBRANCH   7  12
BRANCH   6  20
HETATM   20  O2  UNL     1       7.426   9.867  45.773  1.00  0.00    -0.355 OA
HETATM   21  C8  UNL     1       6.933   8.720  46.419  1.00  0.00     0.210 C
ENDBRANCH   6  20
BRANCH   8  22
HETATM   22  O6  UNL     1       5.780  11.384  41.476  1.00  0.00    -0.354 OA
HETATM   23  C14 UNL     1       4.692  10.584  40.986  1.00  0.00     0.210 C
ENDBRANCH   8  22
BRANCH  11  24
HETATM   24  O7  UNL     1       2.903  15.194  42.543  1.00  0.00    -0.283 OA
BRANCH  24  25
HETATM   25  C18 UNL     1       3.120  15.323  41.172  1.00  0.00     0.403 C
HETATM   26  O8  UNL     1       2.632  16.305  40.561  1.00  0.00    -0.276 OA
ENDBRANCH  24  25
ENDBRANCH  11  24
BRANCH   1  27
HETATM   27  O1  UNL     1       2.932  15.501  45.243  1.00  0.00    -0.353 OA
HETATM   28  C1  UNL     1       2.577  15.585  46.609  1.00  0.00     0.210 C
ENDBRANCH   1  27
TORSDOF 9
ENDMDL