MODEL 4
REMARK VINA RESULT: -7.843400023      1.322      2.898
REMARK  8 active torsions:
REMARK  status: ('A' for Active; 'I' for Inactive)
REMARK    1  A    between atoms: O1_2  and  C2_3
REMARK    2  A    between atoms: C4_5  and  C5_6
REMARK    3  A    between atoms: C5_6  and  C6_8
REMARK    4  A    between atoms: C8_10  and  O3_11
REMARK    5  A    between atoms: C10_13  and  O4_14
REMARK    6  A    between atoms: C14_19  and  O5_20
REMARK    7  A    between atoms: C16_23  and  O6_24
REMARK    8  A    between atoms: C18_26  and  O7_27
ROOT
HETATM    1  C6  UNL     1       3.825  14.406  41.501  1.00  0.00     0.052 A
HETATM    2  C7  UNL     1       4.333  13.123  41.330  1.00  0.00     0.058 A
HETATM    3  C8  UNL     1       3.986  12.380  40.213  1.00  0.00     0.104 A
HETATM    4  C10 UNL     1       3.140  12.907  39.273  1.00  0.00     0.125 A
HETATM    5  C12 UNL     1       2.617  14.168  39.404  1.00  0.00     0.114 A
HETATM    6  C13 UNL     1       1.731  14.733  38.430  1.00  0.00     0.105 C
HETATM    7  N1  UNL     1       1.012  15.207  37.652  1.00  0.00    -0.191 NA
HETATM    8  C14 UNL     1       2.978  14.914  40.545  1.00  0.00     0.103 A
ENDROOT
BRANCH   4   9
HETATM    9  O4  UNL     1       2.800  12.154  38.161  1.00  0.00    -0.352 OA
HETATM   10  C11 UNL     1       1.703  11.255  38.270  1.00  0.00     0.210 C
ENDBRANCH   4   9
BRANCH   8  11
HETATM   11  O5  UNL     1       2.443  16.162  40.644  1.00  0.00    -0.358 OA
ATOM     12  H5  UNL     1       2.532  16.688  41.430  1.00  0.00     0.217 HD
ENDBRANCH   8  11
BRANCH   3  13
HETATM   13  O3  UNL     1       4.495  11.120  40.064  1.00  0.00    -0.353 OA
HETATM   14  C9  UNL     1       5.798  10.716  40.359  1.00  0.00     0.210 C
ENDBRANCH   3  13
BRANCH   1  15
HETATM   15  C5  UNL     1       4.170  15.074  42.736  1.00  0.00     0.195 C
HETATM   16  O2  UNL     1       4.632  16.255  42.661  1.00  0.00    -0.287 OA
BRANCH  15  17
HETATM   17  C4  UNL     1       4.032  14.501  44.076  1.00  0.00     0.020 A
HETATM   18  C3  UNL     1       4.605  13.295  44.397  1.00  0.00     0.055 A
HETATM   19  C2  UNL     1       4.440  12.730  45.645  1.00  0.00     0.105 A
HETATM   20  C18 UNL     1       3.682  13.386  46.605  1.00  0.00     0.135 A
HETATM   21  C16 UNL     1       3.092  14.601  46.321  1.00  0.00     0.105 A
HETATM   22  C15 UNL     1       3.289  15.116  45.063  1.00  0.00     0.055 A
BRANCH  19  23
HETATM   23  O1  UNL     1       5.021  11.531  45.931  1.00  0.00    -0.353 OA
HETATM   24  C1  UNL     1       6.377  11.280  46.123  1.00  0.00     0.210 C
ENDBRANCH  19  23
BRANCH  20  25
HETATM   25  O7  UNL     1       3.533  12.796  47.850  1.00  0.00    -0.351 OA
HETATM   26  C19 UNL     1       4.376  12.997  48.948  1.00  0.00     0.210 C
ENDBRANCH  20  25
BRANCH  21  27
HETATM   27  O6  UNL     1       2.333  15.249  47.303  1.00  0.00    -0.353 OA
HETATM   28  C17 UNL     1       2.639  16.577  47.614  1.00  0.00     0.210 C
ENDBRANCH  21  27
ENDBRANCH  15  17
ENDBRANCH   1  15
TORSDOF 8
ENDMDL