MODEL 1
REMARK VINA RESULT: -7.065852094      0.000      0.000
REMARK  10 active torsions:
REMARK  status: ('A' for Active; 'I' for Inactive)
REMARK    1  A    between atoms: O1_2  and  C2_3
REMARK    2  A    between atoms: C2_3  and  C3_5
REMARK    3  A    between atoms: C3_5  and  C15_26
REMARK    4  A    between atoms: N1_6  and  N2_8
REMARK    5  A    between atoms: N2_8  and  C4_10
REMARK    6  A    between atoms: C6_12  and  O3_13
REMARK    7  A    between atoms: C8_15  and  O4_16
REMARK    8  A    between atoms: C10_18  and  O5_19
REMARK    9  A    between atoms: O5_19  and  C11_20
REMARK   10  A    between atoms: C11_20  and  C12_22
ROOT
HETATM    1  C12 UNL     1       5.628   7.932  39.607  1.00  0.00     0.235 C
HETATM    2  C13 UNL     1       5.539   6.524  39.233  1.00  0.00     0.069 C
HETATM    3  N3  UNL     1       5.467   5.398  38.956  1.00  0.00    -0.197 NA
ENDROOT
BRANCH   1   4
HETATM    4  C11 UNL     1       6.759   8.553  38.880  1.00  0.00     0.277 C
HETATM    5  O6  UNL     1       6.596   9.553  38.141  1.00  0.00    -0.264 OA
BRANCH   4   6
HETATM    6  O5  UNL     1       8.018   8.029  39.014  1.00  0.00    -0.275 OA
BRANCH   6   7
HETATM    7  C10 UNL     1       8.755   7.986  40.182  1.00  0.00     0.117 A
HETATM    8  C8  UNL     1       9.683   6.987  40.341  1.00  0.00     0.135 A
HETATM    9  C6  UNL     1      10.454   6.893  41.496  1.00  0.00     0.106 A
HETATM   10  C5  UNL     1      10.282   7.826  42.502  1.00  0.00     0.070 A
HETATM   11  C4  UNL     1       9.349   8.846  42.361  1.00  0.00     0.053 A
HETATM   12  C14 UNL     1       8.599   8.913  41.205  1.00  0.00     0.071 A
BRANCH   8  13
HETATM   13  O4  UNL     1       9.845   6.061  39.326  1.00  0.00    -0.351 OA
HETATM   14  C9  UNL     1       9.049   4.895  39.301  1.00  0.00     0.210 C
ENDBRANCH   8  13
BRANCH   9  15
HETATM   15  O3  UNL     1      11.367   5.851  41.573  1.00  0.00    -0.353 OA
HETATM   16  C7  UNL     1      12.369   5.759  42.539  1.00  0.00     0.210 C
ENDBRANCH   9  15
BRANCH  11  17
HETATM   17  N2  UNL     1       9.165   9.823  43.409  1.00  0.00    -0.300 N
ATOM     18  H2  UNL     1       9.550  10.762  43.307  1.00  0.00     0.187 HD
BRANCH  17  19
HETATM   19  N1  UNL     1       8.485   9.490  44.520  1.00  0.00    -0.298 N
HETATM   20  C3  UNL     1       7.704  10.058  45.309  1.00  0.00     0.108 C
ATOM     21  H1  UNL     1       8.650   8.519  44.787  1.00  0.00     0.187 HD
BRANCH  20  22
HETATM   22  C2  UNL     1       7.190   9.239  46.439  1.00  0.00     0.307 C
HETATM   23  O2  UNL     1       7.912   9.129  47.451  1.00  0.00    -0.258 OA
BRANCH  22  24
HETATM   24  O1  UNL     1       5.973   8.612  46.411  1.00  0.00    -0.322 OA
HETATM   25  C1  UNL     1       5.717   7.486  45.567  1.00  0.00     0.213 C
ENDBRANCH  22  24
ENDBRANCH  20  22
BRANCH  20  26
HETATM   26  C15 UNL     1       7.238  11.461  45.235  1.00  0.00    -0.001 C
HETATM   27  C16 UNL     1       6.486  11.777  46.513  1.00  0.00     0.021 C
HETATM   28  C17 UNL     1       6.292  11.555  44.047  1.00  0.00     0.021 C
HETATM   29  C18 UNL     1       8.319  12.477  45.061  1.00  0.00     0.021 C
ENDBRANCH  20  26
ENDBRANCH  17  19
ENDBRANCH  11  17
ENDBRANCH   6   7
ENDBRANCH   4   6
ENDBRANCH   1   4
TORSDOF 10
ENDMDL