MODEL 2
REMARK VINA RESULT: -6.586127423      3.095      3.916
REMARK  9 active torsions:
REMARK  status: ('A' for Active; 'I' for Inactive)
REMARK    1  A    between atoms: C2_2  and  O1_3
REMARK    2  A    between atoms: O1_3  and  C3_4
REMARK    3  A    between atoms: C3_4  and  C4_6
REMARK    4  A    between atoms: C6_9  and  N1_10
REMARK    5  A    between atoms: N1_10  and  C7_12
REMARK    6  A    between atoms: C9_14  and  O3_15
REMARK    7  A    between atoms: C11_17  and  O4_18
REMARK    8  A    between atoms: C13_20  and  O5_21
REMARK    9  A    between atoms: C15_23  and  O6_24
ROOT
HETATM    1  C7  UNL     1       9.237   8.658  41.968  1.00  0.00     0.073 A
HETATM    2  C8  UNL     1      10.047   7.565  42.186  1.00  0.00     0.072 A
HETATM    3  C9  UNL     1      10.266   6.595  41.233  1.00  0.00     0.106 A
HETATM    4  C11 UNL     1       9.664   6.698  40.014  1.00  0.00     0.138 A
HETATM    5  C13 UNL     1       8.845   7.775  39.752  1.00  0.00     0.140 A
HETATM    6  C15 UNL     1       8.643   8.734  40.725  1.00  0.00     0.131 A
ENDROOT
BRANCH   1   7
HETATM    7  N1  UNL     1       9.062   9.614  43.001  1.00  0.00    -0.334 N
ATOM      8  H1  UNL     1       9.555  10.506  42.979  1.00  0.00     0.168 HD
BRANCH   7   9
HETATM    9  C6  UNL     1       8.252   9.319  43.978  1.00  0.00     0.149 A
HETATM   10  S1  UNL     1       7.023   8.149  43.981  1.00  0.00    -0.063 SA
HETATM   11  C5  UNL     1       6.450   8.379  45.575  1.00  0.00     0.089 A
HETATM   12  C4  UNL     1       7.272   9.383  46.031  1.00  0.00     0.117 A
HETATM   13  N2  UNL     1       8.175   9.837  45.196  1.00  0.00    -0.331 N
ATOM     14  H2  UNL     1       8.812  10.581  45.480  1.00  0.00     0.168 HD
BRANCH  12  15
HETATM   15  C3  UNL     1       7.105   9.899  47.420  1.00  0.00     0.310 C
HETATM   16  O2  UNL     1       7.863   9.500  48.315  1.00  0.00    -0.258 OA
BRANCH  15  17
HETATM   17  O1  UNL     1       6.133  10.810  47.749  1.00  0.00    -0.317 OA
BRANCH  17  18
HETATM   18  C2  UNL     1       5.824  11.957  47.008  1.00  0.00     0.175 C
HETATM   19  C1  UNL     1       4.570  12.573  47.595  1.00  0.00     0.034 C
ENDBRANCH  17  18
ENDBRANCH  15  17
ENDBRANCH  12  15
ENDBRANCH   7   9
ENDBRANCH   1   7
BRANCH   6  20
HETATM   20  O6  UNL     1       7.816   9.803  40.437  1.00  0.00    -0.351 OA
HETATM   21  C16 UNL     1       6.416   9.782  40.591  1.00  0.00     0.210 C
ENDBRANCH   6  20
BRANCH   3  22
HETATM   22  O3  UNL     1      11.092   5.491  41.468  1.00  0.00    -0.353 OA
HETATM   23  C10 UNL     1      12.159   5.661  42.390  1.00  0.00     0.210 C
ENDBRANCH   3  22
BRANCH   5  24
HETATM   24  O5  UNL     1       8.257   7.833  38.496  1.00  0.00    -0.350 OA
HETATM   25  C14 UNL     1       8.749   8.576  37.422  1.00  0.00     0.210 C
ENDBRANCH   5  24
BRANCH   4  26
HETATM   26  O4  UNL     1       9.876   5.731  39.052  1.00  0.00    -0.351 OA
HETATM   27  C12 UNL     1       8.927   4.664  38.988  1.00  0.00     0.210 C
ENDBRANCH   4  26
TORSDOF 9
ENDMDL