MODEL 3
REMARK VINA RESULT: -7.582222109      1.775      2.416
REMARK  10 active torsions:
REMARK  status: ('A' for Active; 'I' for Inactive)
REMARK    1  A    between atoms: O1_2  and  C2_3
REMARK    2  A    between atoms: C2_3  and  C3_5
REMARK    3  A    between atoms: C7_11  and  S2_12
REMARK    4  A    between atoms: S2_12  and  O5_15
REMARK    5  A    between atoms: O5_15  and  C8_16
REMARK    6  A    between atoms: C8_16  and  C9_17
REMARK    7  A    between atoms: C10_18  and  C12_20
REMARK    8  A    between atoms: C12_20  and  C13_21
REMARK    9  A    between atoms: C13_21  and  C14_22
REMARK   10  A    between atoms: C14_22  and  O6_24
ROOT
HETATM    1  S2  UNL     1       8.133   9.484  44.040  1.00  0.00     0.300 S
HETATM    2  O3  UNL     1       8.762  10.905  44.000  1.00  0.00    -0.193 OA
HETATM    3  O4  UNL     1       8.384   9.021  45.413  1.00  0.00    -0.193 OA
ENDROOT
BRANCH   1   4
HETATM    4  C7  UNL     1       8.932   8.508  42.773  1.00  0.00     0.117 A
HETATM    5  C3  UNL     1       9.793   7.491  42.970  1.00  0.00     0.095 A
HETATM    6  C4  UNL     1      10.280   6.861  41.822  1.00  0.00     0.105 A
HETATM    7  N1  UNL     1      11.204   5.760  41.724  1.00  0.00    -0.093 NA
HETATM    8  S1  UNL     1       9.532   7.696  40.556  1.00  0.00    -0.078 SA
HETATM    9  C5  UNL     1       8.630   8.808  41.438  1.00  0.00     0.005 A
HETATM   10  C6  UNL     1       7.693   9.893  40.953  1.00  0.00     0.058 C
BRANCH   5  11
HETATM   11  C2  UNL     1      10.287   6.952  44.271  1.00  0.00     0.297 C
HETATM   12  O2  UNL     1      11.267   7.348  44.894  1.00  0.00    -0.259 OA
BRANCH  11  13
HETATM   13  O1  UNL     1       9.613   5.882  44.911  1.00  0.00    -0.322 OA
HETATM   14  C1  UNL     1       8.334   5.464  44.471  1.00  0.00     0.213 C
ENDBRANCH  11  13
ENDBRANCH   5  11
ENDBRANCH   1   4
BRANCH   1  15
HETATM   15  O5  UNL     1       6.532   9.687  43.737  1.00  0.00    -0.268 OA
BRANCH  15  16
HETATM   16  C8  UNL     1       5.724  10.045  44.807  1.00  0.00     0.218 C
BRANCH  16  17
HETATM   17  C9  UNL     1       5.141  11.345  44.517  1.00  0.00     0.007 C
HETATM   18  C10 UNL     1       5.435  12.552  45.038  1.00  0.00    -0.064 C
HETATM   19  C11 UNL     1       6.495  12.591  46.046  1.00  0.00     0.048 C
BRANCH  18  20
HETATM   20  C12 UNL     1       4.680  13.677  44.534  1.00  0.00     0.009 C
BRANCH  20  21
HETATM   21  C13 UNL     1       3.823  14.509  44.966  1.00  0.00     0.032 C
BRANCH  21  22
HETATM   22  C14 UNL     1       3.058  14.816  46.117  1.00  0.00     0.039 C
HETATM   23  C15 UNL     1       2.921  14.084  47.396  1.00  0.00     0.076 C
BRANCH  22  24
HETATM   24  O6  UNL     1       2.354  15.942  46.029  1.00  0.00    -0.365 OA
ATOM     25  H6  UNL     1       2.071  16.297  46.863  1.00  0.00     0.217 HD
ENDBRANCH  22  24
ENDBRANCH  21  22
ENDBRANCH  20  21
ENDBRANCH  18  20
ENDBRANCH  16  17
ENDBRANCH  15  16
ENDBRANCH   1  15
TORSDOF 10
ENDMDL