MODEL 2
REMARK VINA RESULT: -7.150970537      1.674      3.687
REMARK  7 active torsions:
REMARK  status: ('A' for Active; 'I' for Inactive)
REMARK    1  A    between atoms: C2_2  and  C3_3
REMARK    2  A    between atoms: N3_9  and  N4_11
REMARK    3  A    between atoms: C5_13  and  C6_14
REMARK    4  A    between atoms: C7_15  and  C8_16
REMARK    5  A    between atoms: C12_21  and  O1_22
REMARK    6  A    between atoms: C14_24  and  O2_25
REMARK    7  A    between atoms: C16_27  and  O3_28
ROOT
HETATM    1  C8  UNL     1       4.903  10.719  40.963  1.00  0.00     0.122 C
HETATM    2  C9  UNL     1       4.216  11.110  39.662  1.00  0.00     0.031 C
HETATM    3  C10 UNL     1       6.320  10.538  40.584  1.00  0.00     0.068 C
HETATM    4  N5  UNL     1       7.448  10.410  40.268  1.00  0.00    -0.197 NA
ENDROOT
BRANCH   1   5
HETATM    5  C7  UNL     1       4.814  11.788  41.968  1.00  0.00    -0.024 A
HETATM    6  C6  UNL     1       5.385  11.654  43.211  1.00  0.00     0.025 A
HETATM    7  C16 UNL     1       5.272  12.742  44.105  1.00  0.00     0.116 A
HETATM    8  C14 UNL     1       4.615  13.890  43.744  1.00  0.00     0.136 A
HETATM    9  C12 UNL     1       4.049  14.004  42.492  1.00  0.00     0.104 A
HETATM   10  C11 UNL     1       4.148  12.971  41.623  1.00  0.00     0.049 A
BRANCH   6  11
HETATM   11  C5  UNL     1       6.077  10.490  43.705  1.00  0.00     0.122 C
HETATM   12  N4  UNL     1       7.289  10.355  44.052  1.00  0.00    -0.309 N
ATOM     13  H4  UNL     1       7.899  11.170  43.986  1.00  0.00     0.186 HD
BRANCH  12  14
HETATM   14  N3  UNL     1       7.837   9.170  44.514  1.00  0.00    -0.279 N
HETATM   15  C4  UNL     1       8.592   8.419  43.746  1.00  0.00     0.179 A
HETATM   16  N2  UNL     1       8.953   8.627  42.475  1.00  0.00    -0.278 N
HETATM   17  S1  UNL     1       9.366   6.936  44.088  1.00  0.00    -0.037 SA
HETATM   18  N1  UNL     1       9.696   7.767  41.906  1.00  0.00    -0.296 N
ATOM     19  H2  UNL     1       8.639   9.457  41.973  1.00  0.00     0.189 HD
HETATM   20  C3  UNL     1      10.100   6.693  42.564  1.00  0.00     0.069 A
ATOM     21  H1  UNL     1       9.983   7.906  40.937  1.00  0.00     0.187 HD
ATOM     22  H3  UNL     1       7.650   8.875  45.473  1.00  0.00     0.189 HD
BRANCH  20  23
HETATM   23  C2  UNL     1      10.976   5.563  42.083  1.00  0.00     0.062 C
HETATM   24  C1  UNL     1      12.388   5.918  42.494  1.00  0.00     0.012 C
ENDBRANCH  20  23
ENDBRANCH  12  14
ENDBRANCH   6  11
BRANCH   7  25
HETATM   25  O3  UNL     1       5.809  12.715  45.378  1.00  0.00    -0.352 OA
HETATM   26  C17 UNL     1       5.204  12.210  46.527  1.00  0.00     0.210 C
ENDBRANCH   7  25
BRANCH   8  27
HETATM   27  O2  UNL     1       4.506  14.962  44.631  1.00  0.00    -0.351 OA
HETATM   28  C15 UNL     1       3.361  15.144  45.446  1.00  0.00     0.210 C
ENDBRANCH   8  27
BRANCH   9  29
HETATM   29  O1  UNL     1       3.391  15.163  42.141  1.00  0.00    -0.353 OA
HETATM   30  C13 UNL     1       2.923  15.403  40.840  1.00  0.00     0.210 C
ENDBRANCH   9  29
ENDBRANCH   1   5
TORSDOF 7
ENDMDL