MODEL 5
REMARK VINA RESULT: -8.422738312      3.268      4.582
REMARK  10 active torsions:
REMARK  status: ('A' for Active; 'I' for Inactive)
REMARK    1  A    between atoms: C3_3  and  C4_4
REMARK    2  A    between atoms: C3_3  and  C11_18
REMARK    3  A    between atoms: C4_4  and  O1_5
REMARK    4  A    between atoms: O1_5  and  N1_6
REMARK    5  A    between atoms: C5_8  and  C7_10
REMARK    6  A    between atoms: C10_13  and  N2_14
REMARK    7  A    between atoms: C11_18  and  O5_20
REMARK    8  A    between atoms: O5_20  and  C13_21
REMARK    9  A    between atoms: C13_21  and  O7_23
REMARK   10  A    between atoms: O7_23  and  C14_24
ROOT
HETATM    1  C1  UNL     1       7.041   9.589  47.831  1.00  0.00     0.012 C
HETATM    2  C2  UNL     1       6.831  10.301  46.879  1.00  0.00    -0.108 C
HETATM    3  C3  UNL     1       6.572  11.148  45.707  1.00  0.00     0.119 C
ENDROOT
BRANCH   3   4
HETATM    4  C4  UNL     1       6.386  12.554  46.241  1.00  0.00     0.220 C
BRANCH   4   5
HETATM    5  O1  UNL     1       5.146  13.099  45.854  1.00  0.00    -0.279 OA
BRANCH   5   6
HETATM    6  N1  UNL     1       4.883  13.204  44.518  1.00  0.00    -0.269 N
HETATM    7  C5  UNL     1       4.134  14.114  44.056  1.00  0.00     0.062 C
HETATM    8  C6  UNL     1       3.503  15.111  44.935  1.00  0.00     0.073 C
ATOM      9  H1  UNL     1       5.302  12.531  43.876  1.00  0.00     0.194 HD
BRANCH   7  10
HETATM   10  C7  UNL     1       3.894  14.165  42.597  1.00  0.00     0.102 A
HETATM   11  C8  UNL     1       4.366  13.261  41.668  1.00  0.00     0.044 A
HETATM   12  C9  UNL     1       3.910  13.687  40.445  1.00  0.00     0.066 A
HETATM   13  C10 UNL     1       3.167  14.847  40.674  1.00  0.00     0.215 A
HETATM   14  O4  UNL     1       3.204  15.062  41.959  1.00  0.00    -0.287 OA
BRANCH  13  15
HETATM   15  N2  UNL     1       2.500  15.636  39.680  1.00  0.00    -0.090 N
HETATM   16  O2  UNL     1       1.508  15.135  39.121  1.00  0.00    -0.530 OA
HETATM   17  O3  UNL     1       2.961  16.892  39.379  1.00  0.00    -0.530 OA
ENDBRANCH  13  15
ENDBRANCH   7  10
ENDBRANCH   5   6
ENDBRANCH   4   5
ENDBRANCH   3   4
BRANCH   3  18
HETATM   18  C11 UNL     1       7.725  11.103  44.801  1.00  0.00     0.148 C
HETATM   19  C12 UNL     1       8.553  12.379  45.066  1.00  0.00     0.041 C
BRANCH  18  20
HETATM   20  O5  UNL     1       8.597  10.072  44.804  1.00  0.00    -0.292 OA
BRANCH  20  21
HETATM   21  C13 UNL     1       8.889   9.298  43.721  1.00  0.00     0.408 C
HETATM   22  O6  UNL     1       9.790   9.793  43.015  1.00  0.00    -0.229 OA
BRANCH  21  23
HETATM   23  O7  UNL     1       8.335   8.108  43.350  1.00  0.00    -0.272 OA
BRANCH  23  24
HETATM   24  C14 UNL     1       8.415   7.003  44.231  1.00  0.00     0.153 C
HETATM   25  C15 UNL     1       8.333   5.749  43.362  1.00  0.00     0.063 C
HETATM   26  C16 UNL     1       7.297   6.980  45.238  1.00  0.00     0.063 C
HETATM   27  C17 UNL     1       9.711   6.943  44.909  1.00  0.00     0.097 C
HETATM   28  N3  UNL     1      10.731   6.891  45.463  1.00  0.00    -0.194 NA
ENDBRANCH  23  24
ENDBRANCH  21  23
ENDBRANCH  20  21
ENDBRANCH  18  20
ENDBRANCH   3  18
TORSDOF 10
ENDMDL