MODEL 3
REMARK VINA RESULT: -7.546299524      4.726      7.321
REMARK  10 active torsions:
REMARK  status: ('A' for Active; 'I' for Inactive)
REMARK    1  A    between atoms: C2_2  and  C4_4
REMARK    2  A    between atoms: C5_5  and  O1_6
REMARK    3  A    between atoms: O1_6  and  C6_7
REMARK    4  A    between atoms: C8_10  and  O3_11
REMARK    5  A    between atoms: O3_11  and  C9_12
REMARK    6  A    between atoms: C9_12  and  C10_14
REMARK    7  A    between atoms: C10_14  and  C11_15
REMARK    8  A    between atoms: C16_22  and  C17_23
REMARK    9  A    between atoms: C17_23  and  C18_24
REMARK   10  A    between atoms: C19_26  and  O8_27
ROOT
HETATM    1  C4  UNL     1       8.953   7.528  42.678  1.00  0.00     0.022 A
HETATM    2  C5  UNL     1       8.957   8.307  43.851  1.00  0.00     0.124 A
HETATM    3  C8  UNL     1       8.529   9.611  43.802  1.00  0.00     0.116 A
HETATM    4  C13 UNL     1       8.098  10.159  42.616  1.00  0.00     0.078 A
HETATM    5  C14 UNL     1       8.099   9.383  41.473  1.00  0.00     0.096 A
HETATM    6  O5  UNL     1       7.694   9.876  40.330  1.00  0.00    -0.274 OA
HETATM    7  C15 UNL     1       7.662   9.218  39.205  1.00  0.00     0.297 A
HETATM    8  O6  UNL     1       7.256   9.770  38.146  1.00  0.00    -0.259 OA
HETATM    9  C16 UNL     1       8.068   7.894  39.129  1.00  0.00     0.058 A
HETATM   10  C19 UNL     1       8.509   7.316  40.311  1.00  0.00     0.092 A
HETATM   11  C20 UNL     1       8.528   8.053  41.490  1.00  0.00     0.045 A
ENDROOT
BRANCH   3  12
HETATM   12  O3  UNL     1       8.522  10.414  44.961  1.00  0.00    -0.276 OA
BRANCH  12  13
HETATM   13  C9  UNL     1       7.337  11.014  45.362  1.00  0.00     0.264 C
HETATM   14  O4  UNL     1       6.408  10.256  45.727  1.00  0.00    -0.265 OA
BRANCH  13  15
HETATM   15  C10 UNL     1       7.152  12.508  45.369  1.00  0.00     0.111 C
BRANCH  15  16
HETATM   16  C11 UNL     1       5.700  12.875  45.449  1.00  0.00     0.005 C
HETATM   17  C12 UNL     1       5.115  13.174  44.102  1.00  0.00     0.005 C
ENDBRANCH  15  16
ENDBRANCH  13  15
ENDBRANCH  12  13
ENDBRANCH   3  12
BRANCH   2  18
HETATM   18  O1  UNL     1       9.395   7.734  45.031  1.00  0.00    -0.275 OA
BRANCH  18  19
HETATM   19  C6  UNL     1       8.565   7.285  46.041  1.00  0.00     0.260 C
HETATM   20  C7  UNL     1       7.141   6.909  45.831  1.00  0.00     0.126 C
HETATM   21  O2  UNL     1       9.039   7.188  47.199  1.00  0.00    -0.265 OA
ENDBRANCH  18  19
ENDBRANCH   2  18
BRANCH   1  22
HETATM   22  C2  UNL     1       9.414   6.151  42.750  1.00  0.00    -0.057 C
HETATM   23  C1  UNL     1       8.619   5.114  42.978  1.00  0.00     0.019 C
HETATM   24  C3  UNL     1      10.900   5.942  42.593  1.00  0.00     0.048 C
ENDBRANCH   1  22
BRANCH  10  25
HETATM   25  O8  UNL     1       8.912   6.018  40.265  1.00  0.00    -0.359 OA
ATOM     26  H8  UNL     1       9.490   5.713  40.955  1.00  0.00     0.217 HD
ENDBRANCH  10  25
BRANCH   9  27
HETATM   27  C17 UNL     1       8.011   7.189  37.822  1.00  0.00     0.117 C
BRANCH  27  28
HETATM   28  C18 UNL     1       9.378   7.121  37.218  1.00  0.00     0.236 C
HETATM   29  O7  UNL     1      10.099   6.163  37.420  1.00  0.00    -0.307 OA
ENDBRANCH  27  28
ENDBRANCH   9  27
TORSDOF 10
ENDMDL