MODEL 4
REMARK VINA RESULT: -6.541385222      2.767      3.954
REMARK  9 active torsions:
REMARK  status: ('A' for Active; 'I' for Inactive)
REMARK    1  A    between atoms: C2_2  and  C3_3
REMARK    2  A    between atoms: C3_3  and  C4_4
REMARK    3  A    between atoms: C4_4  and  N1_5
REMARK    4  A    between atoms: C7_9  and  C8_10
REMARK    5  A    between atoms: C8_10  and  O3_12
REMARK    6  A    between atoms: C10_14  and  C11_15
REMARK    7  A    between atoms: C11_15  and  O5_17
REMARK    8  A    between atoms: N3_22  and  C14_23
REMARK    9  A    between atoms: C14_23  and  C15_24
ROOT
HETATM    1  N1  UNL     1       6.803  10.604  43.472  1.00  0.00    -0.290 N
HETATM    2  C5  UNL     1       7.778   9.751  43.834  1.00  0.00     0.265 A
HETATM    3  O1  UNL     1       8.345   9.894  44.931  1.00  0.00    -0.267 OA
HETATM    4  C6  UNL     1       8.187   8.703  43.035  1.00  0.00     0.095 A
HETATM    5  C7  UNL     1       9.128   7.694  43.130  1.00  0.00     0.091 A
HETATM    6  C10 UNL     1       9.097   6.910  41.998  1.00  0.00     0.127 A
HETATM    7  N2  UNL     1       8.143   7.434  41.211  1.00  0.00    -0.336 N
ATOM      8  H2  UNL     1       7.880   7.073  40.294  1.00  0.00     0.168 HD
HETATM    9  C13 UNL     1       7.582   8.510  41.810  1.00  0.00     0.127 A
HETATM   10  N3  UNL     1       6.603   9.379  41.463  1.00  0.00    -0.309 N
HETATM   11  C17 UNL     1       6.231  10.393  42.273  1.00  0.00     0.184 A
HETATM   12  S1  UNL     1       5.037  11.412  41.791  1.00  0.00    -0.040 SA
ENDROOT
BRANCH   1  13
HETATM   13  C4  UNL     1       6.362  11.708  44.296  1.00  0.00     0.135 C
BRANCH  13  14
HETATM   14  C3  UNL     1       5.211  11.317  45.200  1.00  0.00     0.020 C
BRANCH  14  15
HETATM   15  C2  UNL     1       4.811  12.567  45.964  1.00  0.00    -0.003 C
HETATM   16  C1  UNL     1       4.330  13.615  44.986  1.00  0.00     0.005 C
ENDBRANCH  14  15
ENDBRANCH  13  14
ENDBRANCH   1  13
BRANCH  10  17
HETATM   17  C14 UNL     1       5.959   9.196  40.190  1.00  0.00     0.133 C
BRANCH  17  18
HETATM   18  C15 UNL     1       6.836   9.717  39.070  1.00  0.00     0.016 C
HETATM   19  C16 UNL     1       6.751   8.706  37.920  1.00  0.00     0.006 C
ENDBRANCH  17  18
ENDBRANCH  10  17
BRANCH   5  20
HETATM   20  C8  UNL     1       9.998   7.524  44.273  1.00  0.00     0.296 C
HETATM   21  O2  UNL     1      11.120   8.112  44.246  1.00  0.00    -0.259 OA
BRANCH  20  22
HETATM   22  O3  UNL     1       9.703   6.779  45.383  1.00  0.00    -0.322 OA
HETATM   23  C9  UNL     1       8.368   6.435  45.733  1.00  0.00     0.213 C
ENDBRANCH  20  22
ENDBRANCH   5  20
BRANCH   6  24
HETATM   24  C11 UNL     1       9.951   5.743  41.737  1.00  0.00     0.310 C
HETATM   25  O4  UNL     1       9.470   4.577  41.762  1.00  0.00    -0.258 OA
BRANCH  24  26
HETATM   26  O5  UNL     1      11.282   5.875  41.461  1.00  0.00    -0.321 OA
HETATM   27  C12 UNL     1      12.264   5.492  42.411  1.00  0.00     0.213 C
ENDBRANCH  24  26
ENDBRANCH   6  24
TORSDOF 9
ENDMDL