MODEL 4
REMARK VINA RESULT: -8.192690386      1.233      1.530
REMARK  15 active torsions:
REMARK  status: ('A' for Active; 'I' for Inactive)
REMARK    1  A    between atoms: C2_2  and  C3_3
REMARK    2  A    between atoms: C3_3  and  C4_5
REMARK    3  A    between atoms: C5_6  and  O2_7
REMARK    4  A    between atoms: C9_12  and  C10_13
REMARK    5  A    between atoms: C10_13  and  O4_15
REMARK    6  A    between atoms: O4_15  and  C11_16
REMARK    7  A    between atoms: C11_16  and  C12_17
REMARK    8  A    between atoms: C12_17  and  C13_19
REMARK    9  A    between atoms: C13_19  and  O6_20
REMARK   10  A    between atoms: C13_19  and  O7_22
REMARK   11  A    between atoms: C15_24  and  O8_25
REMARK   12  A    between atoms: O8_25  and  C16_26
REMARK   13  A    between atoms: C18_28  and  O9_29
REMARK   14  A    between atoms: C23_35  and  O10_36
REMARK   15  A    between atoms: C25_39  and  O11_41
ROOT
HETATM    1  C4  UNL     1       7.502 -18.290 -44.300  1.00  0.00     0.077 A
HETATM    2  C5  UNL     1       7.081 -17.176 -43.572  1.00  0.00     0.082 A
HETATM    3  C6  UNL     1       6.783 -15.988 -44.287  1.00  0.00     0.045 A
HETATM    4  C7  UNL     1       6.891 -15.891 -45.633  1.00  0.00    -0.040 A
HETATM    5  C8  UNL     1       6.568 -14.623 -46.338  1.00  0.00     0.049 C
HETATM    6  C9  UNL     1       7.307 -16.998 -46.382  1.00  0.00     0.080 A
HETATM    7  C15 UNL     1       7.590 -18.157 -45.687  1.00  0.00     0.102 A
ENDROOT
BRANCH   7   8
HETATM    8  O8  UNL     1       7.958 -19.248 -46.458  1.00  0.00    -0.341 OA
BRANCH   8   9
HETATM    9  C16 UNL     1       9.255 -19.732 -46.666  1.00  0.00     0.165 C
HETATM   10  C17 UNL     1      10.334 -18.808 -46.133  1.00  0.00     0.073 C
HETATM   11  C18 UNL     1      11.513 -19.645 -45.735  1.00  0.00     0.066 C
HETATM   12  C19 UNL     1      12.510 -18.718 -45.078  1.00  0.00     0.038 C
HETATM   13  C22 UNL     1      12.198 -20.363 -46.823  1.00  0.00     0.049 C
HETATM   14  C20 UNL     1      13.824 -18.912 -45.756  1.00  0.00     0.004 C
HETATM   15  C21 UNL     1      13.688 -20.204 -46.474  1.00  0.00     0.010 C
HETATM   16  C23 UNL     1      12.021 -19.871 -48.200  1.00  0.00     0.128 C
HETATM   17  C24 UNL     1      10.684 -19.647 -48.726  1.00  0.00     0.072 C
HETATM   18  C25 UNL     1       9.536 -20.301 -48.006  1.00  0.00     0.083 C
HETATM   19  C26 UNL     1       9.693 -21.821 -47.976  1.00  0.00     0.049 C
BRANCH  11  20
HETATM   20  O9  UNL     1      11.111 -20.547 -44.754  1.00  0.00    -0.389 OA
ATOM     21  H9  UNL     1      11.745 -20.531 -44.046  1.00  0.00     0.210 HD
ENDBRANCH  11  20
BRANCH  16  22
HETATM   22  O10 UNL     1      12.759 -18.668 -48.324  1.00  0.00    -0.395 OA
ATOM     23  H10 UNL     1      13.420 -18.803 -48.993  1.00  0.00     0.210 HD
ENDBRANCH  16  22
BRANCH  18  24
HETATM   24  O11 UNL     1       8.414 -20.078 -48.813  1.00  0.00    -0.388 OA
ATOM     25  H11 UNL     1       7.758 -20.728 -48.588  1.00  0.00     0.210 HD
ENDBRANCH  18  24
ENDBRANCH   8   9
ENDBRANCH   7   8
BRANCH   1  26
HETATM   26  C3  UNL     1       8.035 -19.450 -43.585  1.00  0.00     0.164 C
HETATM   27  O1  UNL     1       9.129 -19.278 -42.943  1.00  0.00    -0.292 OA
BRANCH  26  28
HETATM   28  C2  UNL     1       7.477 -20.816 -43.520  1.00  0.00     0.079 C
HETATM   29  C1  UNL     1       6.911 -21.047 -42.086  1.00  0.00     0.013 C
ENDBRANCH  26  28
ENDBRANCH   1  26
BRANCH   6  30
HETATM   30  C10 UNL     1       7.507 -16.783 -47.812  1.00  0.00     0.297 C
HETATM   31  O3  UNL     1       8.701 -16.403 -48.110  1.00  0.00    -0.259 OA
BRANCH  30  32
HETATM   32  O4  UNL     1       6.627 -16.925 -48.824  1.00  0.00    -0.310 OA
BRANCH  32  33
HETATM   33  C11 UNL     1       6.328 -15.947 -49.755  1.00  0.00     0.262 C
BRANCH  33  34
HETATM   34  C12 UNL     1       7.161 -15.887 -50.969  1.00  0.00     0.205 C
HETATM   35  O5  UNL     1       7.533 -14.855 -51.483  1.00  0.00    -0.290 OA
BRANCH  34  36
HETATM   36  C13 UNL     1       7.596 -17.150 -51.636  1.00  0.00     0.329 C
BRANCH  36  37
HETATM   37  O6  UNL     1       8.462 -17.809 -50.770  1.00  0.00    -0.365 OA
ATOM     38  H6  UNL     1       8.313 -18.743 -50.868  1.00  0.00     0.213 HD
ENDBRANCH  36  37
BRANCH  36  39
HETATM   39  O7  UNL     1       6.533 -18.013 -51.874  1.00  0.00    -0.359 OA
HETATM   40  C14 UNL     1       5.918 -17.701 -53.084  1.00  0.00     0.205 C
ENDBRANCH  36  39
ENDBRANCH  34  36
ENDBRANCH  33  34
ENDBRANCH  32  33
ENDBRANCH  30  32
ENDBRANCH   6  30
BRANCH   2  41
HETATM   41  O2  UNL     1       6.934 -17.159 -42.235  1.00  0.00    -0.360 OA
ATOM     42  H2  UNL     1       6.231 -16.709 -41.781  1.00  0.00     0.217 HD
ENDBRANCH   2  41
TORSDOF 15
ENDMDL