MODEL 2
REMARK VINA RESULT: -8.634208804      1.742      2.170
REMARK  14 active torsions:
REMARK  status: ('A' for Active; 'I' for Inactive)
REMARK    1  A    between atoms: C2_2  and  C4_4
REMARK    2  A    between atoms: C4_4  and  O1_5
REMARK    3  A    between atoms: O1_5  and  C5_6
REMARK    4  A    between atoms: C6_7  and  O2_8
REMARK    5  A    between atoms: O2_8  and  C7_9
REMARK    6  A    between atoms: C9_13  and  O5_15
REMARK    7  A    between atoms: C14_21  and  C15_22
REMARK    8  A    between atoms: C15_22  and  C16_23
REMARK    9  A    between atoms: C16_23  and  C18_25
REMARK   10  A    between atoms: C18_25  and  C19_26
REMARK   11  A    between atoms: C22_29  and  O7_30
REMARK   12  A    between atoms: C24_34  and  O9_35
REMARK   13  A    between atoms: C25_37  and  O10_38
REMARK   14  A    between atoms: C26_40  and  O11_41
ROOT
HETATM    1  C7  UNL     1       8.022 -18.989 -45.265  1.00  0.00     0.276 C
HETATM    2  O3  UNL     1       8.366 -20.168 -45.938  1.00  0.00    -0.328 OA
HETATM    3  C8  UNL     1       9.707 -20.163 -45.920  1.00  0.00     0.302 C
HETATM    4  O4  UNL     1      10.471 -21.246 -46.096  1.00  0.00    -0.323 OA
HETATM    5  C9  UNL     1      11.789 -20.773 -46.224  1.00  0.00     0.161 C
HETATM    6  C10 UNL     1      12.032 -20.985 -47.746  1.00  0.00     0.078 C
HETATM    7  C11 UNL     1      12.072 -19.363 -45.959  1.00  0.00     0.071 C
HETATM    8  C12 UNL     1      11.162 -18.605 -44.979  1.00  0.00     0.050 C
HETATM    9  C13 UNL     1      10.129 -19.579 -44.603  1.00  0.00     0.128 C
HETATM   10  O6  UNL     1      10.733 -20.441 -43.690  1.00  0.00    -0.335 OA
HETATM   11  C14 UNL     1      10.439 -20.185 -42.363  1.00  0.00     0.069 C
HETATM   12  C21 UNL     1       9.651 -19.230 -41.939  1.00  0.00     0.042 C
HETATM   13  C22 UNL     1       8.970 -18.295 -42.947  1.00  0.00     0.155 C
HETATM   14  C23 UNL     1       8.822 -19.194 -44.060  1.00  0.00     0.114 C
ENDROOT
BRANCH   1  15
HETATM   15  O2  UNL     1       8.263 -17.822 -45.932  1.00  0.00    -0.328 OA
BRANCH  15  16
HETATM   16  C6  UNL     1       7.109 -17.301 -46.520  1.00  0.00     0.297 C
HETATM   17  C5  UNL     1       7.303 -15.970 -47.148  1.00  0.00     0.208 C
HETATM   18  C26 UNL     1       8.043 -16.081 -48.491  1.00  0.00     0.185 C
HETATM   19  C25 UNL     1       7.124 -16.894 -49.365  1.00  0.00     0.204 C
HETATM   20  C24 UNL     1       6.910 -18.229 -48.681  1.00  0.00     0.291 C
HETATM   21  O8  UNL     1       6.597 -18.213 -47.380  1.00  0.00    -0.326 OA
BRANCH  17  22
HETATM   22  O1  UNL     1       6.008 -15.470 -47.416  1.00  0.00    -0.374 OA
BRANCH  22  23
HETATM   23  C4  UNL     1       5.637 -14.546 -46.428  1.00  0.00     0.201 C
BRANCH  23  24
HETATM   24  C2  UNL     1       5.713 -13.186 -46.994  1.00  0.00    -0.070 C
HETATM   25  C1  UNL     1       6.750 -12.533 -47.305  1.00  0.00     0.016 C
HETATM   26  C3  UNL     1       4.366 -12.519 -47.234  1.00  0.00     0.044 C
ENDBRANCH  23  24
ENDBRANCH  22  23
ENDBRANCH  17  22
BRANCH  18  27
HETATM   27  O11 UNL     1       9.232 -16.765 -48.234  1.00  0.00    -0.390 OA
ATOM     28  H11 UNL     1       9.088 -17.666 -48.500  1.00  0.00     0.210 HD
ENDBRANCH  18  27
BRANCH  19  29
HETATM   29  O10 UNL     1       7.761 -17.038 -50.591  1.00  0.00    -0.388 OA
ATOM     30  H10 UNL     1       8.665 -17.313 -50.490  1.00  0.00     0.210 HD
ENDBRANCH  19  29
BRANCH  20  31
HETATM   31  O9  UNL     1       8.113 -18.952 -48.859  1.00  0.00    -0.368 OA
ATOM     32  H9  UNL     1       8.065 -19.441 -49.672  1.00  0.00     0.212 HD
ENDBRANCH  20  31
ENDBRANCH  15  16
ENDBRANCH   1  15
BRANCH  13  33
HETATM   33  O7  UNL     1       7.777 -17.829 -42.375  1.00  0.00    -0.391 OA
ATOM     34  H7  UNL     1       7.573 -16.986 -42.762  1.00  0.00     0.210 HD
ENDBRANCH  13  33
BRANCH   5  35
HETATM   35  O5  UNL     1      12.690 -21.689 -45.642  1.00  0.00    -0.365 OA
ATOM     36  H5  UNL     1      13.272 -21.236 -45.041  1.00  0.00     0.213 HD
ENDBRANCH   5  35
BRANCH  11  37
HETATM   37  C15 UNL     1      11.075 -21.097 -41.302  1.00  0.00     0.042 C
BRANCH  37  38
HETATM   38  C16 UNL     1      10.319 -21.828 -40.630  1.00  0.00    -0.065 C
HETATM   39  C17 UNL     1       9.470 -22.645 -39.880  1.00  0.00     0.019 C
BRANCH  38  40
HETATM   40  C18 UNL     1      11.787 -22.657 -39.932  1.00  0.00     0.037 C
BRANCH  40  41
HETATM   41  C19 UNL     1      11.984 -22.026 -38.678  1.00  0.00     0.000 C
HETATM   42  C20 UNL     1      13.229 -21.744 -37.967  1.00  0.00     0.005 C
ENDBRANCH  40  41
ENDBRANCH  38  40
ENDBRANCH  37  38
ENDBRANCH  11  37
TORSDOF 14
ENDMDL