MODEL 5
REMARK VINA RESULT: -6.838985636      2.160      5.702
REMARK  15 active torsions:
REMARK  status: ('A' for Active; 'I' for Inactive)
REMARK    1  A    between atoms: O1_2  and  C2_3
REMARK    2  A    between atoms: C6_7  and  O2_8
REMARK    3  A    between atoms: C8_10  and  O3_11
REMARK    4  A    between atoms: C10_13  and  N1_14
REMARK    5  A    between atoms: N1_14  and  O4_15
REMARK    6  A    between atoms: N1_14  and  C11_17
REMARK    7  A    between atoms: C11_17  and  C13_19
REMARK    8  A    between atoms: C13_19  and  O5_20
REMARK    9  A    between atoms: C13_19  and  C14_22
REMARK   10  A    between atoms: C14_22  and  C15_23
REMARK   11  A    between atoms: C19_27  and  O6_28
REMARK   12  A    between atoms: O6_28  and  C20_29
REMARK   13  A    between atoms: C22_32  and  O8_33
REMARK   14  A    between atoms: C24_36  and  O9_37
REMARK   15  A    between atoms: C24_36  and  O10_39
ROOT
HETATM    1  C2  UNL     1       8.220 -18.067 -47.918  1.00  0.00     0.104 A
HETATM    2  C3  UNL     1       9.465 -18.655 -48.019  1.00  0.00     0.048 A
HETATM    3  C4  UNL     1      10.143 -19.030 -46.891  1.00  0.00    -0.032 A
HETATM    4  C5  UNL     1       9.619 -18.834 -45.596  1.00  0.00     0.038 A
HETATM    5  C6  UNL     1       8.375 -18.240 -45.544  1.00  0.00     0.117 A
HETATM    6  C8  UNL     1       7.651 -17.851 -46.684  1.00  0.00     0.136 A
HETATM    7  C10 UNL     1      10.471 -19.091 -44.445  1.00  0.00     0.104 C
HETATM    8  C19 UNL     1      11.758 -19.461 -44.659  1.00  0.00     0.121 C
HETATM    9  C22 UNL     1      12.316 -19.558 -45.966  1.00  0.00     0.122 C
HETATM   10  C23 UNL     1      13.342 -20.590 -46.301  1.00  0.00     0.113 C
HETATM   11  C24 UNL     1      13.543 -20.224 -47.800  1.00  0.00     0.163 C
HETATM   12  C25 UNL     1      12.204 -19.596 -48.242  1.00  0.00     0.081 C
HETATM   13  C26 UNL     1      11.331 -19.849 -47.033  1.00  0.00     0.066 C
ENDROOT
BRANCH   7  14
HETATM   14  N1  UNL     1       9.994 -19.071 -43.117  1.00  0.00    -0.251 N
BRANCH  14  15
HETATM   15  O4  UNL     1      10.533 -18.039 -42.362  1.00  0.00    -0.287 OA
ATOM     16  H4  UNL     1      10.351 -18.123 -41.434  1.00  0.00     0.244 HD
ENDBRANCH  14  15
BRANCH  14  17
HETATM   17  C11 UNL     1       9.198 -19.997 -42.400  1.00  0.00     0.139 C
HETATM   18  C12 UNL     1       9.817 -20.868 -41.368  1.00  0.00     0.037 C
BRANCH  17  19
HETATM   19  C13 UNL     1       8.526 -20.993 -43.383  1.00  0.00     0.143 C
BRANCH  19  20
HETATM   20  O5  UNL     1       7.164 -20.725 -43.323  1.00  0.00    -0.393 OA
ATOM     21  H5  UNL     1       6.818 -21.292 -42.645  1.00  0.00     0.210 HD
ENDBRANCH  19  20
BRANCH  19  22
HETATM   22  C14 UNL     1       8.832 -22.387 -42.861  1.00  0.00     0.042 C
BRANCH  22  23
HETATM   23  C15 UNL     1       9.028 -23.407 -43.927  1.00  0.00    -0.049 C
HETATM   24  C16 UNL     1       9.452 -22.791 -45.226  1.00  0.00     0.014 C
HETATM   25  C17 UNL     1       9.938 -24.538 -43.502  1.00  0.00     0.014 C
HETATM   26  C18 UNL     1       7.654 -24.044 -44.176  1.00  0.00     0.014 C
ENDBRANCH  22  23
ENDBRANCH  19  22
ENDBRANCH  17  19
ENDBRANCH  14  17
ENDBRANCH   7  14
BRANCH   8  27
HETATM   27  O6  UNL     1      12.481 -19.706 -43.491  1.00  0.00    -0.278 OA
BRANCH  27  28
HETATM   28  C20 UNL     1      13.003 -20.959 -43.277  1.00  0.00     0.259 C
HETATM   29  C21 UNL     1      14.428 -21.207 -42.935  1.00  0.00     0.126 C
HETATM   30  O7  UNL     1      12.273 -21.973 -43.367  1.00  0.00    -0.265 OA
ENDBRANCH  27  28
ENDBRANCH   8  27
BRANCH   5  31
HETATM   31  O2  UNL     1       7.721 -17.951 -44.383  1.00  0.00    -0.352 OA
HETATM   32  C7  UNL     1       7.746 -16.628 -43.835  1.00  0.00     0.210 C
ENDBRANCH   5  31
BRANCH   9  33
HETATM   33  O8  UNL     1      12.937 -18.318 -46.355  1.00  0.00    -0.382 OA
ATOM     34  H8  UNL     1      13.758 -18.476 -46.807  1.00  0.00     0.211 HD
ENDBRANCH   9  33
BRANCH   6  35
HETATM   35  O3  UNL     1       6.418 -17.271 -46.673  1.00  0.00    -0.351 OA
HETATM   36  C9  UNL     1       6.041 -15.952 -46.821  1.00  0.00     0.210 C
ENDBRANCH   6  35
BRANCH   1  37
HETATM   37  O1  UNL     1       7.525 -17.686 -49.066  1.00  0.00    -0.353 OA
HETATM   38  C1  UNL     1       8.077 -18.046 -50.315  1.00  0.00     0.210 C
ENDBRANCH   1  37
BRANCH  11  39
HETATM   39  O9  UNL     1      14.564 -19.288 -47.823  1.00  0.00    -0.365 OA
ATOM     40  H9  UNL     1      15.371 -19.788 -47.815  1.00  0.00     0.213 HD
ENDBRANCH  11  39
BRANCH  11  41
HETATM   41  O10 UNL     1      13.822 -21.360 -48.548  1.00  0.00    -0.365 OA
ATOM     42  H10 UNL     1      13.755 -21.174 -49.477  1.00  0.00     0.213 HD
ENDBRANCH  11  41
TORSDOF 15
ENDMDL