MODEL 2
REMARK VINA RESULT: -9.020744233      1.958      3.063
REMARK  13 active torsions:
REMARK  status: ('A' for Active; 'I' for Inactive)
REMARK    1  A    between atoms: C2_2  and  C3_4
REMARK    2  A    between atoms: C5_7  and  N1_8
REMARK       I    between atoms: N1_8  and  C6_10
REMARK    3  A    between atoms: C6_10  and  C7_12
REMARK    4  A    between atoms: C7_12  and  C10_15
REMARK    5  A    between atoms: C10_15  and  C11_17
REMARK    6  A    between atoms: C11_17  and  O4_18
REMARK    7  A    between atoms: C11_17  and  N2_20
REMARK    8  A    between atoms: C13_24  and  C14_25
REMARK    9  A    between atoms: C14_25  and  O5_26
REMARK   10  A    between atoms: C14_25  and  C15_28
REMARK   11  A    between atoms: C15_28  and  C16_29
REMARK   12  A    between atoms: C16_29  and  O6_32
REMARK   13  A    between atoms: C20_38  and  C21_39
ROOT
HETATM    1  C11 UNL     1       8.891 -21.409 -42.978  1.00  0.00     0.291 C
ENDROOT
BRANCH   1   2
HETATM    2  C10 UNL     1       8.022 -20.429 -42.304  1.00  0.00     0.192 C
HETATM    3  O3  UNL     1       6.847 -20.776 -42.118  1.00  0.00    -0.292 OA
BRANCH   2   4
HETATM    4  C7  UNL     1       8.541 -19.106 -41.878  1.00  0.00     0.099 C
HETATM    5  C8  UNL     1       9.946 -19.156 -41.329  1.00  0.00     0.033 C
HETATM    6  C9  UNL     1       7.658 -18.579 -40.764  1.00  0.00     0.033 C
BRANCH   4   7
HETATM    7  C6  UNL     1       8.462 -18.184 -43.069  1.00  0.00     0.238 C
HETATM    8  N1  UNL     1       7.324 -18.126 -43.870  1.00  0.00    -0.319 N
ATOM      9  H1  UNL     1       6.554 -18.718 -43.559  1.00  0.00     0.169 HD
HETATM   10  O2  UNL     1       9.482 -17.502 -43.255  1.00  0.00    -0.272 OA
BRANCH   8  11
HETATM   11  C5  UNL     1       7.062 -17.383 -45.037  1.00  0.00     0.094 A
HETATM   12  S1  UNL     1       7.468 -18.082 -46.594  1.00  0.00    -0.082 SA
HETATM   13  C4  UNL     1       6.959 -16.831 -47.596  1.00  0.00     0.068 A
HETATM   14  C3  UNL     1       6.478 -15.869 -46.711  1.00  0.00     0.036 A
HETATM   15  C20 UNL     1       6.552 -16.175 -45.390  1.00  0.00     0.088 A
BRANCH  14  16
HETATM   16  C2  UNL     1       5.838 -14.689 -47.340  1.00  0.00     0.157 C
HETATM   17  C1  UNL     1       6.712 -13.636 -48.011  1.00  0.00     0.097 C
HETATM   18  O1  UNL     1       4.624 -14.517 -47.343  1.00  0.00    -0.293 OA
ENDBRANCH  14  16
BRANCH  15  19
HETATM   19  C21 UNL     1       6.425 -15.104 -44.358  1.00  0.00     0.213 C
HETATM   20  O7  UNL     1       5.776 -15.391 -43.291  1.00  0.00    -0.644 OA
HETATM   21  O8  UNL     1       6.918 -13.837 -44.404  1.00  0.00    -0.644 OA
ENDBRANCH  15  19
ENDBRANCH   8  11
ENDBRANCH   4   7
ENDBRANCH   2   4
ENDBRANCH   1   2
BRANCH   1  22
HETATM   22  O4  UNL     1       9.142 -22.531 -42.191  1.00  0.00    -0.370 OA
ATOM     23  H4  UNL     1       8.479 -23.203 -42.291  1.00  0.00     0.212 HD
ENDBRANCH   1  22
BRANCH   1  24
HETATM   24  N2  UNL     1       8.272 -21.775 -44.235  1.00  0.00    -0.337 N
HETATM   25  C12 UNL     1       8.852 -21.451 -45.369  1.00  0.00     0.165 A
HETATM   26  S2  UNL     1      10.315 -20.614 -45.667  1.00  0.00    -0.035 SA
HETATM   27  N4  UNL     1       8.427 -21.705 -46.609  1.00  0.00    -0.275 N
HETATM   28  C13 UNL     1      10.258 -20.660 -47.386  1.00  0.00     0.098 A
HETATM   29  N3  UNL     1       9.133 -21.307 -47.586  1.00  0.00    -0.291 N
ATOM     30  H3  UNL     1       8.822 -21.493 -48.539  1.00  0.00     0.187 HD
HETATM   31  C19 UNL     1       7.152 -22.438 -46.808  1.00  0.00     0.180 C
ATOM     32  H2  UNL     1       7.387 -22.283 -44.240  1.00  0.00     0.164 HD
BRANCH  28  33
HETATM   33  C14 UNL     1      11.244 -20.103 -48.386  1.00  0.00     0.179 C
BRANCH  33  34
HETATM   34  O5  UNL     1      10.594 -19.246 -49.270  1.00  0.00    -0.389 OA
ATOM     35  H5  UNL     1      11.125 -18.472 -49.422  1.00  0.00     0.210 HD
ENDBRANCH  33  34
BRANCH  33  36
HETATM   36  C15 UNL     1      12.244 -19.313 -47.571  1.00  0.00     0.075 C
BRANCH  36  37
HETATM   37  C16 UNL     1      13.568 -20.034 -47.454  1.00  0.00     0.053 C
HETATM   38  C17 UNL     1      13.455 -21.416 -48.029  1.00  0.00     0.045 C
HETATM   39  C18 UNL     1      13.897 -20.118 -45.973  1.00  0.00     0.045 C
BRANCH  37  40
HETATM   40  O6  UNL     1      14.568 -19.337 -48.097  1.00  0.00    -0.391 OA
ATOM     41  H6  UNL     1      15.425 -19.668 -47.851  1.00  0.00     0.210 HD
ENDBRANCH  37  40
ENDBRANCH  36  37
ENDBRANCH  33  36
ENDBRANCH  28  33
ENDBRANCH   1  24
TORSDOF 13
ENDMDL