MODEL 3
REMARK VINA RESULT: -7.649561305      1.296      1.601
REMARK  14 active torsions:
REMARK  status: ('A' for Active; 'I' for Inactive)
REMARK    1  A    between atoms: C2_2  and  C3_3
REMARK    2  A    between atoms: C3_3  and  C5_5
REMARK    3  A    between atoms: C5_5  and  O2_7
REMARK    4  A    between atoms: O2_7  and  C6_8
REMARK    5  A    between atoms: C7_9  and  C8_10
REMARK    6  A    between atoms: C8_10  and  O3_11
REMARK    7  A    between atoms: C8_10  and  C9_13
REMARK    8  A    between atoms: C9_13  and  O4_14
REMARK    9  A    between atoms: C11_18  and  O6_19
REMARK   10  A    between atoms: O6_19  and  C12_20
REMARK   11  A    between atoms: C14_23  and  C15_24
REMARK   12  A    between atoms: C18_29  and  O10_30
REMARK   13  A    between atoms: C20_33  and  C21_34
REMARK   14  A    between atoms: C24_38  and  O12_40
ROOT
HETATM    1  C6  UNL     1       6.591 -16.899 -48.963  1.00  0.00     0.204 C
HETATM    2  C7  UNL     1       7.040 -17.369 -50.303  1.00  0.00     0.005 C
HETATM    3  C10 UNL     1       8.196 -18.024 -50.399  1.00  0.00     0.146 C
HETATM    4  O5  UNL     1       9.034 -18.309 -49.322  1.00  0.00    -0.329 OA
HETATM    5  C11 UNL     1       8.443 -18.093 -48.022  1.00  0.00     0.305 C
HETATM    6  C24 UNL     1       7.881 -16.684 -48.172  1.00  0.00     0.135 C
HETATM    7  C25 UNL     1       7.743 -15.909 -46.936  1.00  0.00     0.054 C
ENDROOT
BRANCH   5   8
HETATM    8  O6  UNL     1       9.269 -18.255 -46.984  1.00  0.00    -0.318 OA
BRANCH   8   9
HETATM    9  C12 UNL     1       9.100 -19.338 -46.127  1.00  0.00     0.192 C
HETATM   10  C13 UNL     1       7.641 -19.532 -45.855  1.00  0.00     0.085 C
HETATM   11  O7  UNL     1       9.566 -20.454 -46.766  1.00  0.00    -0.305 OA
HETATM   12  C14 UNL     1      10.903 -20.610 -46.887  1.00  0.00     0.261 C
HETATM   13  C16 UNL     1      11.567 -21.419 -45.806  1.00  0.00     0.086 C
HETATM   14  O11 UNL     1      11.629 -19.401 -46.991  1.00  0.00    -0.306 OA
HETATM   15  C17 UNL     1      12.796 -20.587 -45.410  1.00  0.00     0.079 C
HETATM   16  C18 UNL     1      12.233 -19.202 -45.784  1.00  0.00     0.185 C
HETATM   17  C19 UNL     1      11.193 -18.917 -44.763  1.00  0.00     0.049 C
HETATM   18  C20 UNL     1       9.883 -18.977 -44.914  1.00  0.00    -0.014 C
BRANCH  12  19
HETATM   19  C15 UNL     1      11.184 -21.320 -48.161  1.00  0.00     0.239 C
HETATM   20  O8  UNL     1      10.688 -20.886 -49.221  1.00  0.00    -0.644 OA
HETATM   21  O9  UNL     1      11.979 -22.453 -48.219  1.00  0.00    -0.644 OA
ENDBRANCH  12  19
BRANCH  16  22
HETATM   22  O10 UNL     1      13.256 -18.293 -45.829  1.00  0.00    -0.362 OA
ATOM     23  H10 UNL     1      12.897 -17.414 -45.794  1.00  0.00     0.213 HD
ENDBRANCH  16  22
BRANCH  18  24
HETATM   24  C21 UNL     1       9.110 -18.599 -43.713  1.00  0.00     0.012 C
HETATM   25  C22 UNL     1      10.051 -18.754 -42.524  1.00  0.00     0.014 C
HETATM   26  C23 UNL     1       8.775 -17.092 -43.735  1.00  0.00     0.014 C
ENDBRANCH  18  24
ENDBRANCH   8   9
ENDBRANCH   5   8
BRANCH   6  27
HETATM   27  O12 UNL     1       8.712 -15.931 -49.037  1.00  0.00    -0.382 OA
ATOM     28  H12 UNL     1       8.949 -16.535 -49.731  1.00  0.00     0.210 HD
ENDBRANCH   6  27
BRANCH   1  29
HETATM   29  O2  UNL     1       5.709 -15.846 -48.935  1.00  0.00    -0.308 OA
BRANCH  29  30
HETATM   30  C5  UNL     1       4.412 -16.029 -48.491  1.00  0.00     0.263 C
HETATM   31  O1  UNL     1       3.862 -17.129 -48.754  1.00  0.00    -0.265 OA
BRANCH  30  32
HETATM   32  C3  UNL     1       3.638 -15.030 -47.738  1.00  0.00     0.081 C
HETATM   33  C4  UNL     1       2.839 -14.158 -48.681  1.00  0.00     0.020 C
BRANCH  32  34
HETATM   34  C2  UNL     1       4.497 -14.187 -46.809  1.00  0.00     0.010 C
HETATM   35  C1  UNL     1       4.494 -12.741 -47.212  1.00  0.00     0.006 C
ENDBRANCH  32  34
ENDBRANCH  30  32
ENDBRANCH  29  30
ENDBRANCH   1  29
BRANCH   2  36
HETATM   36  C8  UNL     1       6.299 -17.144 -51.559  1.00  0.00     0.175 C
BRANCH  36  37
HETATM   37  O3  UNL     1       4.971 -17.527 -51.424  1.00  0.00    -0.389 OA
ATOM     38  H3  UNL     1       4.401 -16.768 -51.400  1.00  0.00     0.210 HD
ENDBRANCH  36  37
BRANCH  36  39
HETATM   39  C9  UNL     1       6.852 -17.859 -52.756  1.00  0.00     0.200 C
BRANCH  39  40
HETATM   40  O4  UNL     1       6.075 -17.676 -53.897  1.00  0.00    -0.398 OA
ATOM     41  H4  UNL     1       6.597 -17.510 -54.672  1.00  0.00     0.209 HD
ENDBRANCH  39  40
ENDBRANCH  36  39
ENDBRANCH   2  36
TORSDOF 14
ENDMDL