MODEL 1
REMARK VINA RESULT: -8.071243969      0.000      0.000
REMARK  14 active torsions:
REMARK  status: ('A' for Active; 'I' for Inactive)
REMARK    1  A    between atoms: C2_2  and  C3_3
REMARK    2  A    between atoms: C3_3  and  C4_4
REMARK    3  A    between atoms: C4_4  and  C5_5
REMARK    4  A    between atoms: C12_15  and  O1_16
REMARK    5  A    between atoms: O1_16  and  C13_17
REMARK    6  A    between atoms: C16_21  and  O3_22
REMARK    7  A    between atoms: C17_24  and  O4_25
REMARK    8  A    between atoms: C18_27  and  O5_28
REMARK    9  A    between atoms: C19_31  and  C20_32
REMARK   10  A    between atoms: C22_34  and  C23_35
REMARK   11  A    between atoms: C23_35  and  O7_36
REMARK   12  A    between atoms: C23_35  and  O8_38
REMARK   13  A    between atoms: O8_38  and  C24_39
REMARK   14  A    between atoms: C24_39  and  C25_41
ROOT
HETATM    1  C5  UNL     1      12.606 -21.242 -44.658  1.00  0.00     0.187 C
HETATM    2  C6  UNL     1      12.691 -19.845 -44.139  1.00  0.00     0.035 C
HETATM    3  C7  UNL     1      11.321 -19.253 -44.509  1.00  0.00     0.044 C
HETATM    4  C8  UNL     1      10.844 -20.096 -45.686  1.00  0.00     0.159 C
HETATM    5  N1  UNL     1      11.307 -21.424 -45.224  1.00  0.00    -0.059 N
ATOM      6  H11 UNL     1      10.653 -21.877 -44.586  1.00  0.00     0.278 HD
ATOM      7  H12 UNL     1      11.286 -22.132 -45.958  1.00  0.00     0.278 HD
HETATM    8  C9  UNL     1      11.642 -19.816 -46.919  1.00  0.00     0.025 C
HETATM    9  C10 UNL     1      11.966 -18.360 -47.123  1.00  0.00     0.012 C
HETATM   10  C11 UNL     1      10.913 -20.347 -48.102  1.00  0.00     0.067 C
HETATM   11  C12 UNL     1       9.479 -19.919 -48.161  1.00  0.00     0.264 C
HETATM   12  O6  UNL     1       8.822 -19.809 -47.016  1.00  0.00    -0.349 OA
HETATM   13  C19 UNL     1       9.375 -20.112 -45.809  1.00  0.00     0.189 C
ENDROOT
BRANCH  11  14
HETATM   14  O1  UNL     1       9.461 -18.679 -48.818  1.00  0.00    -0.329 OA
BRANCH  14  15
HETATM   15  C13 UNL     1       8.192 -18.361 -49.305  1.00  0.00     0.294 C
HETATM   16  O2  UNL     1       8.322 -18.196 -50.662  1.00  0.00    -0.351 OA
HETATM   17  C14 UNL     1       7.224 -17.712 -51.321  1.00  0.00     0.152 C
HETATM   18  C15 UNL     1       7.661 -16.484 -52.096  1.00  0.00     0.042 C
HETATM   19  C16 UNL     1       6.047 -17.399 -50.451  1.00  0.00     0.178 C
HETATM   20  C17 UNL     1       6.427 -16.672 -49.189  1.00  0.00     0.183 C
HETATM   21  C18 UNL     1       7.778 -17.041 -48.662  1.00  0.00     0.204 C
BRANCH  19  22
HETATM   22  O3  UNL     1       5.178 -16.599 -51.184  1.00  0.00    -0.390 OA
ATOM     23  H3  UNL     1       4.994 -15.823 -50.668  1.00  0.00     0.210 HD
ENDBRANCH  19  22
BRANCH  20  24
HETATM   24  O4  UNL     1       6.380 -15.278 -49.398  1.00  0.00    -0.390 OA
ATOM     25  H4  UNL     1       5.531 -14.937 -49.143  1.00  0.00     0.210 HD
ENDBRANCH  20  24
BRANCH  21  26
HETATM   26  O5  UNL     1       8.688 -16.045 -48.944  1.00  0.00    -0.388 OA
ATOM     27  H5  UNL     1       8.421 -15.219 -48.558  1.00  0.00     0.210 HD
ENDBRANCH  21  26
ENDBRANCH  14  15
ENDBRANCH  11  14
BRANCH  13  28
HETATM   28  C20 UNL     1       8.635 -19.309 -44.785  1.00  0.00    -0.052 C
HETATM   29  C21 UNL     1       8.197 -19.946 -43.515  1.00  0.00     0.046 C
HETATM   30  C22 UNL     1       8.339 -18.030 -44.953  1.00  0.00     0.038 C
BRANCH  30  31
HETATM   31  C23 UNL     1       7.605 -17.268 -43.916  1.00  0.00     0.291 C
BRANCH  31  32
HETATM   32  O7  UNL     1       8.346 -16.179 -43.453  1.00  0.00    -0.367 OA
ATOM     33  H7  UNL     1       8.155 -15.985 -42.544  1.00  0.00     0.213 HD
ENDBRANCH  31  32
BRANCH  31  34
HETATM   34  O8  UNL     1       6.367 -16.787 -44.364  1.00  0.00    -0.280 OA
BRANCH  34  35
HETATM   35  C24 UNL     1       6.052 -15.433 -44.212  1.00  0.00     0.331 C
HETATM   36  O9  UNL     1       5.958 -14.935 -43.062  1.00  0.00    -0.256 OA
BRANCH  35  37
HETATM   37  C25 UNL     1       5.829 -14.588 -45.372  1.00  0.00     0.220 C
HETATM   38  C26 UNL     1       4.789 -14.955 -46.364  1.00  0.00     0.103 C
HETATM   39  O10 UNL     1       6.539 -13.540 -45.511  1.00  0.00    -0.287 OA
ENDBRANCH  35  37
ENDBRANCH  34  35
ENDBRANCH  31  34
ENDBRANCH  30  31
ENDBRANCH  13  28
BRANCH   1  40
HETATM   40  C4  UNL     1      12.777 -22.278 -43.555  1.00  0.00     0.036 C
BRANCH  40  41
HETATM   41  C3  UNL     1      13.043 -21.637 -42.210  1.00  0.00     0.028 C
BRANCH  41  42
HETATM   42  C2  UNL     1      11.965 -22.023 -41.285  1.00  0.00    -0.037 C
HETATM   43  C1  UNL     1      10.868 -21.289 -41.202  1.00  0.00     0.007 C
ENDBRANCH  41  42
ENDBRANCH  40  41
ENDBRANCH   1  40
TORSDOF 14
ENDMDL