MODEL 2
REMARK VINA RESULT: -8.143445584      3.182      5.424
REMARK  13 active torsions:
REMARK  status: ('A' for Active; 'I' for Inactive)
REMARK    1  A    between atoms: C2_2  and  C4_4
REMARK    2  A    between atoms: C4_4  and  C5_5
REMARK    3  A    between atoms: C5_5  and  O1_6
REMARK    4  A    between atoms: O1_6  and  C6_7
REMARK       I    between atoms: C6_7  and  N1_9
REMARK    5  A    between atoms: N1_9  and  C7_10
REMARK    6  A    between atoms: C9_12  and  C10_13
REMARK       I    between atoms: C10_13  and  N2_15
REMARK    7  A    between atoms: N2_15  and  N3_17
REMARK    8  A    between atoms: N3_17  and  C11_19
REMARK    9  A    between atoms: C13_21  and  O4_22
REMARK   10  A    between atoms: C14_26  and  O5_27
REMARK       I    between atoms: N5_29  and  C15_30
REMARK   11  A    between atoms: C15_30  and  C16_32
REMARK       I    between atoms: C16_32  and  N6_34
REMARK   12  A    between atoms: N6_34  and  O8_36
REMARK   13  A    between atoms: O8_36  and  S1_37
ROOT
HETATM    1  C7  UNL     1       7.455 -15.398 -48.545  1.00  0.00     0.193 C
HETATM    2  C8  UNL     1       8.379 -16.601 -48.122  1.00  0.00     0.104 C
HETATM    3  C9  UNL     1       8.045 -17.570 -49.208  1.00  0.00     0.087 C
HETATM    4  N5  UNL     1       6.924 -17.123 -49.973  1.00  0.00    -0.305 N
HETATM    5  C15 UNL     1       6.567 -17.270 -51.314  1.00  0.00     0.318 C
HETATM    6  O6  UNL     1       7.149 -18.156 -51.936  1.00  0.00    -0.262 OA
HETATM    7  C19 UNL     1       6.220 -16.242 -49.085  1.00  0.00     0.172 C
ENDROOT
BRANCH   3   8
HETATM    8  C10 UNL     1       8.248 -18.930 -48.816  1.00  0.00     0.282 C
HETATM    9  O3  UNL     1       7.453 -19.728 -48.351  1.00  0.00    -0.265 OA
HETATM   10  N2  UNL     1       9.607 -19.357 -49.043  1.00  0.00    -0.264 N
ATOM     11  H2  UNL     1      10.296 -18.880 -49.624  1.00  0.00     0.190 HD
BRANCH  10  12
HETATM   12  N3  UNL     1       9.836 -20.666 -48.250  1.00  0.00    -0.294 N
ATOM     13  H3  UNL     1       9.201 -21.412 -47.968  1.00  0.00     0.187 HD
BRANCH  12  14
HETATM   14  C11 UNL     1      11.318 -20.468 -48.034  1.00  0.00     0.103 A
HETATM   15  C12 UNL     1      12.080 -19.381 -48.149  1.00  0.00     0.091 A
HETATM   16  C13 UNL     1      13.390 -19.875 -47.855  1.00  0.00     0.144 A
HETATM   17  N4  UNL     1      13.318 -21.276 -47.415  1.00  0.00    -0.316 N
HETATM   18  C14 UNL     1      11.888 -21.558 -47.634  1.00  0.00     0.171 A
ATOM     19  H4  UNL     1      14.054 -21.885 -47.058  1.00  0.00     0.170 HD
BRANCH  16  20
HETATM   20  O4  UNL     1      14.618 -19.261 -48.002  1.00  0.00    -0.346 OA
ATOM     21  H4  UNL     1      15.329 -19.167 -47.378  1.00  0.00     0.219 HD
ENDBRANCH  16  20
BRANCH  18  22
HETATM   22  O5  UNL     1      11.495 -22.793 -47.374  1.00  0.00    -0.344 OA
ATOM     23  H5  UNL     1      11.171 -23.259 -46.612  1.00  0.00     0.219 HD
ENDBRANCH  18  22
ENDBRANCH  12  14
ENDBRANCH  10  12
ENDBRANCH   3   8
BRANCH   1  24
HETATM   24  N1  UNL     1       6.984 -14.993 -47.354  1.00  0.00    -0.383 NA
HETATM   25  C6  UNL     1       6.522 -14.597 -46.188  1.00  0.00     0.435 C
HETATM   26  O2  UNL     1       6.220 -13.852 -45.392  1.00  0.00    -0.221 OA
BRANCH  25  27
HETATM   27  O1  UNL     1       6.292 -16.151 -45.725  1.00  0.00    -0.293 OA
BRANCH  27  28
HETATM   28  C5  UNL     1       6.739 -16.587 -44.498  1.00  0.00     0.182 C
BRANCH  28  29
HETATM   29  C4  UNL     1       7.558 -17.836 -44.781  1.00  0.00     0.031 C
BRANCH  29  30
HETATM   30  C2  UNL     1       8.984 -17.560 -44.391  1.00  0.00    -0.021 C
HETATM   31  C1  UNL     1       9.875 -18.287 -45.353  1.00  0.00     0.009 C
HETATM   32  C3  UNL     1       9.297 -17.933 -43.006  1.00  0.00     0.009 C
ENDBRANCH  29  30
ENDBRANCH  28  29
ENDBRANCH  27  28
ENDBRANCH  25  27
ENDBRANCH   1  24
BRANCH   5  33
HETATM   33  C16 UNL     1       5.628 -16.456 -51.942  1.00  0.00     0.334 C
HETATM   34  O7  UNL     1       5.861 -15.295 -52.329  1.00  0.00    -0.260 OA
HETATM   35  N6  UNL     1       4.336 -17.086 -52.262  1.00  0.00    -0.212 N
ATOM     36  H6  UNL     1       4.143 -18.059 -52.022  1.00  0.00     0.199 HD
BRANCH  35  37
HETATM   37  O8  UNL     1       3.405 -16.307 -52.897  1.00  0.00    -0.185 OA
BRANCH  37  38
HETATM   38  S1  UNL     1       2.013 -15.987 -52.247  1.00  0.00     0.074 S
HETATM   39  C17 UNL     1       1.705 -14.314 -52.815  1.00  0.00     0.145 C
HETATM   40  C18 UNL     1       2.196 -16.699 -50.589  1.00  0.00     0.145 C
HETATM   41  O9  UNL     1       1.524 -17.442 -53.672  1.00  0.00    -0.242 OA
ENDBRANCH  37  38
ENDBRANCH  35  37
ENDBRANCH   5  33
TORSDOF 13
ENDMDL