MODEL 4
REMARK VINA RESULT: -8.154396804      1.515      2.482
REMARK  13 active torsions:
REMARK  status: ('A' for Active; 'I' for Inactive)
REMARK    1  A    between atoms: O1_2  and  C2_3
REMARK    2  A    between atoms: C2_3  and  C3_5
REMARK    3  A    between atoms: C3_5  and  O3_6
REMARK    4  A    between atoms: C3_5  and  C24_35
REMARK    5  A    between atoms: O3_6  and  C4_7
REMARK    6  A    between atoms: C4_7  and  C5_9
REMARK    7  A    between atoms: C8_12  and  C9_13
REMARK    8  A    between atoms: C13_21  and  C14_22
REMARK    9  A    between atoms: C16_24  and  O7_25
REMARK   10  A    between atoms: C18_27  and  O8_28
REMARK   11  A    between atoms: C20_30  and  O9_31
REMARK   12  A    between atoms: C24_35  and  O10_36
REMARK   13  A    between atoms: N2_38  and  O11_40
ROOT
HETATM    1  C5  UNL     1      12.144 -20.066 -43.508  1.00  0.00     0.092 C
HETATM    2  C6  UNL     1      12.802 -21.383 -43.238  1.00  0.00     0.017 C
HETATM    3  C7  UNL     1      12.527 -21.957 -41.893  1.00  0.00     0.037 C
HETATM    4  C8  UNL     1      11.100 -22.520 -42.004  1.00  0.00     0.179 C
HETATM    5  N1  UNL     1      10.243 -21.510 -41.520  1.00  0.00    -0.404 N
ATOM      6  H1  UNL     1       9.828 -21.605 -40.593  1.00  0.00     0.154 HD
HETATM    7  C10 UNL     1       9.958 -20.387 -42.288  1.00  0.00     0.083 C
HETATM    8  C11 UNL     1      10.055 -19.068 -41.516  1.00  0.00     0.026 C
HETATM    9  C12 UNL     1       9.558 -18.138 -42.614  1.00  0.00     0.012 C
HETATM   10  C13 UNL     1      10.227 -18.696 -43.886  1.00  0.00     0.025 C
HETATM   11  C23 UNL     1      10.635 -20.102 -43.555  1.00  0.00     0.030 C
ENDROOT
BRANCH   1  12
HETATM   12  C4  UNL     1      12.601 -19.706 -44.888  1.00  0.00     0.264 C
HETATM   13  O4  UNL     1      12.826 -18.489 -45.142  1.00  0.00    -0.265 OA
BRANCH  12  14
HETATM   14  O3  UNL     1      12.799 -20.597 -45.907  1.00  0.00    -0.297 OA
BRANCH  14  15
HETATM   15  C3  UNL     1      12.315 -20.399 -47.225  1.00  0.00     0.307 C
BRANCH  15  16
HETATM   16  C2  UNL     1      11.989 -21.662 -47.923  1.00  0.00     0.296 C
HETATM   17  O2  UNL     1      12.203 -21.903 -49.131  1.00  0.00    -0.262 OA
BRANCH  16  18
HETATM   18  O1  UNL     1      11.389 -22.695 -47.200  1.00  0.00    -0.324 OA
HETATM   19  C1  UNL     1      10.099 -22.589 -46.653  1.00  0.00     0.213 C
ENDBRANCH  16  18
ENDBRANCH  15  16
BRANCH  15  20
HETATM   20  C24 UNL     1      13.256 -19.570 -48.023  1.00  0.00     0.175 C
HETATM   21  N2  UNL     1      12.956 -18.349 -48.258  1.00  0.00    -0.248 N
ATOM     22  H2  UNL     1      13.584 -17.758 -48.803  1.00  0.00     0.196 HD
BRANCH  20  23
HETATM   23  O10 UNL     1      14.457 -20.109 -48.513  1.00  0.00    -0.346 OA
ATOM     24  H10 UNL     1      14.544 -20.353 -49.426  1.00  0.00     0.219 HD
ENDBRANCH  20  23
BRANCH  21  25
HETATM   25  O11 UNL     1      11.780 -17.846 -47.769  1.00  0.00    -0.288 OA
ATOM     26  H11 UNL     1      11.502 -16.978 -48.038  1.00  0.00     0.244 HD
ENDBRANCH  21  25
ENDBRANCH  15  20
ENDBRANCH  14  15
ENDBRANCH  12  14
ENDBRANCH   1  12
BRANCH  10  27
HETATM   27  C14 UNL     1       9.282 -18.517 -44.971  1.00  0.00    -0.048 A
HETATM   28  C15 UNL     1       8.361 -17.474 -44.839  1.00  0.00     0.047 A
HETATM   29  C16 UNL     1       7.406 -17.175 -45.781  1.00  0.00     0.104 A
HETATM   30  C18 UNL     1       7.369 -17.955 -46.916  1.00  0.00     0.135 A
HETATM   31  C20 UNL     1       8.259 -19.003 -47.100  1.00  0.00     0.104 A
HETATM   32  C22 UNL     1       9.189 -19.250 -46.120  1.00  0.00     0.047 A
BRANCH  29  33
HETATM   33  O7  UNL     1       6.491 -16.142 -45.652  1.00  0.00    -0.353 OA
HETATM   34  C17 UNL     1       6.142 -15.624 -44.390  1.00  0.00     0.210 C
ENDBRANCH  29  33
BRANCH  30  35
HETATM   35  O8  UNL     1       6.425 -17.682 -47.878  1.00  0.00    -0.351 OA
HETATM   36  C19 UNL     1       6.714 -16.806 -48.935  1.00  0.00     0.210 C
ENDBRANCH  30  35
BRANCH  31  37
HETATM   37  O9  UNL     1       8.201 -19.768 -48.240  1.00  0.00    -0.353 OA
HETATM   38  C21 UNL     1       9.132 -19.689 -49.294  1.00  0.00     0.210 C
ENDBRANCH  31  37
ENDBRANCH  10  27
BRANCH   4  39
HETATM   39  C9  UNL     1      11.081 -23.706 -41.126  1.00  0.00     0.196 C
HETATM   40  O5  UNL     1      12.163 -24.134 -40.674  1.00  0.00    -0.646 OA
HETATM   41  O6  UNL     1       9.912 -24.352 -40.793  1.00  0.00    -0.646 OA
ENDBRANCH   4  39
TORSDOF 13
ENDMDL