MODEL 1
REMARK VINA RESULT: -8.468655837      0.000      0.000
REMARK  14 active torsions:
REMARK  status: ('A' for Active; 'I' for Inactive)
REMARK    1  A    between atoms: C2_2  and  O1_3
REMARK    2  A    between atoms: O1_3  and  C3_4
REMARK    3  A    between atoms: C3_4  and  C4_6
REMARK    4  A    between atoms: C4_6  and  C5_7
REMARK    5  A    between atoms: C6_9  and  N1_10
REMARK    6  A    between atoms: N1_10  and  C7_12
REMARK    7  A    between atoms: C7_12  and  N2_13
REMARK    8  A    between atoms: C7_12  and  C9_17
REMARK    9  A    between atoms: N2_13  and  C8_15
REMARK   10  A    between atoms: C9_17  and  O4_18
REMARK   11  A    between atoms: C9_17  and  O5_20
REMARK   12  A    between atoms: O5_20  and  N3_21
REMARK   13  A    between atoms: C18_31  and  C20_33
REMARK   14  A    between atoms: C22_40  and  O9_41
ROOT
HETATM    1  C7  UNL     1       9.296 -19.110 -49.683  1.00  0.00     0.243 C
ENDROOT
BRANCH   1   2
HETATM    2  N1  UNL     1       9.363 -18.164 -48.608  1.00  0.00    -0.345 N
ATOM      3  H1  UNL     1      10.170 -18.204 -47.985  1.00  0.00     0.163 HD
BRANCH   2   4
HETATM    4  C6  UNL     1       8.460 -17.260 -48.380  1.00  0.00     0.148 A
HETATM    5  S1  UNL     1       7.001 -17.421 -47.508  1.00  0.00    -0.054 SA
HETATM    6  C5  UNL     1       6.434 -15.811 -47.667  1.00  0.00     0.046 A
HETATM    7  C22 UNL     1       7.435 -15.242 -48.403  1.00  0.00     0.155 A
HETATM    8  N4  UNL     1       8.446 -15.981 -48.753  1.00  0.00    -0.317 N
ATOM      9  H4  UNL     1       9.212 -15.589 -49.302  1.00  0.00     0.170 HD
BRANCH   6  10
HETATM   10  C4  UNL     1       5.172 -15.192 -47.120  1.00  0.00     0.161 C
BRANCH  10  11
HETATM   11  C3  UNL     1       5.549 -14.448 -45.887  1.00  0.00     0.263 C
HETATM   12  O2  UNL     1       5.935 -13.254 -45.936  1.00  0.00    -0.265 OA
BRANCH  11  13
HETATM   13  O1  UNL     1       5.486 -15.061 -44.640  1.00  0.00    -0.322 OA
BRANCH  13  14
HETATM   14  C2  UNL     1       6.652 -15.096 -43.820  1.00  0.00     0.174 C
HETATM   15  C1  UNL     1       7.130 -16.534 -43.832  1.00  0.00     0.034 C
ENDBRANCH  13  14
ENDBRANCH  11  13
ENDBRANCH  10  11
ENDBRANCH   6  10
BRANCH   7  16
HETATM   16  O9  UNL     1       7.338 -13.864 -48.758  1.00  0.00    -0.345 OA
ATOM     17  H9  UNL     1       7.814 -13.220 -48.248  1.00  0.00     0.219 HD
ENDBRANCH   7  16
ENDBRANCH   2   4
ENDBRANCH   1   2
BRANCH   1  18
HETATM   18  N2  UNL     1       8.158 -19.011 -50.543  1.00  0.00    -0.343 N
ATOM     19  H2  UNL     1       7.292 -19.481 -50.279  1.00  0.00     0.164 HD
BRANCH  18  20
HETATM   20  C8  UNL     1       8.206 -18.262 -51.774  1.00  0.00     0.350 C
HETATM   21  O3  UNL     1       7.921 -17.032 -51.720  1.00  0.00    -0.284 OA
ENDBRANCH  18  20
ENDBRANCH   1  18
BRANCH   1  22
HETATM   22  C9  UNL     1       9.307 -20.532 -49.091  1.00  0.00     0.328 C
BRANCH  22  23
HETATM   23  O4  UNL     1       8.421 -20.651 -48.028  1.00  0.00    -0.366 OA
ATOM     24  H4  UNL     1       8.104 -21.541 -47.934  1.00  0.00     0.212 HD
ENDBRANCH  22  23
BRANCH  22  25
HETATM   25  O5  UNL     1      10.598 -20.916 -48.702  1.00  0.00    -0.244 OA
BRANCH  25  26
HETATM   26  N3  UNL     1      10.809 -21.051 -47.342  1.00  0.00    -0.272 N
HETATM   27  C10 UNL     1      11.904 -20.902 -46.737  1.00  0.00     0.013 C
HETATM   28  C11 UNL     1      13.215 -20.554 -47.322  1.00  0.00     0.054 C
HETATM   29  C21 UNL     1      11.884 -21.080 -45.247  1.00  0.00     0.093 C
HETATM   30  C12 UNL     1      13.914 -19.433 -46.626  1.00  0.00     0.009 C
HETATM   31  C13 UNL     1      13.771 -19.445 -45.122  1.00  0.00     0.039 C
HETATM   32  C14 UNL     1      12.355 -19.749 -44.692  1.00  0.00     0.073 C
HETATM   33  C15 UNL     1      11.397 -18.665 -45.023  1.00  0.00     0.045 C
HETATM   34  O8  UNL     1      12.321 -19.859 -43.294  1.00  0.00    -0.343 OA
HETATM   35  C16 UNL     1      10.464 -18.613 -43.842  1.00  0.00     0.068 C
HETATM   36  C17 UNL     1      10.977 -19.692 -42.924  1.00  0.00     0.060 C
HETATM   37  C18 UNL     1      10.259 -20.290 -42.009  1.00  0.00     0.044 C
HETATM   38  C19 UNL     1       8.840 -19.910 -41.829  1.00  0.00     0.058 C
ATOM     39  H3  UNL     1       9.999 -21.295 -46.773  1.00  0.00     0.193 HD
BRANCH  37  40
HETATM   40  C20 UNL     1      10.858 -21.318 -41.178  1.00  0.00     0.207 C
HETATM   41  O6  UNL     1      11.083 -21.122 -39.947  1.00  0.00    -0.644 OA
HETATM   42  O7  UNL     1      11.195 -22.533 -41.730  1.00  0.00    -0.644 OA
ENDBRANCH  37  40
ENDBRANCH  25  26
ENDBRANCH  22  25
ENDBRANCH   1  22
TORSDOF 14
ENDMDL