MODEL 3
REMARK VINA RESULT: -7.578501474      3.023      8.083
REMARK  14 active torsions:
REMARK  status: ('A' for Active; 'I' for Inactive)
REMARK    1  A    between atoms: C2_2  and  C4_4
REMARK    2  A    between atoms: C4_4  and  O1_5
REMARK    3  A    between atoms: C4_4  and  C5_7
REMARK    4  A    between atoms: C6_8  and  O2_9
REMARK    5  A    between atoms: O2_9  and  C7_10
REMARK    6  A    between atoms: C7_10  and  C8_11
REMARK    7  A    between atoms: C8_11  and  O3_14
REMARK    8  A    between atoms: C12_17  and  O4_18
REMARK    9  A    between atoms: O4_18  and  C13_19
REMARK   10  A    between atoms: C20_26  and  O5_27
REMARK   11  A    between atoms: C21_29  and  O6_30
REMARK   12  A    between atoms: C21_29  and  C22_32
REMARK   13  A    between atoms: C22_32  and  O7_33
REMARK   14  A    between atoms: C22_32  and  C23_35
ROOT
HETATM    1  C23 UNL     1       9.560 -20.521 -41.647  1.00  0.00     0.058 A
HETATM    2  C24 UNL     1       8.885 -21.427 -40.862  1.00  0.00     0.115 A
HETATM    3  N1  UNL     1       9.473 -22.465 -40.255  1.00  0.00    -0.370 N
ATOM      4  H1  UNL     1       8.923 -23.107 -39.683  1.00  0.00     0.164 HD
HETATM    5  C25 UNL     1      10.778 -22.654 -40.403  1.00  0.00     0.128 A
HETATM    6  C26 UNL     1      11.502 -21.782 -41.175  1.00  0.00     0.129 A
HETATM    7  C27 UNL     1      12.908 -21.969 -41.346  1.00  0.00     0.119 C
HETATM    8  N2  UNL     1      14.054 -22.138 -41.484  1.00  0.00    -0.190 NA
HETATM    9  N3  UNL     1      10.882 -20.763 -41.761  1.00  0.00    -0.347 N
ATOM     10  H3  UNL     1      11.439 -20.127 -42.331  1.00  0.00     0.166 HD
ENDROOT
BRANCH   1  11
HETATM   11  C22 UNL     1       8.853 -19.424 -42.279  1.00  0.00     0.206 C
BRANCH  11  12
HETATM   12  C21 UNL     1       8.362 -19.512 -43.672  1.00  0.00     0.126 C
HETATM   13  C5  UNL     1       9.138 -19.925 -44.805  1.00  0.00     0.084 C
HETATM   14  C6  UNL     1      10.265 -18.860 -44.959  1.00  0.00     0.133 C
HETATM   15  C11 UNL     1       9.583 -17.764 -45.794  1.00  0.00     0.067 C
HETATM   16  C12 UNL     1       8.161 -17.546 -45.331  1.00  0.00     0.156 C
HETATM   17  C20 UNL     1       7.877 -18.068 -43.973  1.00  0.00     0.185 C
BRANCH  13  18
HETATM   18  C4  UNL     1       9.638 -21.277 -45.107  1.00  0.00     0.131 C
BRANCH  18  19
HETATM   19  C2  UNL     1       9.130 -21.926 -46.373  1.00  0.00     0.007 C
HETATM   20  C1  UNL     1       8.668 -23.333 -46.232  1.00  0.00     0.012 C
HETATM   21  C3  UNL     1       8.083 -21.089 -47.065  1.00  0.00     0.012 C
ENDBRANCH  18  19
BRANCH  18  22
HETATM   22  O1  UNL     1       9.405 -22.239 -44.138  1.00  0.00    -0.395 OA
ATOM     23  H1  UNL     1       8.902 -21.772 -43.482  1.00  0.00     0.210 HD
ENDBRANCH  18  22
ENDBRANCH  13  18
BRANCH  14  24
HETATM   24  O2  UNL     1      11.360 -19.353 -45.540  1.00  0.00    -0.382 OA
BRANCH  24  25
HETATM   25  C7  UNL     1      12.151 -18.690 -46.403  1.00  0.00     0.205 C
BRANCH  25  26
HETATM   26  C8  UNL     1      12.483 -19.288 -47.726  1.00  0.00     0.072 C
HETATM   27  C9  UNL     1      13.516 -20.362 -47.664  1.00  0.00     0.047 C
HETATM   28  C10 UNL     1      11.265 -19.720 -48.511  1.00  0.00     0.047 C
BRANCH  26  29
HETATM   29  O3  UNL     1      13.006 -18.195 -48.507  1.00  0.00    -0.388 OA
ATOM     30  H3  UNL     1      13.692 -18.580 -49.039  1.00  0.00     0.210 HD
ENDBRANCH  26  29
ENDBRANCH  25  26
ENDBRANCH  24  25
ENDBRANCH  14  24
BRANCH  16  31
HETATM   31  O4  UNL     1       7.201 -17.813 -46.295  1.00  0.00    -0.378 OA
BRANCH  31  32
HETATM   32  C13 UNL     1       7.400 -17.311 -47.526  1.00  0.00     0.122 C
HETATM   33  C14 UNL     1       6.589 -17.972 -48.622  1.00  0.00     0.033 C
HETATM   34  C15 UNL     1       5.622 -16.934 -49.135  1.00  0.00     0.011 C
HETATM   35  C16 UNL     1       6.408 -15.658 -48.950  1.00  0.00    -0.045 C
HETATM   36  C17 UNL     1       7.375 -15.576 -50.136  1.00  0.00     0.015 C
HETATM   37  C18 UNL     1       5.544 -14.439 -48.962  1.00  0.00     0.015 C
HETATM   38  C19 UNL     1       7.193 -15.825 -47.667  1.00  0.00     0.040 C
ENDBRANCH  31  32
ENDBRANCH  16  31
BRANCH  17  39
HETATM   39  O5  UNL     1       8.459 -17.145 -43.070  1.00  0.00    -0.390 OA
ATOM     40  H5  UNL     1       8.093 -17.346 -42.217  1.00  0.00     0.210 HD
ENDBRANCH  17  39
BRANCH  12  41
HETATM   41  O6  UNL     1       7.178 -20.287 -43.594  1.00  0.00    -0.383 OA
ATOM     42  H6  UNL     1       6.532 -19.835 -43.064  1.00  0.00     0.210 HD
ENDBRANCH  12  41
ENDBRANCH  11  12
BRANCH  11  43
HETATM   43  O7  UNL     1       7.622 -19.436 -41.501  1.00  0.00    -0.386 OA
ATOM     44  H7  UNL     1       7.811 -20.069 -40.818  1.00  0.00     0.210 HD
ENDBRANCH  11  43
ENDBRANCH   1  11
TORSDOF 14
ENDMDL