MODEL 4
REMARK VINA RESULT: -7.233028176      1.980      2.949
REMARK  16 active torsions:
REMARK  status: ('A' for Active; 'I' for Inactive)
REMARK    1  A    between atoms: C2_2  and  C4_4
REMARK    2  A    between atoms: C4_4  and  C5_5
REMARK    3  A    between atoms: C5_5  and  N1_6
REMARK    4  A    between atoms: C5_5  and  C20_28
REMARK       I    between atoms: N1_6  and  C6_8
REMARK    5  A    between atoms: C6_8  and  C7_10
REMARK    6  A    between atoms: C14_17  and  C15_18
REMARK    7  A    between atoms: C20_28  and  C21_30
REMARK    8  A    between atoms: C21_30  and  C22_31
REMARK    9  A    between atoms: C22_31  and  C23_32
REMARK   10  A    between atoms: C22_31  and  C28_37
REMARK   11  A    between atoms: C23_32  and  C24_33
REMARK       I    between atoms: C28_37  and  N5_39
REMARK   12  A    between atoms: N5_39  and  C29_41
REMARK   13  A    between atoms: C29_41  and  C30_42
REMARK   14  A    between atoms: C29_41  and  O5_50
REMARK   15  A    between atoms: C30_42  and  C31_43
REMARK   16  A    between atoms: O5_50  and  C36_51
ROOT
HETATM    1  C5  UNL     1      -6.512  -0.718 -25.495  1.00  0.00     0.154 C
ENDROOT
BRANCH   1   2
HETATM    2  C4  UNL     1      -6.146   0.279 -24.441  1.00  0.00     0.037 C
BRANCH   2   3
HETATM    3  C2  UNL     1      -7.087   1.294 -24.014  1.00  0.00    -0.020 C
HETATM    4  C1  UNL     1      -6.488   2.684 -24.321  1.00  0.00     0.009 C
HETATM    5  C3  UNL     1      -8.466   1.313 -24.513  1.00  0.00     0.009 C
ENDBRANCH   2   3
ENDBRANCH   1   2
BRANCH   1   6
HETATM    6  N1  UNL     1      -6.778  -0.075 -26.804  1.00  0.00    -0.348 N
HETATM    7  C6  UNL     1      -6.114  -0.512 -27.948  1.00  0.00     0.241 C
HETATM    8  O1  UNL     1      -5.275  -1.475 -27.748  1.00  0.00    -0.271 OA
ATOM      9  H1  UNL     1      -7.450   0.689 -26.868  1.00  0.00     0.163 HD
BRANCH   7  10
HETATM   10  C7  UNL     1      -6.227  -0.044 -29.324  1.00  0.00     0.183 C
HETATM   11  C8  UNL     1      -4.864   0.362 -29.882  1.00  0.00     0.016 C
HETATM   12  C9  UNL     1      -4.508  -0.444 -31.112  1.00  0.00     0.012 C
HETATM   13  C10 UNL     1      -5.005   1.849 -30.195  1.00  0.00     0.032 C
HETATM   14  C11 UNL     1      -6.155   2.289 -29.289  1.00  0.00     0.093 C
HETATM   15  C12 UNL     1      -6.865   3.479 -29.835  1.00  0.00     0.022 C
HETATM   16  N4  UNL     1      -7.007   1.142 -29.420  1.00  0.00    -0.333 N
HETATM   17  C13 UNL     1      -7.102   4.554 -28.814  1.00  0.00     0.013 C
HETATM   18  C14 UNL     1      -8.201   2.954 -30.300  1.00  0.00     0.119 C
HETATM   19  C19 UNL     1      -8.340   1.679 -29.615  1.00  0.00     0.230 C
HETATM   20  O2  UNL     1      -9.336   1.016 -29.199  1.00  0.00    -0.273 OA
BRANCH  18  21
HETATM   21  C15 UNL     1      -9.294   3.898 -30.068  1.00  0.00    -0.011 A
HETATM   22  C16 UNL     1      -9.918   4.621 -31.060  1.00  0.00     0.116 A
HETATM   23  N2  UNL     1     -10.897   5.363 -30.479  1.00  0.00    -0.310 N
HETATM   24  N3  UNL     1     -10.909   5.134 -29.162  1.00  0.00    -0.308 N
ATOM     25  H2  UNL     1     -11.525   5.998 -30.972  1.00  0.00     0.186 HD
HETATM   26  C17 UNL     1     -11.823   5.773 -28.254  1.00  0.00     0.177 C
HETATM   27  C18 UNL     1      -9.931   4.237 -28.895  1.00  0.00     0.119 A
ENDBRANCH  18  21
ENDBRANCH   7  10
ENDBRANCH   1   6
BRANCH   1  28
HETATM   28  C20 UNL     1      -7.575  -1.638 -25.125  1.00  0.00     0.150 C
HETATM   29  O3  UNL     1      -7.436  -2.320 -24.099  1.00  0.00    -0.296 OA
BRANCH  28  30
HETATM   30  C21 UNL     1      -8.829  -1.839 -25.865  1.00  0.00     0.094 C
BRANCH  30  31
HETATM   31  C22 UNL     1      -9.551  -3.145 -25.582  1.00  0.00     0.085 C
BRANCH  31  32
HETATM   32  C23 UNL     1     -10.910  -2.993 -25.022  1.00  0.00     0.022 C
BRANCH  32  33
HETATM   33  C24 UNL     1     -11.283  -3.747 -23.824  1.00  0.00    -0.051 C
HETATM   34  C25 UNL     1     -12.620  -4.508 -24.029  1.00  0.00     0.014 C
HETATM   35  C26 UNL     1     -11.328  -3.130 -22.492  1.00  0.00     0.014 C
HETATM   36  C27 UNL     1     -10.256  -4.907 -23.706  1.00  0.00     0.014 C
ENDBRANCH  32  33
ENDBRANCH  31  32
BRANCH  31  37
HETATM   37  C28 UNL     1      -9.698  -3.719 -26.982  1.00  0.00     0.224 C
HETATM   38  O4  UNL     1     -10.736  -4.314 -27.303  1.00  0.00    -0.273 OA
HETATM   39  N5  UNL     1      -8.650  -3.555 -27.888  1.00  0.00    -0.334 N
ATOM     40  H5  UNL     1      -7.800  -3.060 -27.619  1.00  0.00     0.165 HD
BRANCH  39  41
HETATM   41  C29 UNL     1      -8.805  -4.122 -29.259  1.00  0.00     0.229 C
BRANCH  41  42
HETATM   42  C30 UNL     1      -8.139  -3.104 -30.145  1.00  0.00     0.110 C
BRANCH  42  43
HETATM   43  C31 UNL     1      -6.841  -3.493 -30.690  1.00  0.00     0.013 A
HETATM   44  C32 UNL     1      -6.638  -3.682 -32.025  1.00  0.00     0.025 A
HETATM   45  C33 UNL     1      -5.413  -4.052 -32.493  1.00  0.00     0.003 A
HETATM   46  C34 UNL     1      -4.381  -4.234 -31.595  1.00  0.00     0.017 A
HETATM   47  C35 UNL     1      -4.614  -4.037 -30.241  1.00  0.00     0.088 A
HETATM   48  N6  UNL     1      -5.817  -3.677 -29.830  1.00  0.00    -0.369 N
ATOM     49  H6  UNL     1      -5.976  -3.534 -28.834  1.00  0.00     0.165 HD
ENDBRANCH  42  43
ENDBRANCH  41  42
BRANCH  41  50
HETATM   50  O5  UNL     1      -8.177  -5.334 -29.206  1.00  0.00    -0.362 OA
BRANCH  50  51
HETATM   51  C36 UNL     1      -8.873  -6.372 -29.780  1.00  0.00     0.116 C
HETATM   52  C37 UNL     1      -7.974  -7.112 -30.729  1.00  0.00     0.039 C
HETATM   53  C38 UNL     1      -9.277  -7.300 -28.631  1.00  0.00     0.039 C
ENDBRANCH  50  51
ENDBRANCH  41  50
ENDBRANCH  39  41
ENDBRANCH  31  37
ENDBRANCH  30  31
ENDBRANCH  28  30
ENDBRANCH   1  28
TORSDOF 16
ENDMDL