MODEL 3
REMARK VINA RESULT: -8.073460349      5.179      8.870
REMARK  15 active torsions:
REMARK  status: ('A' for Active; 'I' for Inactive)
REMARK    1  A    between atoms: S1_2  and  C2_5
REMARK    2  A    between atoms: C2_5  and  C3_6
REMARK    3  A    between atoms: C3_6  and  C4_7
REMARK    4  A    between atoms: C4_7  and  C5_8
REMARK    5  A    between atoms: C5_8  and  C6_9
REMARK    6  A    between atoms: C6_9  and  N1_10
REMARK       I    between atoms: N1_10  and  C7_12
REMARK    7  A    between atoms: C7_12  and  C8_14
REMARK    8  A    between atoms: C8_14  and  C9_15
REMARK    9  A    between atoms: C8_14  and  N2_22
REMARK   10  A    between atoms: C9_15  and  C10_16
REMARK   11  A    between atoms: N2_22  and  S2_24
REMARK   12  A    between atoms: S2_24  and  C16_27
REMARK   13  A    between atoms: C20_31  and  C21_32
REMARK   14  A    between atoms: C25_36  and  C26_37
REMARK   15  A    between atoms: C31_42  and  S3_43
ROOT
HETATM    1  S2  UNL     1      -9.428  -1.222 -28.414  1.00  0.00     0.275 S
HETATM    2  O4  UNL     1     -10.328  -0.503 -29.391  1.00  0.00    -0.199 OA
HETATM    3  O5  UNL     1      -9.562  -2.700 -28.594  1.00  0.00    -0.199 OA
ENDROOT
BRANCH   1   4
HETATM    4  N2  UNL     1     -10.013  -0.822 -26.834  1.00  0.00    -0.300 N
ATOM      5  H2  UNL     1     -10.869  -0.306 -26.633  1.00  0.00     0.173 HD
BRANCH   4   6
HETATM    6  C8  UNL     1      -9.077  -1.348 -25.830  1.00  0.00     0.189 C
BRANCH   6   7
HETATM    7  C7  UNL     1      -9.558  -2.684 -25.352  1.00  0.00     0.241 C
HETATM    8  N1  UNL     1     -10.826  -3.129 -25.734  1.00  0.00    -0.359 N
ATOM      9  H1  UNL     1     -11.394  -2.535 -26.336  1.00  0.00     0.162 HD
HETATM   10  O3  UNL     1      -8.812  -3.361 -24.619  1.00  0.00    -0.271 OA
BRANCH   8  11
HETATM   11  C6  UNL     1     -11.358  -4.393 -25.309  1.00  0.00     0.122 C
BRANCH  11  12
HETATM   12  C5  UNL     1     -11.599  -5.355 -26.426  1.00  0.00     0.020 C
BRANCH  12  13
HETATM   13  C4  UNL     1     -10.330  -5.722 -27.140  1.00  0.00     0.002 C
BRANCH  13  14
HETATM   14  C3  UNL     1     -10.319  -7.144 -27.649  1.00  0.00     0.015 C
BRANCH  14  15
HETATM   15  C2  UNL     1      -9.309  -7.260 -28.803  1.00  0.00     0.140 C
BRANCH  15  16
HETATM   16  S1  UNL     1      -9.020  -8.983 -29.103  1.00  0.00     0.140 S
HETATM   17  C1  UNL     1      -8.880  -9.211 -30.852  1.00  0.00     0.161 C
HETATM   18  O1  UNL     1     -10.218  -9.744 -28.578  1.00  0.00    -0.228 OA
HETATM   19  O2  UNL     1      -7.804  -9.421 -28.362  1.00  0.00    -0.228 OA
ENDBRANCH  15  16
ENDBRANCH  14  15
ENDBRANCH  13  14
ENDBRANCH  12  13
ENDBRANCH  11  12
ENDBRANCH   8  11
ENDBRANCH   6   7
BRANCH   6  20
HETATM   20  C9  UNL     1      -8.942  -0.406 -24.689  1.00  0.00     0.074 C
BRANCH  20  21
HETATM   21  C10 UNL     1      -7.645   0.282 -24.708  1.00  0.00    -0.056 A
HETATM   22  C11 UNL     1      -7.546   1.661 -24.529  1.00  0.00     0.007 A
HETATM   23  C12 UNL     1      -6.300   2.284 -24.517  1.00  0.00     0.001 A
HETATM   24  C13 UNL     1      -5.163   1.525 -24.686  1.00  0.00     0.000 A
HETATM   25  C14 UNL     1      -5.234   0.149 -24.866  1.00  0.00     0.001 A
HETATM   26  C15 UNL     1      -6.480  -0.409 -24.869  1.00  0.00     0.007 A
ENDBRANCH  20  21
ENDBRANCH   6  20
ENDBRANCH   4   6
ENDBRANCH   1   4
BRANCH   1  27
HETATM   27  C16 UNL     1      -7.779  -0.684 -28.612  1.00  0.00     0.149 A
HETATM   28  C17 UNL     1      -7.421   0.605 -28.253  1.00  0.00     0.044 A
HETATM   29  C18 UNL     1      -6.126   1.037 -28.419  1.00  0.00     0.005 A
HETATM   30  C19 UNL     1      -5.201   0.134 -28.958  1.00  0.00     0.030 A
HETATM   31  C20 UNL     1      -5.572  -1.146 -29.310  1.00  0.00     0.043 A
HETATM   32  N3  UNL     1      -6.864  -1.488 -29.113  1.00  0.00    -0.345 N
ATOM     33  H3  UNL     1      -7.151  -2.434 -29.369  1.00  0.00     0.167 HD
BRANCH  31  34
HETATM   34  C21 UNL     1      -4.609  -2.092 -29.854  1.00  0.00    -0.009 A
HETATM   35  C22 UNL     1      -5.085  -3.174 -30.589  1.00  0.00     0.014 A
HETATM   36  C23 UNL     1      -4.224  -4.105 -31.127  1.00  0.00     0.002 A
HETATM   37  C24 UNL     1      -2.860  -4.012 -30.971  1.00  0.00     0.012 A
HETATM   38  C25 UNL     1      -2.370  -2.946 -30.248  1.00  0.00    -0.024 A
HETATM   39  C33 UNL     1      -3.250  -2.015 -29.707  1.00  0.00     0.026 A
BRANCH  38  40
HETATM   40  C26 UNL     1      -0.956  -2.772 -29.991  1.00  0.00    -0.004 A
HETATM   41  C27 UNL     1      -0.429  -3.289 -28.788  1.00  0.00     0.014 A
HETATM   42  C28 UNL     1       0.896  -3.118 -28.454  1.00  0.00     0.001 A
HETATM   43  C29 UNL     1       1.710  -2.421 -29.329  1.00  0.00     0.002 A
HETATM   44  C30 UNL     1       1.192  -1.919 -30.503  1.00  0.00     0.024 A
HETATM   45  C31 UNL     1      -0.158  -2.089 -30.852  1.00  0.00     0.070 A
BRANCH  45  46
HETATM   46  S3  UNL     1      -0.724  -1.502 -32.368  1.00  0.00     0.172 S
HETATM   47  C32 UNL     1      -0.833  -2.834 -33.578  1.00  0.00     0.167 C
HETATM   48  O6  UNL     1       0.380  -0.595 -32.945  1.00  0.00    -0.223 OA
HETATM   49  O7  UNL     1      -1.938  -0.662 -32.343  1.00  0.00    -0.223 OA
ENDBRANCH  45  46
ENDBRANCH  38  40
ENDBRANCH  31  34
ENDBRANCH   1  27
TORSDOF 15
ENDMDL