MODEL 2
REMARK VINA RESULT: -8.696739478      2.159      7.390
REMARK  17 active torsions:
REMARK  status: ('A' for Active; 'I' for Inactive)
REMARK    1  A    between atoms: N1_2  and  C2_3
REMARK    2  A    between atoms: N1_2  and  S2_45
REMARK    3  A    between atoms: C2_3  and  C3_4
REMARK    4  A    between atoms: C3_4  and  C4_5
REMARK    5  A    between atoms: C3_4  and  C14_24
REMARK    6  A    between atoms: C4_5  and  C5_6
REMARK    7  A    between atoms: C9_10  and  C10_11
REMARK    8  A    between atoms: C12_15  and  S1_16
REMARK    9  A    between atoms: S1_16  and  N3_17
REMARK   10  A    between atoms: C14_24  and  C15_25
REMARK   11  A    between atoms: C14_24  and  N4_32
REMARK   12  A    between atoms: C15_25  and  C16_26
REMARK       I    between atoms: N4_32  and  C22_34
REMARK   13  A    between atoms: C22_34  and  C23_36
REMARK   14  A    between atoms: C23_36  and  O5_37
REMARK   15  A    between atoms: O5_37  and  C24_38
REMARK   16  A    between atoms: C24_38  and  C25_39
REMARK   17  A    between atoms: S2_45  and  C31_48
ROOT
HETATM    1  C3  UNL     1      -7.506  -0.533 -28.367  1.00  0.00     0.052 C
ENDROOT
BRANCH   1   2
HETATM    2  C2  UNL     1      -7.754  -1.837 -27.607  1.00  0.00     0.083 C
BRANCH   2   3
HETATM    3  N1  UNL     1      -8.274  -1.577 -26.326  1.00  0.00    -0.289 N
HETATM    4  C1  UNL     1      -7.397  -1.700 -25.234  1.00  0.00     0.168 C
BRANCH   3   5
HETATM    5  S2  UNL     1      -9.881  -1.252 -26.071  1.00  0.00     0.279 S
HETATM    6  O6  UNL     1     -10.632  -1.182 -27.397  1.00  0.00    -0.199 OA
HETATM    7  O7  UNL     1     -10.073   0.028 -25.316  1.00  0.00    -0.199 OA
BRANCH   5   8
HETATM    8  C31 UNL     1     -10.695  -2.526 -25.126  1.00  0.00     0.149 A
HETATM    9  C32 UNL     1     -10.783  -2.420 -23.760  1.00  0.00     0.044 A
HETATM   10  C33 UNL     1     -11.413  -3.401 -23.009  1.00  0.00     0.004 A
HETATM   11  C34 UNL     1     -11.946  -4.482 -23.650  1.00  0.00     0.017 A
HETATM   12  C35 UNL     1     -11.838  -4.553 -25.019  1.00  0.00     0.089 A
HETATM   13  N5  UNL     1     -11.226  -3.593 -25.726  1.00  0.00    -0.355 N
ATOM     14  H5  UNL     1     -11.165  -3.678 -26.741  1.00  0.00     0.166 HD
ENDBRANCH   5   8
ENDBRANCH   3   5
ENDBRANCH   2   3
ENDBRANCH   1   2
BRANCH   1  15
HETATM   15  C4  UNL     1      -8.024  -0.725 -29.798  1.00  0.00     0.050 C
BRANCH  15  16
HETATM   16  C5  UNL     1      -9.032   0.305 -30.185  1.00  0.00    -0.057 A
HETATM   17  C6  UNL     1     -10.237  -0.050 -30.745  1.00  0.00     0.007 A
HETATM   18  C7  UNL     1     -11.145   0.954 -31.060  1.00  0.00     0.002 A
HETATM   19  C8  UNL     1     -10.862   2.282 -30.823  1.00  0.00     0.016 A
HETATM   20  C9  UNL     1      -9.661   2.663 -30.263  1.00  0.00     0.016 A
HETATM   21  C13 UNL     1      -8.770   1.663 -29.956  1.00  0.00     0.023 A
BRANCH  20  22
HETATM   22  C10 UNL     1      -9.351   4.073 -30.010  1.00  0.00     0.159 A
HETATM   23  N2  UNL     1      -8.317   4.792 -30.477  1.00  0.00    -0.343 N
HETATM   24  C11 UNL     1      -8.420   6.038 -29.998  1.00  0.00     0.142 A
ATOM     25  H2  UNL     1      -7.579   4.447 -31.091  1.00  0.00     0.167 HD
HETATM   26  C12 UNL     1      -9.565   6.077 -29.206  1.00  0.00     0.207 A
HETATM   27  O3  UNL     1     -10.053   4.866 -29.273  1.00  0.00    -0.278 OA
BRANCH  26  28
HETATM   28  S1  UNL     1     -10.179   7.473 -28.331  1.00  0.00     0.280 S
HETATM   29  O1  UNL     1     -11.310   8.076 -29.077  1.00  0.00    -0.199 OA
HETATM   30  O2  UNL     1     -10.643   6.966 -26.975  1.00  0.00    -0.199 OA
BRANCH  28  31
HETATM   31  N3  UNL     1      -8.897   8.593 -28.042  1.00  0.00    -0.323 N
ATOM     32  H32 UNL     1      -8.066   8.385 -27.489  1.00  0.00     0.169 HD
ATOM     33  H31 UNL     1      -9.102   9.479 -28.503  1.00  0.00     0.169 HD
ENDBRANCH  28  31
ENDBRANCH  26  28
ENDBRANCH  20  22
ENDBRANCH  15  16
ENDBRANCH   1  15
BRANCH   1  34
HETATM   34  C14 UNL     1      -6.059  -0.199 -28.419  1.00  0.00     0.098 C
BRANCH  34  35
HETATM   35  C15 UNL     1      -5.854   1.306 -28.219  1.00  0.00     0.064 C
BRANCH  35  36
HETATM   36  C16 UNL     1      -6.243   1.725 -26.860  1.00  0.00    -0.056 A
HETATM   37  C17 UNL     1      -7.326   2.490 -26.521  1.00  0.00     0.007 A
HETATM   38  C18 UNL     1      -7.618   2.815 -25.207  1.00  0.00     0.001 A
HETATM   39  C19 UNL     1      -6.806   2.362 -24.196  1.00  0.00     0.000 A
HETATM   40  C20 UNL     1      -5.711   1.591 -24.504  1.00  0.00     0.001 A
HETATM   41  C21 UNL     1      -5.450   1.289 -25.808  1.00  0.00     0.007 A
ENDBRANCH  35  36
ENDBRANCH  34  35
BRANCH  34  42
HETATM   42  N4  UNL     1      -5.383  -0.556 -29.654  1.00  0.00    -0.354 N
HETATM   43  C22 UNL     1      -4.528  -1.707 -29.651  1.00  0.00     0.241 C
HETATM   44  O4  UNL     1      -4.361  -2.384 -28.612  1.00  0.00    -0.271 OA
ATOM     45  H4  UNL     1      -5.514  -0.002 -30.501  1.00  0.00     0.163 HD
BRANCH  43  46
HETATM   46  C23 UNL     1      -3.852  -2.063 -30.923  1.00  0.00     0.270 C
BRANCH  46  47
HETATM   47  O5  UNL     1      -2.675  -2.734 -30.818  1.00  0.00    -0.378 OA
BRANCH  47  48
HETATM   48  C24 UNL     1      -1.511  -2.041 -30.932  1.00  0.00     0.206 C
BRANCH  48  49
HETATM   49  C25 UNL     1      -0.483  -2.626 -29.992  1.00  0.00    -0.035 A
HETATM   50  C26 UNL     1      -0.900  -2.995 -28.728  1.00  0.00     0.009 A
HETATM   51  C27 UNL     1       0.072  -3.527 -27.889  1.00  0.00     0.001 A
HETATM   52  C28 UNL     1       1.377  -3.671 -28.312  1.00  0.00     0.000 A
HETATM   53  C29 UNL     1       1.743  -3.292 -29.576  1.00  0.00     0.001 A
HETATM   54  C30 UNL     1       0.813  -2.765 -30.427  1.00  0.00     0.009 A
ENDBRANCH  48  49
ENDBRANCH  47  48
ENDBRANCH  46  47
ENDBRANCH  43  46
ENDBRANCH  34  42
ENDBRANCH   1  34
TORSDOF 17
ENDMDL