MODEL 2
REMARK VINA RESULT: -6.963351853      1.505      2.064
REMARK  18 active torsions:
REMARK  status: ('A' for Active; 'I' for Inactive)
REMARK    1  A    between atoms: C7_7  and  C8_8
REMARK    2  A    between atoms: C8_8  and  O1_9
REMARK    3  A    between atoms: C8_8  and  N1_11
REMARK    4  A    between atoms: N1_11  and  C9_12
REMARK    5  A    between atoms: N1_11  and  C13_16
REMARK    6  A    between atoms: C9_12  and  C10_13
REMARK    7  A    between atoms: C13_16  and  C14_17
REMARK    8  A    between atoms: C13_16  and  C22_30
REMARK    9  A    between atoms: C14_17  and  C15_18
REMARK   10  A    between atoms: C15_18  and  C16_19
REMARK       I    between atoms: C16_19  and  N2_21
REMARK   11  A    between atoms: N2_21  and  C18_23
REMARK   12  A    between atoms: C18_23  and  C19_24
REMARK       I    between atoms: C22_30  and  N4_32
REMARK   13  A    between atoms: N4_32  and  C23_34
REMARK   14  A    between atoms: C23_34  and  C24_35
REMARK   15  A    between atoms: C23_34  and  C30_45
REMARK   16  A    between atoms: C24_35  and  C25_36
REMARK   17  A    between atoms: C25_36  and  C26_37
REMARK       I    between atoms: C30_45  and  N7_47
REMARK   18  A    between atoms: N7_47  and  C31_49
ROOT
HETATM    1  C13 UNL     1      -8.102   0.410 -27.232  1.00  0.00     0.183 C
ENDROOT
BRANCH   1   2
HETATM    2  N1  UNL     1      -7.923  -0.262 -25.966  1.00  0.00    -0.327 N
BRANCH   2   3
HETATM    3  C8  UNL     1      -8.153  -1.634 -25.789  1.00  0.00     0.153 C
BRANCH   3   4
HETATM    4  C7  UNL     1      -9.229  -2.474 -25.395  1.00  0.00     0.016 A
HETATM    5  C6  UNL     1      -9.996  -2.467 -24.266  1.00  0.00     0.022 A
HETATM    6  C4  UNL     1     -10.986  -3.412 -23.994  1.00  0.00    -0.061 A
HETATM    7  C3  UNL     1     -11.251  -4.428 -24.874  1.00  0.00     0.013 A
HETATM    8  C5  UNL     1     -11.793  -3.337 -22.743  1.00  0.00     0.048 C
HETATM    9  C2  UNL     1     -10.512  -4.479 -26.024  1.00  0.00    -0.061 A
HETATM   10  C1  UNL     1     -10.779  -5.581 -27.015  1.00  0.00     0.048 C
HETATM   11  C35 UNL     1      -9.542  -3.538 -26.271  1.00  0.00     0.022 A
ENDBRANCH   3   4
BRANCH   3  12
HETATM   12  O1  UNL     1      -7.054  -2.323 -26.065  1.00  0.00    -0.345 OA
ATOM     13  H1  UNL     1      -6.784  -2.221 -26.970  1.00  0.00     0.219 HD
ENDBRANCH   3  12
ENDBRANCH   2   3
BRANCH   2  14
HETATM   14  C9  UNL     1      -7.691   0.507 -24.791  1.00  0.00     0.071 C
BRANCH  14  15
HETATM   15  C10 UNL     1      -6.454   1.031 -24.281  1.00  0.00     0.016 C
HETATM   16  C11 UNL     1      -6.137   2.479 -24.313  1.00  0.00     0.015 C
HETATM   17  C12 UNL     1      -5.206   0.286 -24.802  1.00  0.00     0.015 C
ENDBRANCH  14  15
ENDBRANCH   2  14
ENDBRANCH   1   2
BRANCH   1  18
HETATM   18  C14 UNL     1      -8.167   1.850 -27.062  1.00  0.00     0.044 C
BRANCH  18  19
HETATM   19  C15 UNL     1      -7.717   2.776 -28.139  1.00  0.00     0.105 C
BRANCH  19  20
HETATM   20  C16 UNL     1      -8.892   3.654 -28.505  1.00  0.00     0.219 C
HETATM   21  O2  UNL     1      -9.235   4.520 -27.687  1.00  0.00    -0.273 OA
HETATM   22  N2  UNL     1      -9.598   3.508 -29.729  1.00  0.00    -0.350 N
HETATM   23  C17 UNL     1     -10.766   4.373 -29.921  1.00  0.00     0.153 C
BRANCH  22  24
HETATM   24  C18 UNL     1      -9.230   2.622 -30.785  1.00  0.00     0.190 C
BRANCH  24  25
HETATM   25  C19 UNL     1     -10.144   1.459 -30.985  1.00  0.00     0.068 A
HETATM   26  N3  UNL     1     -10.453   0.475 -30.149  1.00  0.00    -0.362 N
HETATM   27  C20 UNL     1     -11.283  -0.447 -30.522  1.00  0.00     0.096 A
ATOM     28  H3  UNL     1     -10.039   0.445 -29.217  1.00  0.00     0.165 HD
HETATM   29  C21 UNL     1     -11.817  -0.367 -31.783  1.00  0.00     0.068 A
HETATM   30  S1  UNL     1     -11.081   1.055 -32.366  1.00  0.00    -0.086 SA
ENDBRANCH  24  25
ENDBRANCH  22  24
ENDBRANCH  19  20
ENDBRANCH  18  19
ENDBRANCH   1  18
BRANCH   1  31
HETATM   31  C22 UNL     1      -7.235  -0.165 -28.308  1.00  0.00     0.241 C
HETATM   32  O3  UNL     1      -7.863  -0.655 -29.300  1.00  0.00    -0.271 OA
HETATM   33  N4  UNL     1      -5.860  -0.227 -28.377  1.00  0.00    -0.346 N
ATOM     34  H4  UNL     1      -5.310   0.152 -27.606  1.00  0.00     0.163 HD
BRANCH  33  35
HETATM   35  C23 UNL     1      -5.153  -0.829 -29.540  1.00  0.00     0.177 C
BRANCH  35  36
HETATM   36  C24 UNL     1      -4.096  -1.757 -29.050  1.00  0.00     0.041 C
BRANCH  36  37
HETATM   37  C25 UNL     1      -4.245  -3.124 -29.635  1.00  0.00     0.064 C
BRANCH  37  38
HETATM   38  C26 UNL     1      -5.705  -3.483 -29.809  1.00  0.00     0.059 A
HETATM   39  N5  UNL     1      -6.645  -3.674 -28.878  1.00  0.00    -0.244 N
HETATM   40  O4  UNL     1      -7.788  -3.977 -29.437  1.00  0.00    -0.155 OA
ATOM     41  H5  UNL     1      -6.492  -3.596 -27.872  1.00  0.00     0.196 HD
HETATM   42  N6  UNL     1      -7.627  -3.991 -30.713  1.00  0.00    -0.240 N
HETATM   43  C27 UNL     1      -8.605  -4.277 -31.775  1.00  0.00     0.188 C
HETATM   44  C28 UNL     1      -6.356  -3.692 -31.007  1.00  0.00     0.057 A
HETATM   45  C29 UNL     1      -5.709  -3.589 -32.343  1.00  0.00     0.072 C
ENDBRANCH  37  38
ENDBRANCH  36  37
ENDBRANCH  35  36
BRANCH  35  46
HETATM   46  C30 UNL     1      -4.582   0.264 -30.332  1.00  0.00     0.241 C
HETATM   47  O5  UNL     1      -3.935  -0.083 -31.388  1.00  0.00    -0.271 OA
HETATM   48  N7  UNL     1      -4.645   1.645 -30.081  1.00  0.00    -0.351 N
ATOM     49  H7  UNL     1      -5.138   1.981 -29.254  1.00  0.00     0.163 HD
BRANCH  48  50
HETATM   50  C31 UNL     1      -4.030   2.587 -30.963  1.00  0.00     0.022 C
HETATM   51  C32 UNL     1      -4.203   3.985 -30.383  1.00  0.00     0.037 C
HETATM   52  C33 UNL     1      -4.709   2.616 -32.316  1.00  0.00     0.037 C
HETATM   53  C34 UNL     1      -2.552   2.352 -31.142  1.00  0.00     0.037 C
ENDBRANCH  48  50
ENDBRANCH  35  46
ENDBRANCH  33  35
ENDBRANCH   1  31
TORSDOF 18
ENDMDL