MODEL 1
REMARK VINA RESULT: -7.482652955      0.000      0.000
REMARK  15 active torsions:
REMARK  status: ('A' for Active; 'I' for Inactive)
REMARK    1  A    between atoms: C2_2  and  C3_3
REMARK    2  A    between atoms: C3_3  and  C5_5
REMARK       I    between atoms: N2_13  and  C10_14
REMARK    3  A    between atoms: C10_14  and  C11_16
REMARK    4  A    between atoms: C11_16  and  C12_17
REMARK    5  A    between atoms: C12_17  and  C13_18
REMARK    6  A    between atoms: C16_29  and  C17_30
REMARK    7  A    between atoms: C17_30  and  C18_31
REMARK    8  A    between atoms: C18_31  and  C19_32
REMARK    9  A    between atoms: C19_32  and  C20_34
REMARK   10  A    between atoms: C20_34  and  C21_35
REMARK   11  A    between atoms: C21_35  and  C22_36
REMARK   12  A    between atoms: C22_36  and  C23_37
REMARK   13  A    between atoms: C23_37  and  C24_38
REMARK   14  A    between atoms: C24_38  and  C25_39
REMARK   15  A    between atoms: C27_41  and  N6_42
ROOT
HETATM    1  C5  UNL     1      -8.084  -3.453 -32.117  1.00  0.00     0.181 C
HETATM    2  N1  UNL     1      -6.788  -3.262 -32.748  1.00  0.00    -0.356 N
ATOM      3  H1  UNL     1      -6.664  -3.810 -33.599  1.00  0.00     0.162 HD
HETATM    4  C6  UNL     1      -5.780  -2.549 -32.450  1.00  0.00     0.184 C
HETATM    5  S1  UNL     1      -4.373  -2.646 -33.565  1.00  0.00    -0.060 SA
HETATM    6  C7  UNL     1      -2.914  -2.766 -32.458  1.00  0.00     0.106 C
HETATM    7  C8  UNL     1      -1.814  -1.961 -33.107  1.00  0.00     0.052 C
HETATM    8  C9  UNL     1      -2.574  -4.271 -32.464  1.00  0.00     0.052 C
HETATM    9  N2  UNL     1      -3.235  -2.343 -31.136  1.00  0.00    -0.132 N
HETATM   10  C10 UNL     1      -2.313  -2.701 -30.096  1.00  0.00     0.240 C
HETATM   11  O1  UNL     1      -2.595  -2.447 -28.876  1.00  0.00    -0.272 OA
HETATM   12  C14 UNL     1      -4.346  -1.561 -30.711  1.00  0.00     0.705 C
HETATM   13  N3  UNL     1      -4.276  -0.658 -29.790  1.00  0.00    -0.233 N
ATOM     14  H31 UNL     1      -5.072  -0.098 -29.486  1.00  0.00     0.174 HD
ATOM     15  H32 UNL     1      -3.372  -0.580 -29.325  1.00  0.00     0.174 HD
HETATM   16  N4  UNL     1      -5.623  -1.671 -31.368  1.00  0.00     0.045 N
HETATM   17  C15 UNL     1      -6.638  -0.857 -30.758  1.00  0.00     0.714 A
HETATM   18  N5  UNL     1      -6.410   0.188 -30.064  1.00  0.00    -0.211 N
ATOM     19  H5  UNL     1      -5.477   0.554 -29.869  1.00  0.00     0.178 HD
HETATM   20  C16 UNL     1      -7.637   0.793 -29.584  1.00  0.00     0.193 A
HETATM   21  C32 UNL     1      -8.697  -0.109 -30.115  1.00  0.00     0.269 A
HETATM   22  O5  UNL     1      -9.941  -0.024 -29.969  1.00  0.00    -0.270 OA
HETATM   23  N7  UNL     1      -8.052  -1.118 -30.842  1.00  0.00    -0.077 N
HETATM   24  C33 UNL     1      -8.664  -2.226 -31.546  1.00  0.00     0.269 C
HETATM   25  O6  UNL     1      -9.908  -2.113 -31.691  1.00  0.00    -0.270 OA
ENDROOT
BRANCH  20  26
HETATM   26  C17 UNL     1      -7.573   0.741 -28.078  1.00  0.00     0.043 C
BRANCH  26  27
HETATM   27  C18 UNL     1      -6.267   1.208 -27.503  1.00  0.00     0.080 C
BRANCH  27  28
HETATM   28  C19 UNL     1      -5.663   0.163 -26.610  1.00  0.00     0.127 C
HETATM   29  O4  UNL     1      -5.447  -0.922 -27.073  1.00  0.00    -0.298 OA
BRANCH  28  30
HETATM   30  C20 UNL     1      -5.350   0.472 -25.207  1.00  0.00     0.078 C
BRANCH  30  31
HETATM   31  C21 UNL     1      -5.835   1.770 -24.690  1.00  0.00     0.007 C
BRANCH  31  32
HETATM   32  C22 UNL     1      -7.101   1.705 -23.860  1.00  0.00     0.000 C
BRANCH  32  33
HETATM   33  C23 UNL     1      -8.327   1.887 -24.685  1.00  0.00     0.000 C
BRANCH  33  34
HETATM   34  C24 UNL     1      -9.361   0.850 -24.390  1.00  0.00     0.005 C
BRANCH  34  35
HETATM   35  C25 UNL     1      -9.434  -0.278 -25.363  1.00  0.00    -0.010 C
HETATM   36  C26 UNL     1     -10.663  -1.184 -25.144  1.00  0.00     0.038 C
HETATM   37  C27 UNL     1      -9.809  -2.404 -25.253  1.00  0.00     0.190 C
HETATM   38  C31 UNL     1      -8.606  -1.511 -25.035  1.00  0.00     0.038 C
BRANCH  37  39
HETATM   39  N6  UNL     1     -10.023  -3.449 -24.303  1.00  0.00    -0.074 N
HETATM   40  C28 UNL     1     -10.608  -4.634 -24.954  1.00  0.00     0.272 C
HETATM   41  C29 UNL     1     -11.005  -3.073 -23.277  1.00  0.00     0.272 C
HETATM   42  C30 UNL     1      -8.841  -3.886 -23.625  1.00  0.00     0.272 C
ENDBRANCH  37  39
ENDBRANCH  34  35
ENDBRANCH  33  34
ENDBRANCH  32  33
ENDBRANCH  31  32
ENDBRANCH  30  31
ENDBRANCH  28  30
ENDBRANCH  27  28
ENDBRANCH  26  27
ENDBRANCH  20  26
BRANCH   1  43
HETATM   43  C3  UNL     1      -8.002  -4.589 -31.089  1.00  0.00     0.013 C
HETATM   44  C4  UNL     1      -8.968  -5.674 -31.553  1.00  0.00     0.012 C
BRANCH  43  45
HETATM   45  C2  UNL     1      -8.513  -4.096 -29.753  1.00  0.00     0.002 C
HETATM   46  C1  UNL     1      -8.933  -5.269 -28.876  1.00  0.00     0.005 C
ENDBRANCH  43  45
ENDBRANCH   1  43
BRANCH  10  47
HETATM   47  C11 UNL     1      -1.005  -3.363 -30.293  1.00  0.00     0.114 C
BRANCH  47  48
HETATM   48  C12 UNL     1       0.101  -2.394 -29.777  1.00  0.00     0.122 C
BRANCH  48  49
HETATM   49  C13 UNL     1       0.994  -3.092 -28.834  1.00  0.00     0.172 C
HETATM   50  O2  UNL     1       0.570  -3.442 -27.682  1.00  0.00    -0.648 OA
HETATM   51  O3  UNL     1       2.309  -3.403 -29.133  1.00  0.00    -0.648 OA
ENDBRANCH  48  49
ENDBRANCH  47  48
ENDBRANCH  10  47
TORSDOF 15
ENDMDL