MODEL 3
REMARK VINA RESULT: -7.865530761      3.444     10.016
REMARK  17 active torsions:
REMARK  status: ('A' for Active; 'I' for Inactive)
REMARK    1  A    between atoms: O1_2  and  C2_3
REMARK    2  A    between atoms: C2_3  and  C3_5
REMARK    3  A    between atoms: C6_8  and  C7_9
REMARK    4  A    between atoms: C9_13  and  O4_14
REMARK    5  A    between atoms: O4_14  and  S1_15
REMARK    6  A    between atoms: S1_15  and  N2_18
REMARK    7  A    between atoms: N2_18  and  C10_20
REMARK    8  A    between atoms: C10_20  and  C11_21
REMARK    9  A    between atoms: C11_21  and  C12_22
REMARK   10  A    between atoms: C12_22  and  C13_23
REMARK   11  A    between atoms: C13_23  and  C14_24
REMARK   12  A    between atoms: C14_24  and  N3_25
REMARK   13  A    between atoms: C19_30  and  C20_31
REMARK   14  A    between atoms: C20_31  and  C21_32
REMARK   15  A    between atoms: C24_35  and  C25_36
REMARK   16  A    between atoms: C25_36  and  C26_37
REMARK   17  A    between atoms: C29_40  and  C30_41
ROOT
HETATM    1  N3  UNL     1     -10.086  -2.519 -24.806  1.00  0.00    -0.357 N
HETATM    2  C15 UNL     1     -10.201  -3.058 -23.585  1.00  0.00     0.091 A
HETATM    3  C16 UNL     1     -11.063  -4.082 -23.284  1.00  0.00     0.017 A
HETATM    4  C17 UNL     1     -11.857  -4.590 -24.281  1.00  0.00     0.004 A
HETATM    5  C18 UNL     1     -11.760  -4.052 -25.546  1.00  0.00     0.029 A
HETATM    6  C19 UNL     1     -10.873  -3.020 -25.796  1.00  0.00     0.035 A
ENDROOT
BRANCH   1   7
HETATM    7  C14 UNL     1      -9.165  -1.448 -25.135  1.00  0.00     0.128 C
BRANCH   7   8
HETATM    8  C13 UNL     1      -7.724  -1.924 -25.000  1.00  0.00     0.020 C
BRANCH   8   9
HETATM    9  C12 UNL     1      -6.771  -1.082 -25.820  1.00  0.00     0.003 C
BRANCH   9  10
HETATM   10  C11 UNL     1      -5.972  -0.157 -24.948  1.00  0.00     0.020 C
BRANCH  10  11
HETATM   11  C10 UNL     1      -6.053   1.270 -25.376  1.00  0.00     0.134 C
BRANCH  11  12
HETATM   12  N2  UNL     1      -6.924   1.448 -26.525  1.00  0.00    -0.297 N
ATOM     13  H2  UNL     1      -6.736   1.058 -27.449  1.00  0.00     0.174 HD
BRANCH  12  14
HETATM   14  S1  UNL     1      -8.322   2.400 -26.144  1.00  0.00     0.362 S
HETATM   15  O5  UNL     1      -9.312   1.687 -25.306  1.00  0.00    -0.175 OA
HETATM   16  O6  UNL     1      -7.818   3.631 -25.470  1.00  0.00    -0.175 OA
BRANCH  14  17
HETATM   17  O4  UNL     1      -9.083   2.794 -27.636  1.00  0.00    -0.216 OA
BRANCH  17  18
HETATM   18  C9  UNL     1      -9.103   4.125 -28.026  1.00  0.00     0.108 A
HETATM   19  C3  UNL     1      -8.145   4.651 -28.855  1.00  0.00     0.074 A
HETATM   20  C4  UNL     1      -8.253   6.002 -29.192  1.00  0.00     0.021 A
HETATM   21  C5  UNL     1      -9.301   6.744 -28.691  1.00  0.00     0.018 A
HETATM   22  C6  UNL     1     -10.258   6.213 -27.862  1.00  0.00     0.032 A
HETATM   23  C8  UNL     1     -10.165   4.878 -27.517  1.00  0.00     0.056 A
BRANCH  19  24
HETATM   24  C2  UNL     1      -7.019   3.881 -29.332  1.00  0.00     0.295 C
HETATM   25  O2  UNL     1      -6.003   3.703 -28.640  1.00  0.00    -0.259 OA
BRANCH  24  26
HETATM   26  O1  UNL     1      -7.014   3.295 -30.600  1.00  0.00    -0.322 OA
HETATM   27  C1  UNL     1      -6.431   3.923 -31.727  1.00  0.00     0.213 C
ENDBRANCH  24  26
ENDBRANCH  19  24
BRANCH  22  28
HETATM   28  C7  UNL     1     -11.348   7.044 -27.354  1.00  0.00     0.265 C
HETATM   29  N1  UNL     1     -11.113   8.345 -26.845  1.00  0.00    -0.057 NA
HETATM   30  O3  UNL     1     -12.533   6.564 -27.378  1.00  0.00    -0.271 OA
ENDBRANCH  22  28
ENDBRANCH  17  18
ENDBRANCH  14  17
ENDBRANCH  12  14
ENDBRANCH  11  12
ENDBRANCH  10  11
ENDBRANCH   9  10
ENDBRANCH   8   9
ENDBRANCH   7   8
ENDBRANCH   1   7
BRANCH   6  31
HETATM   31  C20 UNL     1     -10.787  -2.452 -27.123  1.00  0.00     0.048 C
BRANCH  31  32
HETATM   32  C21 UNL     1      -9.819  -2.943 -27.912  1.00  0.00     0.007 A
HETATM   33  C22 UNL     1      -9.439  -4.244 -28.106  1.00  0.00     0.020 A
HETATM   34  C23 UNL     1      -8.435  -4.476 -28.955  1.00  0.00     0.020 A
HETATM   35  C24 UNL     1      -7.855  -3.403 -29.571  1.00  0.00     0.007 A
HETATM   36  S3  UNL     1      -8.753  -2.084 -28.929  1.00  0.00    -0.090 SA
BRANCH  35  37
HETATM   37  C25 UNL     1      -6.840  -3.363 -30.452  1.00  0.00     0.037 C
BRANCH  37  38
HETATM   38  C26 UNL     1      -5.508  -2.997 -30.016  1.00  0.00     0.007 A
HETATM   39  C27 UNL     1      -5.072  -2.017 -29.174  1.00  0.00     0.020 A
HETATM   40  C28 UNL     1      -3.758  -1.918 -28.947  1.00  0.00     0.021 A
HETATM   41  C29 UNL     1      -2.937  -2.816 -29.582  1.00  0.00     0.015 A
HETATM   42  S2  UNL     1      -4.040  -3.765 -30.473  1.00  0.00    -0.090 SA
BRANCH  41  43
HETATM   43  C30 UNL     1      -1.486  -2.939 -29.513  1.00  0.00    -0.019 A
HETATM   44  C31 UNL     1      -0.714  -2.808 -30.647  1.00  0.00     0.013 A
HETATM   45  C32 UNL     1       0.663  -2.922 -30.620  1.00  0.00     0.001 A
HETATM   46  C33 UNL     1       1.323  -3.176 -29.435  1.00  0.00     0.000 A
HETATM   47  C34 UNL     1       0.567  -3.311 -28.294  1.00  0.00     0.001 A
HETATM   48  C35 UNL     1      -0.828  -3.192 -28.334  1.00  0.00     0.013 A
ENDBRANCH  41  43
ENDBRANCH  37  38
ENDBRANCH  35  37
ENDBRANCH  31  32
ENDBRANCH   6  31
TORSDOF 17
ENDMDL