MODEL 3
REMARK VINA RESULT: -7.204532049      1.995      4.150
REMARK  18 active torsions:
REMARK  status: ('A' for Active; 'I' for Inactive)
REMARK    1  A    between atoms: C5_5  and  S1_6
REMARK    2  A    between atoms: S1_6  and  N1_9
REMARK    3  A    between atoms: N1_9  and  C6_10
REMARK    4  A    between atoms: N1_9  and  C13_17
REMARK    5  A    between atoms: C6_10  and  C7_11
REMARK    6  A    between atoms: C13_17  and  C14_18
REMARK    7  A    between atoms: C14_18  and  C15_19
REMARK    8  A    between atoms: C14_18  and  O3_26
REMARK    9  A    between atoms: C15_19  and  C16_20
REMARK   10  A    between atoms: O3_26  and  C22_27
REMARK   11  A    between atoms: C22_27  and  C23_28
REMARK   12  A    between atoms: C24_29  and  C25_30
REMARK   13  A    between atoms: C25_30  and  N2_31
REMARK   14  A    between atoms: N3_34  and  C27_35
REMARK   15  A    between atoms: C27_35  and  C28_36
REMARK   16  A    between atoms: C31_41  and  C32_42
REMARK   17  A    between atoms: C33_43  and  C34_44
REMARK   18  A    between atoms: C34_44  and  O7_45
ROOT
HETATM    1  C14 UNL     1      -6.467  -0.892 -29.363  1.00  0.00     0.165 C
ENDROOT
BRANCH   1   2
HETATM    2  C13 UNL     1      -6.508  -1.890 -28.290  1.00  0.00     0.114 C
BRANCH   2   3
HETATM    3  N1  UNL     1      -7.445  -1.767 -27.276  1.00  0.00    -0.259 N
BRANCH   3   4
HETATM    4  S1  UNL     1      -9.069  -2.105 -27.684  1.00  0.00     0.268 S
HETATM    5  O1  UNL     1      -9.666  -0.905 -28.350  1.00  0.00    -0.200 OA
HETATM    6  O2  UNL     1      -9.109  -3.245 -28.648  1.00  0.00    -0.200 OA
BRANCH   4   7
HETATM    7  C5  UNL     1     -10.060  -2.575 -26.318  1.00  0.00     0.080 A
HETATM    8  C4  UNL     1     -10.156  -3.898 -25.930  1.00  0.00     0.026 A
HETATM    9  C3  UNL     1     -10.935  -4.271 -24.847  1.00  0.00     0.008 A
HETATM   10  C2  UNL     1     -11.649  -3.354 -24.107  1.00  0.00    -0.062 A
HETATM   11  C1  UNL     1     -12.476  -3.796 -22.947  1.00  0.00     0.048 C
HETATM   12  C39 UNL     1     -11.546  -2.039 -24.504  1.00  0.00     0.008 A
HETATM   13  C38 UNL     1     -10.774  -1.654 -25.580  1.00  0.00     0.026 A
ENDBRANCH   4   7
ENDBRANCH   3   4
BRANCH   3  14
HETATM   14  C6  UNL     1      -7.192  -1.616 -25.923  1.00  0.00     0.119 C
BRANCH  14  15
HETATM   15  C7  UNL     1      -6.919  -0.266 -25.399  1.00  0.00    -0.020 A
HETATM   16  C8  UNL     1      -7.850   0.670 -25.055  1.00  0.00     0.013 A
HETATM   17  C9  UNL     1      -7.518   1.914 -24.577  1.00  0.00     0.001 A
HETATM   18  C10 UNL     1      -6.173   2.267 -24.423  1.00  0.00     0.000 A
HETATM   19  C11 UNL     1      -5.229   1.342 -24.762  1.00  0.00     0.001 A
HETATM   20  C12 UNL     1      -5.588   0.121 -25.232  1.00  0.00     0.013 A
ENDBRANCH  14  15
ENDBRANCH   3  14
ENDBRANCH   2   3
ENDBRANCH   1   2
BRANCH   1  21
HETATM   21  C15 UNL     1      -5.575   0.323 -29.071  1.00  0.00     0.076 C
BRANCH  21  22
HETATM   22  C16 UNL     1      -6.294   1.521 -28.655  1.00  0.00    -0.055 A
HETATM   23  C17 UNL     1      -7.649   1.618 -28.681  1.00  0.00     0.007 A
HETATM   24  C18 UNL     1      -8.373   2.743 -28.274  1.00  0.00     0.001 A
HETATM   25  C19 UNL     1      -7.676   3.828 -27.814  1.00  0.00     0.000 A
HETATM   26  C20 UNL     1      -6.300   3.746 -27.783  1.00  0.00     0.001 A
HETATM   27  C21 UNL     1      -5.614   2.649 -28.182  1.00  0.00     0.007 A
ENDBRANCH  21  22
ENDBRANCH   1  21
BRANCH   1  28
HETATM   28  O3  UNL     1      -5.807  -1.521 -30.479  1.00  0.00    -0.377 OA
BRANCH  28  29
HETATM   29  C22 UNL     1      -6.575  -1.437 -31.633  1.00  0.00     0.196 C
BRANCH  29  30
HETATM   30  C23 UNL     1      -8.015  -1.307 -31.434  1.00  0.00    -0.003 C
HETATM   31  C24 UNL     1      -8.755  -0.463 -32.105  1.00  0.00    -0.009 C
BRANCH  31  32
HETATM   32  C25 UNL     1      -8.365   0.499 -33.143  1.00  0.00     0.161 C
BRANCH  32  33
HETATM   33  N2  UNL     1      -8.109   1.827 -32.555  1.00  0.00    -0.294 N
HETATM   34  C26 UNL     1      -8.990   2.771 -32.229  1.00  0.00     0.330 A
HETATM   35  O4  UNL     1     -10.241   2.675 -32.368  1.00  0.00    -0.246 OA
HETATM   36  N3  UNL     1      -8.376   3.855 -31.726  1.00  0.00    -0.287 N
HETATM   37  C29 UNL     1      -7.058   3.590 -31.732  1.00  0.00     0.068 A
HETATM   38  C30 UNL     1      -5.949   4.317 -31.347  1.00  0.00     0.052 A
HETATM   39  C37 UNL     1      -6.895   2.311 -32.256  1.00  0.00     0.066 A
HETATM   40  C31 UNL     1      -4.656   3.820 -31.458  1.00  0.00     0.020 A
HETATM   41  C35 UNL     1      -4.494   2.541 -31.980  1.00  0.00     0.023 A
HETATM   42  C36 UNL     1      -5.606   1.838 -32.356  1.00  0.00     0.034 A
BRANCH  36  43
HETATM   43  C27 UNL     1      -8.970   5.090 -31.262  1.00  0.00     0.247 C
BRANCH  43  44
HETATM   44  C28 UNL     1      -9.108   6.076 -32.386  1.00  0.00     0.192 C
HETATM   45  O5  UNL     1      -8.245   6.959 -32.497  1.00  0.00    -0.647 OA
HETATM   46  O6  UNL     1     -10.175   6.007 -33.283  1.00  0.00    -0.647 OA
ENDBRANCH  43  44
ENDBRANCH  36  43
BRANCH  40  47
HETATM   47  C32 UNL     1      -3.536   4.609 -31.055  1.00  0.00    -0.065 C
HETATM   48  C33 UNL     1      -2.589   5.259 -30.737  1.00  0.00    -0.075 C
BRANCH  48  49
HETATM   49  C34 UNL     1      -1.406   6.067 -30.371  1.00  0.00     0.258 C
BRANCH  49  50
HETATM   50  O7  UNL     1      -0.382   5.274 -29.922  1.00  0.00    -0.389 OA
ATOM     51  H7  UNL     1      -0.713   4.486 -29.508  1.00  0.00     0.210 HD
ENDBRANCH  49  50
ENDBRANCH  48  49
ENDBRANCH  40  47
ENDBRANCH  32  33
ENDBRANCH  31  32
ENDBRANCH  29  30
ENDBRANCH  28  29
ENDBRANCH   1  28
TORSDOF 18
ENDMDL