MODEL 1
REMARK VINA RESULT: -6.455537289      0.000      0.000
REMARK  12 active torsions:
REMARK  status: ('A' for Active; 'I' for Inactive)
REMARK    1  A    between atoms: C2_2  and  C13_21
REMARK    2  A    between atoms: C3_3  and  C4_4
REMARK    3  A    between atoms: C4_4  and  C5_5
REMARK    4  A    between atoms: C4_4  and  C9_13
REMARK    5  A    between atoms: C5_5  and  C6_6
REMARK    6  A    between atoms: C6_6  and  O1_7
REMARK    7  A    between atoms: C6_6  and  C7_9
REMARK    8  A    between atoms: C7_9  and  C8_10
REMARK    9  A    between atoms: C13_21  and  C14_22
REMARK   10  A    between atoms: C14_22  and  C15_23
REMARK   11  A    between atoms: C15_23  and  C17_25
REMARK   12  A    between atoms: C20_28  and  C21_29
ROOT
HETATM    1  C4  UNL     1      68.559  -0.512  44.746  1.00  0.00     0.046 C
ENDROOT
BRANCH   1   2
HETATM    2  C3  UNL     1      67.287  -0.684  44.053  1.00  0.00    -0.015 C
HETATM    3  C2  UNL     1      66.172  -1.202  44.580  1.00  0.00    -0.087 C
HETATM    4  C1  UNL     1      65.004  -1.263  43.638  1.00  0.00     0.043 C
BRANCH   3   5
HETATM    5  C13 UNL     1      66.049  -1.668  45.973  1.00  0.00     0.034 C
BRANCH   5   6
HETATM    6  C14 UNL     1      66.002  -3.105  46.229  1.00  0.00     0.009 C
BRANCH   6   7
HETATM    7  C15 UNL     1      65.183  -3.740  47.264  1.00  0.00    -0.014 C
HETATM    8  C16 UNL     1      64.914  -2.572  48.297  1.00  0.00     0.010 C
BRANCH   7   9
HETATM    9  C17 UNL     1      63.775  -4.126  46.888  1.00  0.00    -0.011 C
HETATM   10  C18 UNL     1      62.711  -3.326  47.601  1.00  0.00     0.005 C
HETATM   11  C19 UNL     1      61.463  -4.171  47.656  1.00  0.00     0.005 C
HETATM   12  C20 UNL     1      61.432  -5.296  46.668  1.00  0.00    -0.011 C
HETATM   13  C24 UNL     1      62.080  -5.006  45.365  1.00  0.00     0.005 C
HETATM   14  C25 UNL     1      63.435  -4.339  45.481  1.00  0.00     0.005 C
BRANCH  12  15
HETATM   15  C21 UNL     1      60.019  -5.795  46.434  1.00  0.00    -0.019 C
HETATM   16  C22 UNL     1      59.368  -6.377  47.644  1.00  0.00     0.010 C
HETATM   17  C23 UNL     1      60.019  -6.863  45.356  1.00  0.00     0.010 C
ENDBRANCH  12  15
ENDBRANCH   7   9
ENDBRANCH   6   7
ENDBRANCH   5   6
ENDBRANCH   3   5
ENDBRANCH   1   2
BRANCH   1  18
HETATM   18  C5  UNL     1      69.736  -0.792  43.822  1.00  0.00     0.045 C
BRANCH  18  19
HETATM   19  C6  UNL     1      69.951  -2.251  43.629  1.00  0.00     0.129 C
BRANCH  19  20
HETATM   20  O1  UNL     1      70.107  -2.832  44.892  1.00  0.00    -0.395 OA
ATOM     21  H1  UNL     1      69.362  -2.578  45.423  1.00  0.00     0.210 HD
ENDBRANCH  19  20
BRANCH  19  22
HETATM   22  C7  UNL     1      71.090  -2.586  42.736  1.00  0.00     0.144 C
BRANCH  22  23
HETATM   23  C8  UNL     1      71.900  -3.738  43.088  1.00  0.00     0.175 C
HETATM   24  O2  UNL     1      73.153  -3.689  42.890  1.00  0.00    -0.648 OA
HETATM   25  O3  UNL     1      71.426  -4.916  43.633  1.00  0.00    -0.648 OA
ENDBRANCH  22  23
ENDBRANCH  19  22
ENDBRANCH  18  19
ENDBRANCH   1  18
BRANCH   1  26
HETATM   26  C9  UNL     1      68.742   0.859  45.302  1.00  0.00    -0.019 A
HETATM   27  C10 UNL     1      69.210   1.902  44.530  1.00  0.00     0.098 A
HETATM   28  N1  UNL     1      69.362   3.118  45.067  1.00  0.00    -0.362 N
HETATM   29  C11 UNL     1      69.087   3.409  46.344  1.00  0.00     0.180 A
ATOM     30  H1  UNL     1      69.710   3.867  44.468  1.00  0.00     0.166 HD
HETATM   31  N2  UNL     1      68.624   2.382  47.112  1.00  0.00    -0.362 N
HETATM   32  C12 UNL     1      68.457   1.153  46.613  1.00  0.00     0.098 A
ATOM     33  H2  UNL     1      68.399   2.556  48.091  1.00  0.00     0.166 HD
ENDBRANCH   1  26
TORSDOF 12
ENDMDL