MODEL 3
REMARK VINA RESULT: -5.419247490      3.893      8.163
REMARK  15 active torsions:
REMARK  status: ('A' for Active; 'I' for Inactive)
REMARK    1  A    between atoms: C2_2  and  O2_4
REMARK    2  A    between atoms: O2_4  and  C3_5
REMARK    3  A    between atoms: C3_5  and  C16_22
REMARK    4  A    between atoms: C4_6  and  C5_7
REMARK    5  A    between atoms: C5_7  and  C6_8
REMARK    6  A    between atoms: C6_8  and  C7_9
REMARK    7  A    between atoms: C11_13  and  C12_14
REMARK    8  A    between atoms: C12_14  and  O3_15
REMARK    9  A    between atoms: C13_17  and  C14_18
REMARK   10  A    between atoms: C14_18  and  O4_19
REMARK   11  A    between atoms: C16_22  and  C17_23
REMARK   12  A    between atoms: C17_23  and  C18_24
REMARK   13  A    between atoms: C19_25  and  C21_27
REMARK   14  A    between atoms: C21_27  and  C22_28
REMARK   15  A    between atoms: C22_28  and  C23_29
ROOT
HETATM    1  C3  UNL     1      63.346  -4.714  46.051  1.00  0.00     0.053 C
HETATM    2  C4  UNL     1      64.624  -4.506  46.198  1.00  0.00     0.006 C
ENDROOT
BRANCH   1   3
HETATM    3  O2  UNL     1      62.454  -3.764  46.394  1.00  0.00    -0.284 OA
BRANCH   3   4
HETATM    4  C2  UNL     1      61.719  -3.557  47.507  1.00  0.00     0.259 C
HETATM    5  C1  UNL     1      60.946  -4.699  48.117  1.00  0.00     0.126 C
HETATM    6  O1  UNL     1      61.704  -2.420  47.997  1.00  0.00    -0.265 OA
ENDBRANCH   3   4
ENDBRANCH   1   3
BRANCH   1   7
HETATM    7  C16 UNL     1      62.973  -6.063  45.485  1.00  0.00     0.068 C
BRANCH   7   8
HETATM    8  C17 UNL     1      62.040  -5.972  44.316  1.00  0.00     0.034 C
BRANCH   8   9
HETATM    9  C18 UNL     1      61.606  -7.357  43.975  1.00  0.00    -0.024 C
HETATM   10  C19 UNL     1      60.380  -7.789  43.912  1.00  0.00    -0.087 C
HETATM   11  C20 UNL     1      59.220  -6.905  44.186  1.00  0.00     0.043 C
BRANCH  10  12
HETATM   12  C21 UNL     1      60.112  -9.205  43.552  1.00  0.00     0.037 C
BRANCH  12  13
HETATM   13  C22 UNL     1      58.743  -9.570  44.067  1.00  0.00     0.031 C
BRANCH  13  14
HETATM   14  C23 UNL     1      58.873 -10.668  45.073  1.00  0.00    -0.024 C
HETATM   15  C24 UNL     1      58.701 -10.479  46.367  1.00  0.00    -0.091 C
HETATM   16  C25 UNL     1      58.846 -11.613  47.303  1.00  0.00     0.042 C
HETATM   17  C26 UNL     1      58.366  -9.140  46.877  1.00  0.00     0.042 C
ENDBRANCH  13  14
ENDBRANCH  12  13
ENDBRANCH  10  12
ENDBRANCH   8   9
ENDBRANCH   7   8
ENDBRANCH   1   7
BRANCH   2  18
HETATM   18  C5  UNL     1      65.241  -3.291  46.721  1.00  0.00     0.030 C
BRANCH  18  19
HETATM   19  C6  UNL     1      66.282  -2.668  45.899  1.00  0.00     0.013 C
BRANCH  19  20
HETATM   20  C7  UNL     1      65.995  -1.189  45.602  1.00  0.00    -0.043 C
HETATM   21  C8  UNL     1      64.640  -0.858  46.191  1.00  0.00     0.015 C
HETATM   22  C9  UNL     1      65.960  -0.871  44.150  1.00  0.00     0.010 C
HETATM   23  C10 UNL     1      67.302  -1.153  43.537  1.00  0.00     0.008 C
HETATM   24  C11 UNL     1      68.432  -0.457  44.204  1.00  0.00     0.015 C
HETATM   25  C13 UNL     1      68.270  -0.051  45.610  1.00  0.00     0.016 C
HETATM   26  C15 UNL     1      67.017  -0.366  46.321  1.00  0.00     0.016 C
BRANCH  24  27
HETATM   27  C12 UNL     1      69.756  -1.220  44.002  1.00  0.00     0.169 C
BRANCH  27  28
HETATM   28  O3  UNL     1      69.718  -2.286  44.898  1.00  0.00    -0.400 OA
ATOM     29  H3  UNL     1      69.587  -1.898  45.755  1.00  0.00     0.209 HD
ENDBRANCH  27  28
ENDBRANCH  24  27
BRANCH  25  30
HETATM   30  C14 UNL     1      68.651   1.436  45.773  1.00  0.00     0.169 C
BRANCH  30  31
HETATM   31  O4  UNL     1      68.277   1.878  47.053  1.00  0.00    -0.400 OA
ATOM     32  H4  UNL     1      67.581   2.520  46.976  1.00  0.00     0.209 HD
ENDBRANCH  30  31
ENDBRANCH  25  30
ENDBRANCH  19  20
ENDBRANCH  18  19
ENDBRANCH   2  18
TORSDOF 15
ENDMDL