MODEL 5
REMARK VINA RESULT: -5.688745097      4.877      8.315
REMARK  16 active torsions:
REMARK  status: ('A' for Active; 'I' for Inactive)
REMARK    1  A    between atoms: O1_2  and  C2_3
REMARK    2  A    between atoms: C4_5  and  C5_6
REMARK    3  A    between atoms: C6_7  and  C7_8
REMARK    4  A    between atoms: C7_8  and  O2_9
REMARK    5  A    between atoms: C8_11  and  C9_12
REMARK    6  A    between atoms: C10_13  and  C11_14
REMARK    7  A    between atoms: C11_14  and  C12_15
REMARK    8  A    between atoms: C12_15  and  C13_16
REMARK    9  A    between atoms: C13_16  and  C14_17
REMARK   10  A    between atoms: C16_19  and  C17_20
REMARK   11  A    between atoms: C17_20  and  C18_21
REMARK   12  A    between atoms: C18_21  and  C19_22
REMARK   13  A    between atoms: C20_23  and  C21_24
REMARK   14  A    between atoms: C21_24  and  C22_25
REMARK   15  A    between atoms: C22_25  and  O3_28
REMARK   16  A    between atoms: C27_32  and  O4_33
ROOT
HETATM    1  C9  UNL     1      66.209  -3.692  46.188  1.00  0.00     0.003 C
HETATM    2  C10 UNL     1      64.862  -4.108  45.963  1.00  0.00     0.000 C
ENDROOT
BRANCH   1   3
HETATM    3  C8  UNL     1      67.335  -3.699  45.607  1.00  0.00     0.036 C
HETATM    4  C7  UNL     1      68.343  -2.841  45.163  1.00  0.00     0.065 C
BRANCH   4   5
HETATM    5  C6  UNL     1      68.624  -1.463  45.141  1.00  0.00     0.037 C
HETATM    6  C5  UNL     1      68.161  -0.457  45.790  1.00  0.00     0.014 C
BRANCH   6   7
HETATM    7  C4  UNL     1      68.603   0.955  45.613  1.00  0.00    -0.033 A
HETATM    8  C3  UNL     1      68.409   1.870  46.609  1.00  0.00     0.051 A
HETATM    9  C2  UNL     1      68.809   3.218  46.492  1.00  0.00     0.102 A
HETATM   10  C27 UNL     1      69.412   3.570  45.306  1.00  0.00     0.099 A
HETATM   11  C26 UNL     1      69.616   2.662  44.291  1.00  0.00     0.040 A
HETATM   12  C25 UNL     1      69.214   1.361  44.443  1.00  0.00     0.014 A
BRANCH   9  13
HETATM   13  O1  UNL     1      68.604   4.135  47.517  1.00  0.00    -0.353 OA
HETATM   14  C1  UNL     1      67.310   4.684  47.662  1.00  0.00     0.210 C
ENDBRANCH   9  13
BRANCH  10  15
HETATM   15  O4  UNL     1      69.831   4.887  45.127  1.00  0.00    -0.358 OA
ATOM     16  H4  UNL     1      70.717   5.051  44.824  1.00  0.00     0.217 HD
ENDBRANCH  10  15
ENDBRANCH   6   7
ENDBRANCH   4   5
BRANCH   4  17
HETATM   17  O2  UNL     1      69.376  -3.543  44.568  1.00  0.00    -0.361 OA
ATOM     18  H2  UNL     1      69.484  -4.384  44.994  1.00  0.00     0.217 HD
ENDBRANCH   4  17
ENDBRANCH   1   3
BRANCH   2  19
HETATM   19  C11 UNL     1      63.850  -3.944  46.825  1.00  0.00    -0.000 C
BRANCH  19  20
HETATM   20  C12 UNL     1      63.749  -2.914  47.830  1.00  0.00    -0.004 C
BRANCH  20  21
HETATM   21  C13 UNL     1      63.358  -1.687  47.540  1.00  0.00    -0.022 C
BRANCH  21  22
HETATM   22  C14 UNL     1      64.324  -0.630  47.279  1.00  0.00     0.012 A
HETATM   23  C15 UNL     1      63.713   0.730  46.964  1.00  0.00     0.014 A
HETATM   24  C16 UNL     1      64.552  -0.045  45.947  1.00  0.00    -0.006 A
BRANCH  24  25
HETATM   25  C17 UNL     1      63.830  -0.538  44.721  1.00  0.00     0.009 C
BRANCH  25  26
HETATM   26  C18 UNL     1      64.844  -1.207  43.820  1.00  0.00     0.027 C
BRANCH  26  27
HETATM   27  C19 UNL     1      65.708  -0.237  43.112  1.00  0.00    -0.031 C
HETATM   28  C20 UNL     1      66.542  -0.666  42.181  1.00  0.00    -0.028 C
BRANCH  28  29
HETATM   29  C21 UNL     1      67.398   0.321  41.485  1.00  0.00     0.063 C
BRANCH  29  30
HETATM   30  C22 UNL     1      68.397  -0.454  40.636  1.00  0.00     0.053 C
HETATM   31  C23 UNL     1      69.276  -1.270  41.556  1.00  0.00     0.045 C
HETATM   32  C24 UNL     1      67.631  -1.373  39.694  1.00  0.00     0.045 C
BRANCH  30  33
HETATM   33  O3  UNL     1      69.213   0.395  39.918  1.00  0.00    -0.390 OA
ATOM     34  H3  UNL     1      69.573   1.079  40.469  1.00  0.00     0.210 HD
ENDBRANCH  30  33
ENDBRANCH  29  30
ENDBRANCH  28  29
ENDBRANCH  26  27
ENDBRANCH  25  26
ENDBRANCH  24  25
ENDBRANCH  21  22
ENDBRANCH  20  21
ENDBRANCH  19  20
ENDBRANCH   2  19
TORSDOF 16
ENDMDL