MODEL 3
REMARK VINA RESULT: -5.664682537      3.439      9.688
REMARK  12 active torsions:
REMARK  status: ('A' for Active; 'I' for Inactive)
REMARK    1  A    between atoms: C2_2  and  C3_4
REMARK    2  A    between atoms: C3_4  and  N1_5
REMARK    3  A    between atoms: N1_5  and  C4_7
REMARK    4  A    between atoms: C4_7  and  C5_8
REMARK    5  A    between atoms: C5_8  and  S1_9
REMARK    6  A    between atoms: S1_9  and  C6_10
REMARK    7  A    between atoms: C14_18  and  C15_19
REMARK    8  A    between atoms: C15_19  and  C16_20
REMARK    9  A    between atoms: C16_20  and  C17_21
REMARK   10  A    between atoms: C17_21  and  N2_22
REMARK   11  A    between atoms: N2_22  and  C18_24
REMARK   12  A    between atoms: C18_24  and  C19_25
ROOT
HETATM    1  C3  UNL     1      63.006  -2.437  46.809  1.00  0.00     0.086 C
HETATM    2  C12 UNL     1      63.964  -1.342  47.265  1.00  0.00     0.039 C
HETATM    3  C13 UNL     1      65.288  -1.935  47.568  1.00  0.00     0.007 C
HETATM    4  C14 UNL     1      65.132  -3.412  47.463  1.00  0.00    -0.011 C
HETATM    5  C25 UNL     1      63.856  -3.648  46.696  1.00  0.00     0.043 C
ENDROOT
BRANCH   1   6
HETATM    6  C2  UNL     1      62.493  -2.065  45.441  1.00  0.00     0.150 C
HETATM    7  C1  UNL     1      63.388  -2.068  44.265  1.00  0.00     0.093 C
HETATM    8  O1  UNL     1      61.343  -1.765  45.317  1.00  0.00    -0.296 OA
ENDBRANCH   1   6
BRANCH   1   9
HETATM    9  N1  UNL     1      61.987  -2.520  47.799  1.00  0.00    -0.406 N
ATOM     10  H1  UNL     1      61.618  -1.682  48.249  1.00  0.00     0.154 HD
BRANCH   9  11
HETATM   11  C4  UNL     1      61.500  -3.811  48.138  1.00  0.00     0.125 C
BRANCH  11  12
HETATM   12  C5  UNL     1      59.974  -3.763  47.997  1.00  0.00     0.093 C
BRANCH  12  13
HETATM   13  S1  UNL     1      59.335  -4.643  46.605  1.00  0.00    -0.163 SA
BRANCH  13  14
HETATM   14  C6  UNL     1      60.330  -5.881  45.851  1.00  0.00     0.047 C
HETATM   15  C7  UNL     1      59.604  -7.131  45.441  1.00  0.00     0.015 C
HETATM   16  C8  UNL     1      59.969  -7.684  44.117  1.00  0.00     0.001 C
HETATM   17  C9  UNL     1      61.401  -7.589  43.725  1.00  0.00     0.000 C
HETATM   18  C10 UNL     1      62.187  -6.533  44.469  1.00  0.00     0.001 C
HETATM   19  C11 UNL     1      61.176  -5.386  44.700  1.00  0.00     0.015 C
ENDBRANCH  13  14
ENDBRANCH  12  13
ENDBRANCH  11  12
ENDBRANCH   9  11
ENDBRANCH   1   9
BRANCH   4  20
HETATM   20  C15 UNL     1      66.334  -3.941  46.669  1.00  0.00     0.010 C
BRANCH  20  21
HETATM   21  C16 UNL     1      66.714  -2.890  45.596  1.00  0.00     0.045 C
BRANCH  21  22
HETATM   22  C17 UNL     1      68.126  -3.170  45.228  1.00  0.00     0.060 C
BRANCH  22  23
HETATM   23  N2  UNL     1      69.075  -2.186  45.254  1.00  0.00    -0.382 N
ATOM     24  H2  UNL     1      69.562  -2.085  46.145  1.00  0.00     0.164 HD
BRANCH  23  25
HETATM   25  C18 UNL     1      69.477  -1.313  44.276  1.00  0.00     0.064 C
BRANCH  25  26
HETATM   26  C19 UNL     1      69.212   0.147  44.556  1.00  0.00     0.024 C
HETATM   27  C20 UNL     1      68.654   0.270  45.981  1.00  0.00     0.010 C
HETATM   28  C21 UNL     1      67.649   1.393  45.985  1.00  0.00     0.001 C
HETATM   29  C22 UNL     1      66.412   0.881  45.237  1.00  0.00     0.000 C
HETATM   30  C23 UNL     1      66.795   0.298  43.913  1.00  0.00     0.001 C
HETATM   31  C24 UNL     1      68.225   0.696  43.569  1.00  0.00     0.010 C
ENDBRANCH  25  26
ENDBRANCH  23  25
ENDBRANCH  22  23
ENDBRANCH  21  22
ENDBRANCH  20  21
ENDBRANCH   4  20
TORSDOF 12
ENDMDL