MODEL 5
REMARK VINA RESULT: -5.770777326      2.422      8.463
REMARK  14 active torsions:
REMARK  status: ('A' for Active; 'I' for Inactive)
REMARK    1  A    between atoms: C2_2  and  C24_28
REMARK    2  A    between atoms: C3_3  and  C4_4
REMARK    3  A    between atoms: C4_4  and  C5_5
REMARK    4  A    between atoms: C5_5  and  C6_6
REMARK    5  A    between atoms: C8_8  and  C9_9
REMARK    6  A    between atoms: C9_9  and  C10_10
REMARK    7  A    between atoms: C10_10  and  C11_11
REMARK    8  A    between atoms: C11_11  and  O1_12
REMARK    9  A    between atoms: C12_14  and  C13_15
REMARK   10  A    between atoms: C13_15  and  C14_16
REMARK   11  A    between atoms: C14_16  and  C15_17
REMARK   12  A    between atoms: N1_23  and  C21_24
REMARK   13  A    between atoms: C24_28  and  C25_29
REMARK   14  A    between atoms: N2_30  and  O3_32
ROOT
HETATM    1  C11 UNL     1      63.409   0.943  47.207  1.00  0.00     0.039 C
HETATM    2  C12 UNL     1      64.546   0.937  46.580  1.00  0.00     0.005 C
ENDROOT
BRANCH   1   3
HETATM    3  C10 UNL     1      62.331   0.003  46.920  1.00  0.00     0.068 C
BRANCH   3   4
HETATM    4  C9  UNL     1      62.379  -1.230  47.754  1.00  0.00     0.034 C
BRANCH   4   5
HETATM    5  C8  UNL     1      62.704  -2.410  46.933  1.00  0.00    -0.024 C
HETATM    6  C6  UNL     1      63.777  -3.147  47.236  1.00  0.00    -0.087 C
HETATM    7  C7  UNL     1      64.640  -2.711  48.353  1.00  0.00     0.043 C
BRANCH   6   8
HETATM    8  C5  UNL     1      64.045  -4.320  46.375  1.00  0.00     0.037 C
BRANCH   8   9
HETATM    9  C4  UNL     1      63.029  -5.395  46.397  1.00  0.00     0.031 C
BRANCH   9  10
HETATM   10  C3  UNL     1      62.882  -6.074  45.102  1.00  0.00    -0.024 C
HETATM   11  C2  UNL     1      61.668  -6.352  44.643  1.00  0.00    -0.083 C
HETATM   12  C1  UNL     1      60.487  -5.974  45.447  1.00  0.00     0.043 C
BRANCH  11  13
HETATM   13  C24 UNL     1      61.549  -7.041  43.326  1.00  0.00     0.080 C
BRANCH  13  14
HETATM   14  C25 UNL     1      60.700  -8.232  43.410  1.00  0.00     0.091 C
HETATM   15  N2  UNL     1      60.759  -9.118  42.478  1.00  0.00    -0.284 N
ATOM     16  H2  UNL     1      60.167  -9.946  42.537  1.00  0.00     0.192 HD
BRANCH  15  17
HETATM   17  O3  UNL     1      61.594  -8.969  41.417  1.00  0.00    -0.291 OA
ATOM     18  H3  UNL     1      62.135  -8.194  41.321  1.00  0.00     0.244 HD
ENDBRANCH  15  17
ENDBRANCH  13  14
ENDBRANCH  11  13
ENDBRANCH   9  10
ENDBRANCH   8   9
ENDBRANCH   6   8
ENDBRANCH   4   5
ENDBRANCH   3   4
ENDBRANCH   1   3
BRANCH   1  19
HETATM   19  O1  UNL     1      63.237   1.922  48.208  1.00  0.00    -0.365 OA
ATOM     20  H1  UNL     1      62.494   1.869  48.797  1.00  0.00     0.217 HD
ENDBRANCH   1  19
BRANCH   2  21
HETATM   21  C13 UNL     1      64.977   0.032  45.501  1.00  0.00     0.030 C
BRANCH  21  22
HETATM   22  C14 UNL     1      66.302  -0.560  45.931  1.00  0.00     0.019 C
BRANCH  22  23
HETATM   23  C15 UNL     1      67.310  -0.653  44.819  1.00  0.00    -0.001 C
HETATM   24  C16 UNL     1      66.638  -0.002  43.598  1.00  0.00     0.022 C
HETATM   25  C17 UNL     1      68.446   0.241  45.162  1.00  0.00    -0.076 C
HETATM   26  C18 UNL     1      68.274   1.276  46.213  1.00  0.00     0.044 C
HETATM   27  C19 UNL     1      69.630   0.161  44.564  1.00  0.00    -0.004 C
HETATM   28  C20 UNL     1      69.793  -0.869  43.520  1.00  0.00     0.153 C
HETATM   29  N1  UNL     1      69.122  -2.071  43.962  1.00  0.00    -0.350 N
HETATM   30  C22 UNL     1      67.760  -2.008  44.473  1.00  0.00     0.095 C
HETATM   31  C23 UNL     1      67.662  -3.035  45.563  1.00  0.00     0.033 C
BRANCH  29  32
HETATM   32  C21 UNL     1      69.821  -3.300  43.882  1.00  0.00     0.351 C
HETATM   33  O2  UNL     1      71.056  -3.338  44.096  1.00  0.00    -0.284 OA
ENDBRANCH  29  32
ENDBRANCH  22  23
ENDBRANCH  21  22
ENDBRANCH   2  21
TORSDOF 14
ENDMDL