MODEL 1
REMARK VINA RESULT: -4.898028244      0.000      0.000
REMARK  14 active torsions:
REMARK  status: ('A' for Active; 'I' for Inactive)
REMARK    1  A    between atoms: C2_2  and  C3_3
REMARK    2  A    between atoms: C3_3  and  O1_4
REMARK    3  A    between atoms: O1_4  and  N1_5
REMARK    4  A    between atoms: C4_7  and  C5_8
REMARK    5  A    between atoms: C4_7  and  C15_18
REMARK    6  A    between atoms: C5_8  and  C6_9
REMARK    7  A    between atoms: C15_18  and  C16_19
REMARK    8  A    between atoms: C16_19  and  O2_21
REMARK    9  A    between atoms: C16_19  and  C18_23
REMARK   10  A    between atoms: C18_23  and  C19_24
REMARK   11  A    between atoms: C19_24  and  C20_25
REMARK   12  A    between atoms: C20_25  and  C23_28
REMARK   13  A    between atoms: C23_28  and  O3_30
REMARK   14  A    between atoms: C23_28  and  C25_32
ROOT
HETATM    1  N1  UNL     1      63.286  -3.539  47.087  1.00  0.00    -0.274 N
ATOM      2  H1  UNL     1      62.981  -3.231  48.010  1.00  0.00     0.193 HD
HETATM    3  C4  UNL     1      62.654  -4.592  46.616  1.00  0.00     0.016 C
ENDROOT
BRANCH   3   4
HETATM    4  C5  UNL     1      63.031  -5.100  45.300  1.00  0.00     0.082 C
BRANCH   4   5
HETATM    5  C6  UNL     1      62.049  -4.876  44.213  1.00  0.00    -0.014 C
HETATM    6  C7  UNL     1      61.328  -5.840  43.742  1.00  0.00    -0.061 C
HETATM    7  C8  UNL     1      61.398  -7.197  44.213  1.00  0.00     0.003 C
HETATM    8  C14 UNL     1      60.359  -5.543  42.618  1.00  0.00     0.047 C
HETATM    9  C9  UNL     1      60.827  -8.171  43.538  1.00  0.00    -0.025 C
HETATM   10  C10 UNL     1      60.096  -7.971  42.299  1.00  0.00     0.036 C
HETATM   11  C11 UNL     1      60.473  -6.687  41.618  1.00  0.00    -0.041 C
HETATM   12  C12 UNL     1      61.882  -6.762  41.105  1.00  0.00     0.015 C
HETATM   13  C13 UNL     1      59.491  -6.429  40.491  1.00  0.00     0.015 C
ENDBRANCH   4   5
ENDBRANCH   3   4
BRANCH   3  14
HETATM   14  C15 UNL     1      61.582  -5.195  47.426  1.00  0.00     0.092 C
BRANCH  14  15
HETATM   15  C16 UNL     1      60.271  -4.475  47.516  1.00  0.00     0.059 C
HETATM   16  C17 UNL     1      59.781  -4.186  48.887  1.00  0.00     0.046 C
BRANCH  15  17
HETATM   17  O2  UNL     1      60.396  -3.264  46.767  1.00  0.00    -0.390 OA
ATOM     18  H2  UNL     1      59.737  -3.284  46.082  1.00  0.00     0.210 HD
ENDBRANCH  15  17
BRANCH  15  19
HETATM   19  C18 UNL     1      59.282  -5.299  46.729  1.00  0.00     0.038 C
BRANCH  19  20
HETATM   20  C19 UNL     1      59.147  -6.689  47.213  1.00  0.00     0.014 C
BRANCH  20  21
HETATM   21  C20 UNL     1      57.989  -7.373  46.506  1.00  0.00    -0.017 C
HETATM   22  C21 UNL     1      57.695  -6.719  45.173  1.00  0.00     0.018 C
HETATM   23  C22 UNL     1      58.381  -8.806  46.258  1.00  0.00     0.018 C
BRANCH  21  24
HETATM   24  C23 UNL     1      56.714  -7.301  47.309  1.00  0.00     0.061 C
HETATM   25  C24 UNL     1      55.680  -6.488  46.566  1.00  0.00     0.046 C
BRANCH  24  26
HETATM   26  O3  UNL     1      56.188  -8.607  47.397  1.00  0.00    -0.389 OA
ATOM     27  H3  UNL     1      55.284  -8.536  47.681  1.00  0.00     0.210 HD
ENDBRANCH  24  26
BRANCH  24  28
HETATM   28  C25 UNL     1      57.003  -6.829  48.689  1.00  0.00     0.033 C
HETATM   29  C26 UNL     1      56.198  -5.594  49.062  1.00  0.00     0.008 C
ENDBRANCH  24  28
ENDBRANCH  21  24
ENDBRANCH  20  21
ENDBRANCH  19  20
ENDBRANCH  15  19
ENDBRANCH  14  15
ENDBRANCH   3  14
BRANCH   1  30
HETATM   30  O1  UNL     1      64.254  -2.822  46.552  1.00  0.00    -0.277 OA
BRANCH  30  31
HETATM   31  C3  UNL     1      65.601  -2.766  46.980  1.00  0.00     0.228 C
BRANCH  31  32
HETATM   32  C2  UNL     1      66.375  -3.838  46.288  1.00  0.00    -0.009 C
HETATM   33  C1  UNL     1      67.457  -3.508  45.565  1.00  0.00     0.009 C
ENDBRANCH  31  32
ENDBRANCH  30  31
ENDBRANCH   1  30
TORSDOF 14
ENDMDL