MODEL 4
REMARK VINA RESULT: -5.224252748      3.342     10.360
REMARK  16 active torsions:
REMARK  status: ('A' for Active; 'I' for Inactive)
REMARK    1  A    between atoms: C2_2  and  C3_3
REMARK    2  A    between atoms: C3_3  and  C4_4
REMARK    3  A    between atoms: C4_4  and  C5_5
REMARK    4  A    between atoms: C5_5  and  C6_6
REMARK    5  A    between atoms: C8_8  and  O1_9
REMARK    6  A    between atoms: C9_11  and  O2_12
REMARK    7  A    between atoms: C11_15  and  C12_16
REMARK    8  A    between atoms: C12_16  and  C13_17
REMARK    9  A    between atoms: C13_17  and  C14_18
REMARK   10  A    between atoms: C14_18  and  C15_19
REMARK   11  A    between atoms: C16_20  and  C18_22
REMARK   12  A    between atoms: C19_23  and  C20_24
REMARK   13  A    between atoms: C20_24  and  C22_26
REMARK   14  A    between atoms: C22_26  and  C23_27
REMARK   15  A    between atoms: C23_27  and  C25_29
REMARK   16  A    between atoms: C25_29  and  O4_31
ROOT
HETATM    1  C12 UNL     1      61.832  -4.049  48.007  1.00  0.00    -0.167 C
ENDROOT
BRANCH   1   2
HETATM    2  C11 UNL     1      62.793  -3.617  47.369  1.00  0.00     0.059 C
HETATM    3  C6  UNL     1      63.769  -4.251  46.503  1.00  0.00     0.003 C
HETATM    4  C7  UNL     1      64.006  -3.103  45.377  1.00  0.00     0.040 C
HETATM    5  C8  UNL     1      64.739  -1.960  45.929  1.00  0.00     0.147 C
HETATM    6  C9  UNL     1      64.791  -2.066  47.451  1.00  0.00     0.148 C
HETATM    7  C10 UNL     1      63.295  -2.185  47.802  1.00  0.00     0.051 C
BRANCH   3   8
HETATM    8  C5  UNL     1      63.344  -5.327  45.536  1.00  0.00     0.006 C
BRANCH   8   9
HETATM    9  C4  UNL     1      62.241  -5.207  44.619  1.00  0.00     0.000 C
BRANCH   9  10
HETATM   10  C3  UNL     1      61.264  -6.335  44.494  1.00  0.00    -0.000 C
BRANCH  10  11
HETATM   11  C2  UNL     1      61.501  -7.465  43.624  1.00  0.00    -0.005 C
HETATM   12  C1  UNL     1      61.552  -7.132  42.167  1.00  0.00     0.005 C
ENDBRANCH  10  11
ENDBRANCH   9  10
ENDBRANCH   8   9
ENDBRANCH   3   8
BRANCH   5  13
HETATM   13  O1  UNL     1      64.054  -0.730  45.718  1.00  0.00    -0.393 OA
ATOM     14  H1  UNL     1      63.620  -0.422  46.505  1.00  0.00     0.210 HD
ENDBRANCH   5  13
BRANCH   6  15
HETATM   15  O2  UNL     1      65.179  -0.823  47.930  1.00  0.00    -0.393 OA
ATOM     16  H2  UNL     1      64.565  -0.586  48.616  1.00  0.00     0.210 HD
ENDBRANCH   6  15
ENDBRANCH   1   2
BRANCH   1  17
HETATM   17  C13 UNL     1      60.726  -4.547  48.740  1.00  0.00     0.165 C
BRANCH  17  18
HETATM   18  C14 UNL     1      59.944  -5.377  48.170  1.00  0.00    -0.144 C
BRANCH  18  19
HETATM   19  C15 UNL     1      59.123  -6.290  47.589  1.00  0.00     0.058 C
HETATM   20  C16 UNL     1      57.989  -6.931  47.584  1.00  0.00    -0.055 C
HETATM   21  C17 UNL     1      56.856  -6.827  48.479  1.00  0.00     0.049 C
BRANCH  20  22
HETATM   22  C18 UNL     1      58.109  -8.168  46.743  1.00  0.00     0.004 C
HETATM   23  C19 UNL     1      58.551  -8.530  45.629  1.00  0.00    -0.022 C
BRANCH  23  24
HETATM   24  C20 UNL     1      58.347 -10.041  45.244  1.00  0.00     0.005 C
HETATM   25  C21 UNL     1      59.485 -10.443  44.305  1.00  0.00     0.014 C
BRANCH  24  26
HETATM   26  C22 UNL     1      58.545 -10.856  46.471  1.00  0.00     0.022 C
BRANCH  26  27
HETATM   27  C23 UNL     1      58.097 -12.282  46.336  1.00  0.00     0.082 C
HETATM   28  C24 UNL     1      59.242 -13.143  46.987  1.00  0.00     0.020 C
BRANCH  27  29
HETATM   29  C25 UNL     1      56.952 -12.500  47.301  1.00  0.00     0.262 C
HETATM   30  O3  UNL     1      55.916 -11.839  47.053  1.00  0.00    -0.265 OA
BRANCH  29  31
HETATM   31  O4  UNL     1      56.991 -13.348  48.376  1.00  0.00    -0.326 OA
HETATM   32  C26 UNL     1      55.866 -13.543  49.222  1.00  0.00     0.213 C
ENDBRANCH  29  31
ENDBRANCH  27  29
ENDBRANCH  26  27
ENDBRANCH  24  26
ENDBRANCH  23  24
ENDBRANCH  20  22
ENDBRANCH  18  19
ENDBRANCH  17  18
ENDBRANCH   1  17
TORSDOF 16
ENDMDL