MODEL 2
REMARK VINA RESULT: -5.280109441      0.750      1.546
REMARK  14 active torsions:
REMARK  status: ('A' for Active; 'I' for Inactive)
REMARK    1  A    between atoms: C4_4  and  C5_5
REMARK    2  A    between atoms: C5_5  and  C6_6
REMARK    3  A    between atoms: C6_6  and  C7_7
REMARK    4  A    between atoms: C9_9  and  C10_10
REMARK    5  A    between atoms: C10_10  and  C11_11
REMARK    6  A    between atoms: C11_11  and  C12_12
REMARK    7  A    between atoms: C14_14  and  C15_15
REMARK    8  A    between atoms: C15_15  and  C16_16
REMARK    9  A    between atoms: C16_16  and  C17_17
REMARK   10  A    between atoms: C20_20  and  C21_21
REMARK   11  A    between atoms: C20_20  and  C22_24
REMARK   12  A    between atoms: C21_21  and  O1_22
REMARK   13  A    between atoms: C22_24  and  O2_25
REMARK   14  A    between atoms: O2_25  and  C23_26
ROOT
HETATM    1  C16 UNL     1      65.593  -3.806  46.617  1.00  0.00     0.038 C
ENDROOT
BRANCH   1   2
HETATM    2  C15 UNL     1      65.047  -2.967  47.700  1.00  0.00     0.031 C
BRANCH   2   3
HETATM    3  C14 UNL     1      63.631  -2.742  47.727  1.00  0.00    -0.024 C
HETATM    4  C12 UNL     1      62.897  -1.690  47.533  1.00  0.00    -0.087 C
HETATM    5  C13 UNL     1      63.276  -0.330  47.144  1.00  0.00     0.043 C
BRANCH   4   6
HETATM    6  C11 UNL     1      61.402  -1.924  47.666  1.00  0.00     0.037 C
BRANCH   6   7
HETATM    7  C10 UNL     1      61.086  -3.005  48.601  1.00  0.00     0.031 C
BRANCH   7   8
HETATM    8  C9  UNL     1      59.719  -3.508  48.682  1.00  0.00    -0.024 C
HETATM    9  C7  UNL     1      59.397  -4.731  48.350  1.00  0.00    -0.087 C
HETATM   10  C8  UNL     1      57.938  -5.123  48.483  1.00  0.00     0.043 C
BRANCH   9  11
HETATM   11  C6  UNL     1      60.354  -5.719  47.865  1.00  0.00     0.037 C
BRANCH  11  12
HETATM   12  C5  UNL     1      60.157  -6.063  46.398  1.00  0.00     0.031 C
BRANCH  12  13
HETATM   13  C4  UNL     1      60.736  -4.948  45.612  1.00  0.00    -0.024 C
HETATM   14  C2  UNL     1      61.989  -4.963  45.197  1.00  0.00    -0.091 C
HETATM   15  C1  UNL     1      62.520  -3.803  44.402  1.00  0.00     0.042 C
HETATM   16  C3  UNL     1      62.930  -6.075  45.468  1.00  0.00     0.042 C
ENDBRANCH  12  13
ENDBRANCH  11  12
ENDBRANCH   9  11
ENDBRANCH   7   8
ENDBRANCH   6   7
ENDBRANCH   4   6
ENDBRANCH   2   3
ENDBRANCH   1   2
BRANCH   1  17
HETATM   17  C17 UNL     1      66.567  -2.995  45.756  1.00  0.00    -0.076 C
HETATM   18  C18 UNL     1      67.807  -3.394  45.639  1.00  0.00    -0.022 C
HETATM   19  C19 UNL     1      68.841  -2.687  44.830  1.00  0.00     0.049 C
HETATM   20  C20 UNL     1      68.422  -1.279  44.491  1.00  0.00     0.067 C
HETATM   21  C24 UNL     1      66.993  -1.322  44.106  1.00  0.00     0.143 C
HETATM   22  O5  UNL     1      66.649  -0.983  43.004  1.00  0.00    -0.297 OA
HETATM   23  C25 UNL     1      66.006  -1.787  45.103  1.00  0.00     0.113 C
BRANCH  20  24
HETATM   24  C21 UNL     1      68.538  -0.353  45.664  1.00  0.00     0.183 C
BRANCH  24  25
HETATM   25  O1  UNL     1      68.363   0.971  45.379  1.00  0.00    -0.400 OA
ATOM     26  H1  UNL     1      68.417   1.556  46.125  1.00  0.00     0.209 HD
ENDBRANCH  24  25
ENDBRANCH  20  24
BRANCH  20  27
HETATM   27  C22 UNL     1      69.219  -0.792  43.298  1.00  0.00     0.202 C
BRANCH  27  28
HETATM   28  O2  UNL     1      70.480  -0.306  43.648  1.00  0.00    -0.295 OA
BRANCH  28  29
HETATM   29  C23 UNL     1      70.880   0.915  43.128  1.00  0.00     0.332 C
HETATM   30  O3  UNL     1      70.050   1.862  42.941  1.00  0.00    -0.624 OA
HETATM   31  O4  UNL     1      72.227   1.085  42.810  1.00  0.00    -0.624 OA
ENDBRANCH  28  29
ENDBRANCH  27  28
ENDBRANCH  20  27
ENDBRANCH   1  17
TORSDOF 14
ENDMDL