MODEL 3
REMARK VINA RESULT: -5.707860050      2.334      5.045
REMARK  13 active torsions:
REMARK  status: ('A' for Active; 'I' for Inactive)
REMARK    1  A    between atoms: C4_4  and  C5_5
REMARK    2  A    between atoms: C5_5  and  C6_6
REMARK    3  A    between atoms: C6_6  and  C7_7
REMARK    4  A    between atoms: C9_9  and  C10_10
REMARK    5  A    between atoms: C10_10  and  C11_11
REMARK    6  A    between atoms: C11_11  and  C12_12
REMARK    7  A    between atoms: C11_11  and  C13_15
REMARK    8  A    between atoms: C11_11  and  C14_18
REMARK    9  A    between atoms: C12_12  and  O1_13
REMARK   10  A    between atoms: C15_20  and  C17_22
REMARK   11  A    between atoms: C17_22  and  C18_23
REMARK   12  A    between atoms: C18_23  and  C19_24
REMARK   13  A    between atoms: C20_25  and  C22_27
ROOT
HETATM    1  C22 UNL     1      66.003  -3.596  46.657  1.00  0.00     0.024 C
HETATM    2  C23 UNL     1      66.585  -2.810  45.807  1.00  0.00     0.019 C
HETATM    3  C24 UNL     1      67.925  -3.371  45.263  1.00  0.00     0.060 C
HETATM    4  C25 UNL     1      66.190  -1.542  45.312  1.00  0.00     0.094 C
HETATM    5  N1  UNL     1      65.905  -0.500  44.882  1.00  0.00    -0.192 NA
ENDROOT
BRANCH   1   6
HETATM    6  C20 UNL     1      64.756  -3.348  47.327  1.00  0.00    -0.065 C
HETATM    7  C19 UNL     1      63.618  -3.769  46.853  1.00  0.00    -0.020 C
HETATM    8  C21 UNL     1      64.731  -2.518  48.611  1.00  0.00     0.048 C
BRANCH   7   9
HETATM    9  C18 UNL     1      63.391  -4.563  45.672  1.00  0.00     0.030 C
BRANCH   9  10
HETATM   10  C17 UNL     1      62.910  -3.803  44.458  1.00  0.00     0.044 C
BRANCH  10  11
HETATM   11  C15 UNL     1      61.489  -3.503  44.324  1.00  0.00     0.085 A
HETATM   12  C14 UNL     1      60.370  -4.349  44.430  1.00  0.00     0.178 A
HETATM   13  O4  UNL     1      60.946  -4.050  43.064  1.00  0.00    -0.368 OA
HETATM   14  C16 UNL     1      61.176  -2.015  44.527  1.00  0.00     0.049 C
BRANCH  12  15
HETATM   15  C11 UNL     1      60.150  -5.799  44.511  1.00  0.00     0.101 C
BRANCH  15  16
HETATM   16  C10 UNL     1      60.344  -6.352  45.917  1.00  0.00     0.053 C
BRANCH  16  17
HETATM   17  C9  UNL     1      59.219  -6.251  46.812  1.00  0.00    -0.023 C
HETATM   18  C7  UNL     1      59.209  -5.589  47.920  1.00  0.00    -0.087 C
HETATM   19  C8  UNL     1      57.919  -5.603  48.729  1.00  0.00     0.043 C
BRANCH  18  20
HETATM   20  C6  UNL     1      60.302  -4.811  48.504  1.00  0.00     0.037 C
BRANCH  20  21
HETATM   21  C5  UNL     1      59.880  -3.363  48.699  1.00  0.00     0.031 C
BRANCH  21  22
HETATM   22  C4  UNL     1      60.810  -2.436  48.025  1.00  0.00    -0.024 C
HETATM   23  C2  UNL     1      60.858  -1.174  48.383  1.00  0.00    -0.091 C
HETATM   24  C1  UNL     1      59.983  -0.667  49.462  1.00  0.00     0.042 C
HETATM   25  C3  UNL     1      61.791  -0.245  47.708  1.00  0.00     0.042 C
ENDBRANCH  21  22
ENDBRANCH  20  21
ENDBRANCH  18  20
ENDBRANCH  16  17
ENDBRANCH  15  16
BRANCH  15  26
HETATM   26  C12 UNL     1      58.615  -5.991  44.278  1.00  0.00     0.187 C
BRANCH  26  27
HETATM   27  O1  UNL     1      58.282  -5.056  43.308  1.00  0.00    -0.399 OA
ATOM     28  H1  UNL     1      58.361  -4.215  43.743  1.00  0.00     0.209 HD
ENDBRANCH  26  27
ENDBRANCH  15  26
BRANCH  15  29
HETATM   29  C13 UNL     1      60.777  -6.704  43.585  1.00  0.00     0.187 C
HETATM   30  O2  UNL     1      61.978  -7.149  43.736  1.00  0.00    -0.647 OA
HETATM   31  O3  UNL     1      60.141  -7.165  42.469  1.00  0.00    -0.647 OA
ENDBRANCH  15  29
ENDBRANCH  12  15
ENDBRANCH  10  11
ENDBRANCH   9  10
ENDBRANCH   7   9
ENDBRANCH   1   6
TORSDOF 13
ENDMDL