MODEL 4
REMARK VINA RESULT: -4.745212210      1.110      2.003
REMARK  15 active torsions:
REMARK  status: ('A' for Active; 'I' for Inactive)
REMARK    1  A    between atoms: C2_2  and  C25_30
REMARK    2  A    between atoms: C3_3  and  C4_4
REMARK    3  A    between atoms: C4_4  and  C5_5
REMARK    4  A    between atoms: C5_5  and  C6_6
REMARK    5  A    between atoms: C6_6  and  C8_8
REMARK    6  A    between atoms: C8_8  and  C9_9
REMARK    7  A    between atoms: C9_9  and  C10_10
REMARK    8  A    between atoms: C10_10  and  C11_11
REMARK    9  A    between atoms: C11_11  and  C13_13
REMARK   10  A    between atoms: C13_13  and  C14_14
REMARK   11  A    between atoms: C14_14  and  C15_15
REMARK   12  A    between atoms: C15_15  and  C16_16
REMARK   13  A    between atoms: C19_19  and  C21_21
REMARK   14  A    between atoms: C21_21  and  O1_22
REMARK   15  A    between atoms: C24_27  and  O3_28
ROOT
HETATM    1  C25 UNL     1      67.006  -3.691  45.594  1.00  0.00     0.157 C
HETATM    2  C26 UNL     1      68.262  -3.048  45.241  1.00  0.00     0.063 C
HETATM    3  N1  UNL     1      69.269  -2.548  44.948  1.00  0.00    -0.197 NA
ENDROOT
BRANCH   1   4
HETATM    4  C2  UNL     1      66.126  -2.799  46.396  1.00  0.00    -0.075 C
HETATM    5  C1  UNL     1      66.198  -1.344  46.172  1.00  0.00     0.044 C
HETATM    6  C3  UNL     1      65.309  -3.343  47.282  1.00  0.00    -0.023 C
BRANCH   6   7
HETATM    7  C4  UNL     1      64.377  -2.570  48.146  1.00  0.00     0.028 C
BRANCH   7   8
HETATM    8  C5  UNL     1      62.955  -2.683  47.732  1.00  0.00     0.008 C
BRANCH   8   9
HETATM    9  C6  UNL     1      62.100  -1.484  47.908  1.00  0.00    -0.018 C
HETATM   10  C7  UNL     1      60.660  -1.732  47.628  1.00  0.00     0.010 C
BRANCH   9  11
HETATM   11  C8  UNL     1      62.689  -0.384  47.003  1.00  0.00     0.004 C
BRANCH  11  12
HETATM   12  C9  UNL     1      62.091  -0.412  45.657  1.00  0.00     0.005 C
BRANCH  12  13
HETATM   13  C10 UNL     1      63.072  -0.160  44.557  1.00  0.00     0.034 C
BRANCH  13  14
HETATM   14  C11 UNL     1      63.504  -1.286  43.729  1.00  0.00    -0.084 C
HETATM   15  C12 UNL     1      64.337  -1.006  42.512  1.00  0.00     0.043 C
BRANCH  14  16
HETATM   16  C13 UNL     1      63.228  -2.557  44.059  1.00  0.00     0.002 C
BRANCH  16  17
HETATM   17  C14 UNL     1      62.207  -3.429  43.540  1.00  0.00    -0.003 C
BRANCH  17  18
HETATM   18  C15 UNL     1      62.229  -4.869  43.737  1.00  0.00    -0.015 C
BRANCH  18  19
HETATM   19  C16 UNL     1      61.657  -5.603  44.851  1.00  0.00     0.001 C
HETATM   20  C17 UNL     1      62.843  -5.689  45.864  1.00  0.00     0.022 C
HETATM   21  C18 UNL     1      60.644  -4.818  45.633  1.00  0.00     0.035 C
HETATM   22  C19 UNL     1      59.862  -5.635  46.629  1.00  0.00     0.039 C
HETATM   23  C20 UNL     1      60.581  -5.907  47.912  1.00  0.00     0.025 C
HETATM   24  C22 UNL     1      59.313  -6.873  46.009  1.00  0.00     0.139 C
HETATM   25  O2  UNL     1      58.585  -7.616  46.612  1.00  0.00    -0.297 OA
HETATM   26  C23 UNL     1      59.723  -7.127  44.601  1.00  0.00     0.112 C
HETATM   27  C24 UNL     1      61.258  -7.026  44.618  1.00  0.00     0.137 C
BRANCH  22  28
HETATM   28  C21 UNL     1      58.617  -4.805  47.001  1.00  0.00     0.181 C
BRANCH  28  29
HETATM   29  O1  UNL     1      57.682  -4.856  45.949  1.00  0.00    -0.400 OA
ATOM     30  H1  UNL     1      56.888  -5.286  46.247  1.00  0.00     0.209 HD
ENDBRANCH  28  29
ENDBRANCH  22  28
BRANCH  27  31
HETATM   31  O3  UNL     1      61.718  -7.581  43.460  1.00  0.00    -0.394 OA
ATOM     32  H3  UNL     1      62.469  -7.148  43.071  1.00  0.00     0.210 HD
ENDBRANCH  27  31
ENDBRANCH  18  19
ENDBRANCH  17  18
ENDBRANCH  16  17
ENDBRANCH  14  16
ENDBRANCH  13  14
ENDBRANCH  12  13
ENDBRANCH  11  12
ENDBRANCH   9  11
ENDBRANCH   8   9
ENDBRANCH   7   8
ENDBRANCH   6   7
ENDBRANCH   1   4
TORSDOF 15
ENDMDL