MODEL 3
REMARK VINA RESULT: -6.278755593      2.659      3.665
REMARK  7 active torsions:
REMARK  status: ('A' for Active; 'I' for Inactive)
REMARK    1  A    between atoms: C8_10  and  C9_11
REMARK    2  A    between atoms: C9_11  and  C10_13
REMARK    3  A    between atoms: C11_14  and  C12_15
REMARK    4  A    between atoms: C14_21  and  C15_22
REMARK    5  A    between atoms: C15_22  and  C16_23
REMARK    6  A    between atoms: C16_23  and  C17_24
REMARK       I    between atoms: N1_27  and  C18_28
REMARK    7  A    between atoms: C18_28  and  C19_30
ROOT
HETATM    1  C1  UNL     1     -15.486  11.960   1.750  1.00  0.00     0.018 C
HETATM    2  C2  UNL     1     -15.891  11.523   0.566  1.00  0.00    -0.047 C
HETATM    3  C3  UNL     1     -16.968  12.330  -0.076  1.00  0.00     0.213 C
HETATM    4  O1  UNL     1     -16.691  13.714  -0.077  1.00  0.00    -0.317 OA
HETATM    5  C4  UNL     1     -16.398  14.470  -1.167  1.00  0.00     0.262 C
HETATM    6  O2  UNL     1     -16.613  15.700  -1.186  1.00  0.00    -0.265 OA
HETATM    7  C5  UNL     1     -15.812  13.858  -2.379  1.00  0.00     0.138 C
HETATM    8  C6  UNL     1     -16.724  14.045  -3.528  1.00  0.00    -0.020 C
HETATM    9  C7  UNL     1     -16.874  13.150  -4.489  1.00  0.00    -0.008 C
HETATM   10  C8  UNL     1     -16.158  11.849  -4.550  1.00  0.00     0.181 C
HETATM   11  C13 UNL     1     -17.062  10.709  -4.275  1.00  0.00     0.276 C
HETATM   12  O6  UNL     1     -17.939  10.489  -5.153  1.00  0.00    -0.264 OA
HETATM   13  O7  UNL     1     -16.905   9.995  -3.146  1.00  0.00    -0.294 OA
HETATM   14  C14 UNL     1     -15.825   9.672  -2.357  1.00  0.00     0.236 C
HETATM   15  N1  UNL     1     -16.103   9.594  -0.942  1.00  0.00    -0.320 N
HETATM   16  C18 UNL     1     -17.165   8.811  -0.427  1.00  0.00     0.232 C
HETATM   17  O10 UNL     1     -17.924   8.142  -1.211  1.00  0.00    -0.272 OA
HETATM   18  C20 UNL     1     -15.285  10.325  -0.020  1.00  0.00     0.164 C
ENDROOT
BRANCH  10  19
HETATM   19  C9  UNL     1     -15.729  11.708  -6.009  1.00  0.00     0.166 C
HETATM   20  O3  UNL     1     -15.171  10.652  -6.370  1.00  0.00    -0.292 OA
BRANCH  19  21
HETATM   21  C10 UNL     1     -15.971  12.780  -6.926  1.00  0.00     0.058 C
HETATM   22  C11 UNL     1     -15.359  13.126  -8.006  1.00  0.00     0.088 C
BRANCH  22  23
HETATM   23  C12 UNL     1     -14.236  12.615  -8.714  1.00  0.00     0.198 C
HETATM   24  O4  UNL     1     -14.122  11.469  -9.143  1.00  0.00    -0.645 OA
HETATM   25  O5  UNL     1     -13.139  13.464  -8.963  1.00  0.00    -0.645 OA
ENDBRANCH  22  23
ENDBRANCH  19  21
ENDBRANCH  10  19
BRANCH  14  26
HETATM   26  C15 UNL     1     -15.267   8.343  -2.874  1.00  0.00     0.065 C
BRANCH  26  27
HETATM   27  C16 UNL     1     -13.891   8.077  -2.330  1.00  0.00     0.117 C
BRANCH  27  28
HETATM   28  C17 UNL     1     -14.010   7.024  -1.295  1.00  0.00     0.172 C
HETATM   29  O8  UNL     1     -14.940   6.183  -1.302  1.00  0.00    -0.648 OA
HETATM   30  O9  UNL     1     -13.080   6.941  -0.272  1.00  0.00    -0.648 OA
ENDBRANCH  27  28
ENDBRANCH  26  27
ENDBRANCH  14  26
BRANCH  16  31
HETATM   31  C19 UNL     1     -17.447   8.730   1.029  1.00  0.00     0.188 C
HETATM   32 BR1  UNL     1     -16.450   7.305   1.850  1.00  0.00    -0.087 Br
ENDBRANCH  16  31
TORSDOF 7
ENDMDL