MODEL 4
REMARK VINA RESULT: -7.549037568      1.059      1.201
REMARK  10 active torsions:
REMARK  status: ('A' for Active; 'I' for Inactive)
REMARK    1  A    between atoms: O1_2  and  C2_3
REMARK    2  A    between atoms: C5_6  and  C6_7
REMARK    3  A    between atoms: C6_7  and  C7_8
REMARK    4  A    between atoms: C7_8  and  S1_9
REMARK    5  A    between atoms: S1_9  and  N1_12
REMARK    6  A    between atoms: N1_12  and  C8_14
REMARK    7  A    between atoms: C10_22  and  N5_23
REMARK    8  A    between atoms: N5_23  and  S2_25
REMARK    9  A    between atoms: S2_25  and  C11_28
REMARK   10  A    between atoms: C17_35  and  O6_36
ROOT
HETATM    1  C8  UNL     1     -15.867  14.392  -1.658  1.00  0.00     0.175 A
HETATM    2  N2  UNL     1     -16.374  15.629  -1.543  1.00  0.00    -0.281 N
ATOM      3  H2  UNL     1     -16.578  16.176  -2.379  1.00  0.00     0.188 HD
HETATM    4  N3  UNL     1     -16.613  16.147  -0.326  1.00  0.00    -0.294 N
ATOM      5  H3  UNL     1     -17.000  17.090  -0.268  1.00  0.00     0.187 HD
HETATM    6  C9  UNL     1     -16.371  15.494   0.802  1.00  0.00     0.199 A
HETATM    7  N4  UNL     1     -15.858  14.240   0.681  1.00  0.00    -0.334 N
ATOM      8  H4  UNL     1     -15.663  13.715   1.534  1.00  0.00     0.168 HD
HETATM    9  C10 UNL     1     -15.592  13.656  -0.496  1.00  0.00     0.163 A
ENDROOT
BRANCH   1  10
HETATM   10  N1  UNL     1     -15.614  13.837  -2.766  1.00  0.00    -0.262 N
ATOM     11  H1  UNL     1     -14.644  13.902  -3.077  1.00  0.00     0.180 HD
BRANCH  10  12
HETATM   12  S1  UNL     1     -16.656  13.000  -3.811  1.00  0.00     0.254 S
HETATM   13  O2  UNL     1     -17.879  12.561  -3.028  1.00  0.00    -0.201 OA
HETATM   14  O3  UNL     1     -17.212  13.982  -4.843  1.00  0.00    -0.201 OA
BRANCH  12  15
HETATM   15  C7  UNL     1     -15.911  11.655  -4.623  1.00  0.00     0.132 C
BRANCH  15  16
HETATM   16  C6  UNL     1     -16.241  11.327  -5.852  1.00  0.00     0.027 C
BRANCH  16  17
HETATM   17  C5  UNL     1     -15.333  11.327  -6.985  1.00  0.00    -0.002 A
HETATM   18  C4  UNL     1     -14.885  12.480  -7.588  1.00  0.00     0.017 A
HETATM   19  C3  UNL     1     -14.013  12.434  -8.674  1.00  0.00     0.038 A
HETATM   20  C2  UNL     1     -13.566  11.237  -9.185  1.00  0.00     0.070 A
HETATM   21  C19 UNL     1     -14.022  10.087  -8.575  1.00  0.00     0.074 A
HETATM   22  C17 UNL     1     -14.883  10.111  -7.502  1.00  0.00     0.081 A
BRANCH  20  23
HETATM   23  O1  UNL     1     -12.690  11.178 -10.277  1.00  0.00    -0.356 OA
HETATM   24  C1  UNL     1     -12.022  12.370 -10.643  1.00  0.00     0.210 C
ENDBRANCH  20  23
BRANCH  22  25
HETATM   25  O6  UNL     1     -15.328   8.927  -6.902  1.00  0.00    -0.355 OA
HETATM   26  C18 UNL     1     -15.427   7.780  -7.702  1.00  0.00     0.210 C
ENDBRANCH  22  25
ENDBRANCH  16  17
ENDBRANCH  15  16
ENDBRANCH  12  15
ENDBRANCH  10  12
ENDBRANCH   1  10
BRANCH   9  27
HETATM   27  N5  UNL     1     -15.103  12.465  -0.578  1.00  0.00    -0.263 N
ATOM     28  H5  UNL     1     -14.128  12.364  -0.857  1.00  0.00     0.180 HD
BRANCH  27  29
HETATM   29  S2  UNL     1     -15.995  11.052  -0.248  1.00  0.00     0.264 S
HETATM   30  O4  UNL     1     -17.475  11.353  -0.084  1.00  0.00    -0.200 OA
HETATM   31  O5  UNL     1     -15.505  10.463   1.045  1.00  0.00    -0.200 OA
BRANCH  29  32
HETATM   32  C11 UNL     1     -15.782   9.838  -1.491  1.00  0.00     0.080 A
HETATM   33  C12 UNL     1     -14.502   9.529  -1.882  1.00  0.00     0.028 A
HETATM   34  C13 UNL     1     -14.215   8.587  -2.853  1.00  0.00     0.044 A
HETATM   35  C14 UNL     1     -15.278   7.939  -3.443  1.00  0.00     0.116 A
HETATM   36  F1  UNL     1     -15.060   6.997  -4.410  1.00  0.00    -0.206 F
HETATM   37  C15 UNL     1     -16.577   8.251  -3.048  1.00  0.00     0.044 A
HETATM   38  C16 UNL     1     -16.845   9.192  -2.079  1.00  0.00     0.028 A
ENDBRANCH  29  32
ENDBRANCH  27  29
ENDBRANCH   9  27
TORSDOF 10
ENDMDL