MODEL 3
REMARK VINA RESULT: -6.556970643      0.979      1.297
REMARK  11 active torsions:
REMARK  status: ('A' for Active; 'I' for Inactive)
REMARK    1  A    between atoms: C2_2  and  C3_3
REMARK    2  A    between atoms: C3_3  and  C4_4
REMARK    3  A    between atoms: C6_7  and  O1_8
REMARK    4  A    between atoms: C9_12  and  O2_13
REMARK    5  A    between atoms: N1_24  and  C18_25
REMARK    6  A    between atoms: C18_25  and  C19_26
REMARK    7  A    between atoms: C19_26  and  N2_27
REMARK    8  A    between atoms: N2_27  and  C21_29
REMARK    9  A    between atoms: C21_29  and  O5_30
REMARK   10  A    between atoms: C21_29  and  C22_32
REMARK   11  A    between atoms: C22_32  and  O6_33
ROOT
HETATM    1  C4  UNL     1     -15.211  10.182  -7.122  1.00  0.00    -0.004 A
HETATM    2  C5  UNL     1     -15.484  11.531  -7.080  1.00  0.00     0.053 A
HETATM    3 BR1  UNL     1     -15.294  12.576  -8.661  1.00  0.00    -0.047 Br
HETATM    4  C6  UNL     1     -15.893  12.121  -5.877  1.00  0.00     0.090 A
HETATM    5  C7  UNL     1     -16.021  11.335  -4.737  1.00  0.00    -0.014 A
HETATM    6  C8  UNL     1     -15.744   9.996  -4.808  1.00  0.00    -0.013 A
HETATM    7  C9  UNL     1     -15.337   9.384  -5.979  1.00  0.00     0.083 A
HETATM    8  C11 UNL     1     -15.892   9.162  -3.596  1.00  0.00     0.068 C
HETATM    9  C12 UNL     1     -15.385   9.962  -2.430  1.00  0.00     0.098 C
HETATM   10  C13 UNL     1     -16.182  11.238  -2.238  1.00  0.00     0.045 C
HETATM   11  C14 UNL     1     -16.444  11.969  -3.495  1.00  0.00     0.051 C
HETATM   12  C15 UNL     1     -15.381  12.110  -1.297  1.00  0.00     0.167 A
HETATM   13  O3  UNL     1     -13.984  11.797  -1.172  1.00  0.00    -0.365 OA
HETATM   14  C16 UNL     1     -14.860  11.477  -0.144  1.00  0.00     0.243 A
HETATM   15  C17 UNL     1     -15.356  10.079  -0.002  1.00  0.00     0.252 C
HETATM   16  O4  UNL     1     -15.650   9.694   1.157  1.00  0.00    -0.270 OA
HETATM   17  N1  UNL     1     -15.472   9.264  -1.164  1.00  0.00    -0.343 N
ENDROOT
BRANCH  17  18
HETATM   18  C18 UNL     1     -15.697   7.870  -1.030  1.00  0.00     0.146 C
BRANCH  18  19
HETATM   19  C19 UNL     1     -14.528   6.955  -0.961  1.00  0.00     0.144 C
BRANCH  19  20
HETATM   20  N2  UNL     1     -14.110   6.512   0.317  1.00  0.00    -0.366 N
HETATM   21  C20 UNL     1     -12.665   6.345   0.613  1.00  0.00     0.151 C
BRANCH  20  22
HETATM   22  C21 UNL     1     -14.957   6.208   1.377  1.00  0.00     0.137 C
BRANCH  22  23
HETATM   23  O5  UNL     1     -15.007   7.087   2.363  1.00  0.00    -0.348 OA
ATOM     24  H5  UNL     1     -15.873   7.367   2.638  1.00  0.00     0.219 HD
ENDBRANCH  22  23
BRANCH  22  25
HETATM   25  C22 UNL     1     -15.828   5.042   1.581  1.00  0.00     0.247 C
BRANCH  25  26
HETATM   26  O6  UNL     1     -15.785   4.034   0.671  1.00  0.00    -0.393 OA
ATOM     27  H6  UNL     1     -16.260   4.140  -0.145  1.00  0.00     0.210 HD
ENDBRANCH  25  26
ENDBRANCH  22  25
ENDBRANCH  20  22
ENDBRANCH  19  20
ENDBRANCH  18  19
ENDBRANCH  17  18
BRANCH   7  28
HETATM   28  O2  UNL     1     -15.069   8.026  -5.996  1.00  0.00    -0.355 OA
HETATM   29  C10 UNL     1     -16.142   7.139  -6.323  1.00  0.00     0.210 C
ENDBRANCH   7  28
BRANCH   4  30
HETATM   30  O1  UNL     1     -16.150  13.481  -5.914  1.00  0.00    -0.359 OA
ATOM     31  H1  UNL     1     -16.364  13.893  -5.085  1.00  0.00     0.217 HD
ENDBRANCH   4  30
BRANCH   1  32
HETATM   32  C3  UNL     1     -14.785   9.568  -8.391  1.00  0.00     0.042 C
BRANCH  32  33
HETATM   33  C2  UNL     1     -13.304   9.606  -8.614  1.00  0.00     0.000 C
HETATM   34  C1  UNL     1     -13.030   9.946 -10.075  1.00  0.00     0.005 C
ENDBRANCH  32  33
ENDBRANCH   1  32
TORSDOF 11
ENDMDL