MODEL 5
REMARK VINA RESULT: -5.796439383      3.617      6.401
REMARK  10 active torsions:
REMARK  status: ('A' for Active; 'I' for Inactive)
REMARK    1  A    between atoms: O1_2  and  C2_3
REMARK    2  A    between atoms: C8_11  and  C9_12
REMARK    3  A    between atoms: C8_11  and  O6_19
REMARK    4  A    between atoms: C10_13  and  C11_14
REMARK    5  A    between atoms: C11_14  and  C12_16
REMARK    6  A    between atoms: C12_16  and  O5_17
REMARK    7  A    between atoms: O6_19  and  C13_20
REMARK    8  A    between atoms: C13_20  and  C14_21
REMARK    9  A    between atoms: C15_22  and  C16_23
REMARK   10  A    between atoms: C17_26  and  C18_27
ROOT
HETATM    1  C2  UNL     1     -18.406  11.591  -2.907  1.00  0.00     0.205 C
HETATM    2  O2  UNL     1     -19.321  10.841  -3.728  1.00  0.00    -0.316 OA
HETATM    3  C3  UNL     1     -19.809   9.826  -2.949  1.00  0.00     0.161 C
HETATM    4  C4  UNL     1     -19.975   8.591  -3.777  1.00  0.00     0.078 C
HETATM    5  C5  UNL     1     -21.138  10.281  -2.359  1.00  0.00     0.078 C
HETATM    6  O3  UNL     1     -18.878   9.644  -1.899  1.00  0.00    -0.345 OA
HETATM    7  C6  UNL     1     -18.664  10.977  -1.567  1.00  0.00     0.192 C
HETATM    8  C7  UNL     1     -17.334  11.081  -0.870  1.00  0.00     0.090 C
HETATM    9  C8  UNL     1     -16.269  11.076  -1.978  1.00  0.00     0.139 C
HETATM   10  C17 UNL     1     -17.061  10.953  -3.207  1.00  0.00     0.131 C
ENDROOT
BRANCH   9  11
HETATM   11  C9  UNL     1     -15.480   9.802  -1.854  1.00  0.00    -0.059 C
HETATM   12  C10 UNL     1     -14.861   8.774  -1.765  1.00  0.00    -0.024 C
BRANCH  12  13
HETATM   13  C11 UNL     1     -14.130   7.541  -1.681  1.00  0.00     0.225 C
HETATM   14  O4  UNL     1     -13.916   6.803  -2.675  1.00  0.00    -0.281 OA
BRANCH  13  15
HETATM   15  C12 UNL     1     -13.618   7.144  -0.357  1.00  0.00     0.257 C
BRANCH  15  16
HETATM   16  O5  UNL     1     -14.511   7.539   0.614  1.00  0.00    -0.393 OA
ATOM     17  H5  UNL     1     -14.191   8.329   1.033  1.00  0.00     0.210 HD
ENDBRANCH  15  16
ENDBRANCH  13  15
ENDBRANCH  12  13
ENDBRANCH   9  11
BRANCH   9  18
HETATM   18  O6  UNL     1     -15.366  12.088  -1.865  1.00  0.00    -0.363 OA
BRANCH  18  19
HETATM   19  C13 UNL     1     -15.765  13.073  -1.007  1.00  0.00     0.197 C
BRANCH  19  20
HETATM   20  C14 UNL     1     -14.922  13.127   0.217  1.00  0.00     0.004 C
HETATM   21  C15 UNL     1     -15.277  13.869   1.251  1.00  0.00     0.069 C
BRANCH  21  22
HETATM   22  C16 UNL     1     -14.475  13.939   2.453  1.00  0.00     0.254 C
HETATM   23  N1  UNL     1     -13.728  12.815   2.867  1.00  0.00    -0.058 NA
HETATM   24  O7  UNL     1     -14.403  14.972   3.165  1.00  0.00    -0.272 OA
ENDBRANCH  21  22
ENDBRANCH  19  20
ENDBRANCH  18  19
ENDBRANCH   9  18
BRANCH  10  25
HETATM   25  C18 UNL     1     -16.485  11.223  -4.502  1.00  0.00    -0.045 A
HETATM   26  C19 UNL     1     -16.142  10.127  -5.320  1.00  0.00     0.009 A
HETATM   27  C20 UNL     1     -15.580  10.290  -6.559  1.00  0.00     0.019 A
HETATM   28  C21 UNL     1     -15.325  11.551  -7.059  1.00  0.00     0.011 A
HETATM   29 BR1  UNL     1     -14.543  11.786  -8.784  1.00  0.00    -0.051 Br
HETATM   30  C22 UNL     1     -15.641  12.656  -6.302  1.00  0.00     0.019 A
HETATM   31  C23 UNL     1     -16.214  12.453  -5.041  1.00  0.00     0.009 A
ENDBRANCH  10  25
BRANCH   1  32
HETATM   32  O1  UNL     1     -18.636  12.843  -3.104  1.00  0.00    -0.357 OA
HETATM   33  C1  UNL     1     -19.346  13.756  -2.512  1.00  0.00     0.205 C
ENDBRANCH   1  32
TORSDOF 10
ENDMDL