MODEL 2
REMARK VINA RESULT: -6.306410022      4.042      7.593
REMARK  10 active torsions:
REMARK  status: ('A' for Active; 'I' for Inactive)
REMARK    1  A    between atoms: C2_2  and  O2_4
REMARK    2  A    between atoms: O2_4  and  C3_5
REMARK    3  A    between atoms: C7_10  and  C8_11
REMARK       I    between atoms: C8_11  and  N1_13
REMARK    4  A    between atoms: N1_13  and  C9_15
REMARK    5  A    between atoms: C9_15  and  C10_16
REMARK    6  A    between atoms: C14_23  and  S2_24
REMARK    7  A    between atoms: S2_24  and  N3_27
REMARK    8  A    between atoms: N3_27  and  C15_29
REMARK    9  A    between atoms: C15_29  and  C16_30
REMARK   10  A    between atoms: C17_31  and  C18_32
ROOT
HETATM    1  C3  UNL     1     -15.742  11.367  -5.329  1.00  0.00     0.152 C
HETATM    2  C4  UNL     1     -16.190  11.481  -4.101  1.00  0.00    -0.009 C
HETATM    3  C5  UNL     1     -16.302  12.883  -3.557  1.00  0.00     0.115 C
HETATM    4  S1  UNL     1     -17.844  13.080  -2.626  1.00  0.00    -0.136 SA
HETATM    5  C6  UNL     1     -18.385  11.478  -1.919  1.00  0.00     0.192 C
HETATM    6  C7  UNL     1     -19.861  11.386  -1.814  1.00  0.00     0.258 C
HETATM    7  O4  UNL     1     -20.282  10.622  -2.899  1.00  0.00    -0.286 OA
HETATM    8  C13 UNL     1     -19.177   9.818  -3.269  1.00  0.00     0.366 C
HETATM    9  O5  UNL     1     -19.342   8.715  -3.846  1.00  0.00    -0.238 OA
HETATM   10  N2  UNL     1     -17.998  10.477  -2.881  1.00  0.00    -0.287 N
HETATM   11  C14 UNL     1     -16.596  10.377  -3.212  1.00  0.00     0.266 C
ENDROOT
BRANCH  11  12
HETATM   12  S2  UNL     1     -16.123   8.777  -3.716  1.00  0.00     0.253 S
HETATM   13  O6  UNL     1     -16.546   7.708  -2.716  1.00  0.00    -0.203 OA
HETATM   14  O7  UNL     1     -14.624   8.691  -3.787  1.00  0.00    -0.203 OA
BRANCH  12  15
HETATM   15  N3  UNL     1     -16.735   8.329  -5.254  1.00  0.00    -0.306 N
ATOM     16  H3  UNL     1     -17.730   8.328  -5.477  1.00  0.00     0.173 HD
BRANCH  15  17
HETATM   17  C15 UNL     1     -15.728   7.957  -6.197  1.00  0.00     0.225 C
BRANCH  17  18
HETATM   18  C16 UNL     1     -16.076   6.715  -6.836  1.00  0.00    -0.086 C
HETATM   19  C17 UNL     1     -16.351   5.669  -7.382  1.00  0.00    -0.097 C
BRANCH  19  20
HETATM   20  C18 UNL     1     -16.662   4.397  -8.059  1.00  0.00     0.101 A
HETATM   21  C19 UNL     1     -17.992   3.768  -7.806  1.00  0.00     0.058 A
HETATM   22  C20 UNL     1     -17.684   4.384  -9.138  1.00  0.00     0.187 A
HETATM   23  F1  UNL     1     -18.314   5.562  -9.509  1.00  0.00    -0.248 F
ENDBRANCH  19  20
ENDBRANCH  17  18
ENDBRANCH  15  17
ENDBRANCH  12  15
ENDBRANCH  11  12
BRANCH   1  24
HETATM   24  O2  UNL     1     -15.384  12.481  -6.101  1.00  0.00    -0.291 OA
BRANCH  24  25
HETATM   25  C2  UNL     1     -14.880  12.245  -7.363  1.00  0.00     0.259 C
HETATM   26  C1  UNL     1     -15.513  11.318  -8.332  1.00  0.00     0.126 C
HETATM   27  O1  UNL     1     -13.829  12.834  -7.737  1.00  0.00    -0.265 OA
ENDBRANCH  24  25
ENDBRANCH   1  24
BRANCH   6  28
HETATM   28  C8  UNL     1     -20.436  12.738  -1.777  1.00  0.00     0.250 C
HETATM   29  O3  UNL     1     -20.226  13.448  -0.762  1.00  0.00    -0.271 OA
HETATM   30  N1  UNL     1     -21.220  13.304  -2.815  1.00  0.00    -0.358 N
ATOM     31  H1  UNL     1     -21.401  12.740  -3.646  1.00  0.00     0.162 HD
BRANCH  30  32
HETATM   32  C9  UNL     1     -21.771  14.628  -2.757  1.00  0.00     0.126 C
BRANCH  32  33
HETATM   33  C10 UNL     1     -21.131  15.565  -3.752  1.00  0.00    -0.005 C
HETATM   34  C11 UNL     1     -22.150  16.390  -4.496  1.00  0.00     0.011 C
HETATM   35  C12 UNL     1     -20.118  16.470  -3.126  1.00  0.00     0.011 C
ENDBRANCH  32  33
ENDBRANCH  30  32
ENDBRANCH   6  28
TORSDOF 10
ENDMDL