MODEL 1
REMARK VINA RESULT: -6.585154748      0.000      0.000
REMARK  8 active torsions:
REMARK  status: ('A' for Active; 'I' for Inactive)
REMARK    1  A    between atoms: C2_2  and  N1_3
REMARK    2  A    between atoms: N1_3  and  C3_5
REMARK    3  A    between atoms: C6_11  and  N3_12
REMARK    4  A    between atoms: N3_12  and  C7_13
REMARK    5  A    between atoms: C12_18  and  O1_19
REMARK    6  A    between atoms: N4_25  and  S1_27
REMARK    7  A    between atoms: C18_31  and  C19_32
REMARK       I    between atoms: C19_32  and  N5_34
REMARK    8  A    between atoms: N5_34  and  C20_36
ROOT
HETATM    1  C7  UNL     1     -15.188   9.502  -6.775  1.00  0.00     0.143 A
HETATM    2  C8  UNL     1     -15.420   9.911  -5.437  1.00  0.00     0.058 A
HETATM    3  C9  UNL     1     -15.959   9.102  -4.482  1.00  0.00    -0.003 A
HETATM    4  C10 UNL     1     -16.287   7.823  -4.867  1.00  0.00     0.080 A
HETATM    5  C11 UNL     1     -16.076   7.391  -6.157  1.00  0.00     0.077 A
HETATM    6  C12 UNL     1     -15.536   8.184  -7.131  1.00  0.00     0.111 A
HETATM    7  O2  UNL     1     -16.839   6.973  -3.917  1.00  0.00    -0.340 OA
HETATM    8  C14 UNL     1     -17.668   7.540  -2.876  1.00  0.00     0.172 C
HETATM    9  C15 UNL     1     -19.048   7.814  -3.451  1.00  0.00     0.046 C
HETATM   10  C16 UNL     1     -17.024   8.717  -2.292  1.00  0.00     0.044 C
HETATM   11  N4  UNL     1     -17.142   9.014  -1.083  1.00  0.00    -0.289 N
ATOM     12  H4  UNL     1     -16.655   9.854  -0.772  1.00  0.00     0.178 HD
HETATM   13  C18 UNL     1     -16.156   9.642  -3.108  1.00  0.00     0.162 C
ENDROOT
BRANCH   1  14
HETATM   14  N3  UNL     1     -14.661  10.321  -7.674  1.00  0.00    -0.381 NA
BRANCH  14  15
HETATM   15  C6  UNL     1     -14.160  11.072  -8.446  1.00  0.00     0.234 A
HETATM   16  C5  UNL     1     -14.469  12.449  -8.396  1.00  0.00     0.190 A
HETATM   17  C4  UNL     1     -13.906  13.323  -9.270  1.00  0.00     0.153 A
HETATM   18  F1  UNL     1     -15.337  12.935  -7.475  1.00  0.00    -0.199 F
HETATM   19  N2  UNL     1     -13.043  12.873 -10.194  1.00  0.00    -0.199 N
HETATM   20  C3  UNL     1     -12.714  11.567 -10.284  1.00  0.00     0.680 A
ATOM     21  H2  UNL     1     -12.624  13.536 -10.847  1.00  0.00     0.183 HD
HETATM   22  N6  UNL     1     -13.275  10.725  -9.420  1.00  0.00    -0.161 N
ATOM     23  H6  UNL     1     -13.021   9.740  -9.494  1.00  0.00     0.187 HD
BRANCH  20  24
HETATM   24  N1  UNL     1     -11.882  11.214 -11.194  1.00  0.00    -0.226 N
ATOM     25  H1  UNL     1     -10.896  11.159 -10.941  1.00  0.00     0.177 HD
BRANCH  24  26
HETATM   26  C2  UNL     1     -12.244  10.890 -12.543  1.00  0.00     0.133 C
HETATM   27  C1  UNL     1     -12.188   9.403 -12.813  1.00  0.00     0.027 C
ENDBRANCH  24  26
ENDBRANCH  20  24
ENDBRANCH  14  15
ENDBRANCH   1  14
BRANCH   6  28
HETATM   28  O1  UNL     1     -15.338   7.714  -8.421  1.00  0.00    -0.352 OA
HETATM   29  C13 UNL     1     -16.047   6.624  -8.914  1.00  0.00     0.210 C
ENDBRANCH   6  28
BRANCH  13  30
HETATM   30  C19 UNL     1     -16.606  11.039  -3.076  1.00  0.00     0.232 C
HETATM   31  O5  UNL     1     -17.822  11.368  -3.316  1.00  0.00    -0.272 OA
HETATM   32  N5  UNL     1     -15.724  12.115  -2.780  1.00  0.00    -0.361 N
ATOM     33  H5  UNL     1     -14.746  11.906  -2.581  1.00  0.00     0.162 HD
BRANCH  32  34
HETATM   34  C20 UNL     1     -16.161  13.492  -2.749  1.00  0.00     0.118 C
HETATM   35  C21 UNL     1     -15.694  14.200  -1.502  1.00  0.00     0.026 C
ENDBRANCH  32  34
ENDBRANCH  13  30
BRANCH  11  36
HETATM   36  S1  UNL     1     -18.018   8.178   0.093  1.00  0.00     0.226 S
HETATM   37  C17 UNL     1     -19.763   8.449   0.024  1.00  0.00     0.186 C
HETATM   38  O3  UNL     1     -17.754   6.697   0.108  1.00  0.00    -0.206 OA
HETATM   39  O4  UNL     1     -17.528   8.675   1.455  1.00  0.00    -0.206 OA
ENDBRANCH  11  36
TORSDOF 8
ENDMDL