MODEL 3
REMARK VINA RESULT: -7.129347786      3.463      7.810
REMARK  7 active torsions:
REMARK  status: ('A' for Active; 'I' for Inactive)
REMARK    1  A    between atoms: O1_2  and  C2_3
REMARK    2  A    between atoms: C4_5  and  C5_6
REMARK    3  A    between atoms: C5_6  and  N1_7
REMARK    4  A    between atoms: N2_10  and  C7_11
REMARK    5  A    between atoms: C12_19  and  C13_20
REMARK    6  A    between atoms: C13_20  and  C14_21
REMARK    7  A    between atoms: C19_30  and  O6_31
ROOT
HETATM    1  N1  UNL     1     -16.866  12.378  -2.758  1.00  0.00    -0.311 N
HETATM    2  C6  UNL     1     -16.711  13.738  -2.418  1.00  0.00     0.327 C
HETATM    3  O2  UNL     1     -15.595  14.318  -2.346  1.00  0.00    -0.247 OA
HETATM    4  N2  UNL     1     -17.951  14.373  -2.169  1.00  0.00    -0.282 N
HETATM    5  C10 UNL     1     -18.918  13.363  -2.361  1.00  0.00     0.121 C
HETATM    6  N3  UNL     1     -20.187  13.255  -2.168  1.00  0.00    -0.314 N
ATOM      7  H3  UNL     1     -20.697  14.051  -1.784  1.00  0.00     0.170 HD
HETATM    8  C11 UNL     1     -20.904  12.061  -2.473  1.00  0.00     0.234 C
HETATM    9  O3  UNL     1     -22.036  12.156  -2.976  1.00  0.00    -0.272 OA
HETATM   10  C12 UNL     1     -20.256  10.766  -2.168  1.00  0.00     0.158 C
HETATM   11  C15 UNL     1     -18.793  11.006  -2.126  1.00  0.00     0.170 C
HETATM   12  O5  UNL     1     -18.084  10.312  -1.461  1.00  0.00    -0.294 OA
HETATM   13  C16 UNL     1     -18.269  12.127  -2.930  1.00  0.00     0.227 C
ENDROOT
BRANCH   1  14
HETATM   14  C5  UNL     1     -15.750  11.427  -2.913  1.00  0.00     0.167 C
BRANCH  14  15
HETATM   15  C4  UNL     1     -15.661  11.060  -4.364  1.00  0.00    -0.036 A
HETATM   16  C3  UNL     1     -15.661   9.722  -4.712  1.00  0.00     0.048 A
HETATM   17  C2  UNL     1     -15.576   9.322  -6.032  1.00  0.00     0.103 A
HETATM   18  C19 UNL     1     -15.490  10.313  -6.991  1.00  0.00     0.118 A
HETATM   19  C18 UNL     1     -15.486  11.658  -6.683  1.00  0.00     0.047 A
HETATM   20  C17 UNL     1     -15.572  12.034  -5.362  1.00  0.00     0.031 A
HETATM   21 BR1  UNL     1     -15.363  13.004  -8.051  1.00  0.00    -0.048 Br
BRANCH  17  22
HETATM   22  O1  UNL     1     -15.572   8.011  -6.451  1.00  0.00    -0.353 OA
HETATM   23  C1  UNL     1     -16.020   6.917  -5.697  1.00  0.00     0.210 C
ENDBRANCH  17  22
BRANCH  18  24
HETATM   24  O6  UNL     1     -15.401   9.976  -8.345  1.00  0.00    -0.352 OA
HETATM   25  C20 UNL     1     -14.107   9.674  -8.829  1.00  0.00     0.210 C
ENDBRANCH  18  24
ENDBRANCH  14  15
ENDBRANCH   1  14
BRANCH   4  26
HETATM   26  C7  UNL     1     -18.194  15.771  -1.791  1.00  0.00     0.088 C
HETATM   27  C8  UNL     1     -18.785  15.812  -0.419  1.00  0.00     0.032 C
HETATM   28  C9  UNL     1     -19.031  16.446  -2.834  1.00  0.00     0.032 C
ENDBRANCH   4  26
BRANCH  10  29
HETATM   29  C13 UNL     1     -20.643   9.786  -3.254  1.00  0.00     0.121 C
BRANCH  29  30
HETATM   30  C14 UNL     1     -21.427   8.664  -2.687  1.00  0.00     0.232 C
HETATM   31  N4  UNL     1     -22.061   7.735  -3.547  1.00  0.00    -0.062 NA
HETATM   32  O4  UNL     1     -21.499   8.583  -1.434  1.00  0.00    -0.277 OA
ENDBRANCH  29  30
ENDBRANCH  10  29
TORSDOF 7
ENDMDL