MODEL 1
REMARK VINA RESULT: -7.072400204      0.000      0.000
REMARK  9 active torsions:
REMARK  status: ('A' for Active; 'I' for Inactive)
REMARK    1  A    between atoms: O1_2  and  C2_3
REMARK    2  A    between atoms: C5_6  and  S1_7
REMARK    3  A    between atoms: S1_7  and  N1_10
REMARK    4  A    between atoms: N1_10  and  C6_12
REMARK    5  A    between atoms: N2_15  and  C9_16
REMARK    6  A    between atoms: C15_23  and  N3_24
REMARK    7  A    between atoms: N3_24  and  S2_26
REMARK    8  A    between atoms: S2_26  and  N4_27
REMARK    9  A    between atoms: C17_34  and  O6_35
ROOT
HETATM    1  C6  UNL     1     -16.424   5.614  -7.747  1.00  0.00     0.088 A
HETATM    2  C7  UNL     1     -16.151   6.257  -8.936  1.00  0.00     0.055 A
HETATM    3  C8  UNL     1     -15.672   7.527  -9.054  1.00  0.00     0.102 A
HETATM    4  N2  UNL     1     -15.370   8.401  -8.113  1.00  0.00    -0.302 N
HETATM    5  C15 UNL     1     -15.506   8.129  -6.803  1.00  0.00     0.168 A
HETATM    6  S3  UNL     1     -16.097   6.585  -6.383  1.00  0.00    -0.034 SA
ENDROOT
BRANCH   1   7
HETATM    7  N1  UNL     1     -16.918   4.299  -7.772  1.00  0.00    -0.274 N
ATOM      8  H1  UNL     1     -16.380   3.576  -7.294  1.00  0.00     0.179 HD
BRANCH   7   9
HETATM    9  S1  UNL     1     -18.373   3.833  -8.558  1.00  0.00     0.263 S
HETATM   10  O2  UNL     1     -19.466   3.533  -7.564  1.00  0.00    -0.200 OA
HETATM   11  O3  UNL     1     -18.824   4.905  -9.506  1.00  0.00    -0.200 OA
BRANCH   9  12
HETATM   12  C5  UNL     1     -18.002   2.405  -9.517  1.00  0.00     0.082 A
HETATM   13  C4  UNL     1     -18.701   2.207 -10.682  1.00  0.00     0.028 A
HETATM   14  C3  UNL     1     -18.445   1.087 -11.479  1.00  0.00     0.041 A
HETATM   15  C2  UNL     1     -17.487   0.186 -11.091  1.00  0.00     0.101 A
HETATM   16  C17 UNL     1     -16.779   0.371  -9.927  1.00  0.00     0.102 A
HETATM   17  C16 UNL     1     -17.054   1.496  -9.148  1.00  0.00     0.065 A
BRANCH  15  18
HETATM   18  O1  UNL     1     -17.239  -0.912 -11.879  1.00  0.00    -0.353 OA
HETATM   19  C1  UNL     1     -16.823  -0.839 -13.222  1.00  0.00     0.210 C
ENDBRANCH  15  18
BRANCH  16  20
HETATM   20  O6  UNL     1     -15.825  -0.539  -9.553  1.00  0.00    -0.353 OA
HETATM   21  C18 UNL     1     -14.448  -0.342  -9.596  1.00  0.00     0.210 C
ENDBRANCH  16  20
ENDBRANCH   9  12
ENDBRANCH   7   9
ENDBRANCH   1   7
BRANCH   5  22
HETATM   22  N3  UNL     1     -15.189   9.040  -5.908  1.00  0.00    -0.247 N
ATOM     23  H3  UNL     1     -14.232   9.392  -5.883  1.00  0.00     0.182 HD
BRANCH  22  24
HETATM   24  S2  UNL     1     -16.321   9.651  -4.790  1.00  0.00     0.318 S
HETATM   25  O4  UNL     1     -17.665   9.719  -5.431  1.00  0.00    -0.183 OA
HETATM   26  O5  UNL     1     -16.371   8.834  -3.524  1.00  0.00    -0.183 OA
BRANCH  24  27
HETATM   27  N4  UNL     1     -15.776  11.239  -4.312  1.00  0.00    -0.311 N
ATOM     28  H42 UNL     1     -14.817  11.581  -4.376  1.00  0.00     0.170 HD
ATOM     29  H41 UNL     1     -16.588  11.748  -3.964  1.00  0.00     0.170 HD
ENDBRANCH  24  27
ENDBRANCH  22  24
ENDBRANCH   5  22
BRANCH   4  30
HETATM   30  C9  UNL     1     -14.864   9.724  -8.440  1.00  0.00     0.041 A
HETATM   31  C10 UNL     1     -13.540   9.926  -8.771  1.00  0.00     0.033 A
HETATM   32  C11 UNL     1     -13.028  11.165  -9.085  1.00  0.00     0.044 A
HETATM   33  C12 UNL     1     -13.868  12.259  -9.070  1.00  0.00     0.116 A
HETATM   34  F1  UNL     1     -13.361  13.483  -9.380  1.00  0.00    -0.206 F
HETATM   35  C13 UNL     1     -15.206  12.089  -8.740  1.00  0.00     0.044 A
HETATM   36  C14 UNL     1     -15.682  10.832  -8.431  1.00  0.00     0.033 A
ENDBRANCH   4  30
TORSDOF 9
ENDMDL