MODEL 1
REMARK VINA RESULT: -6.709922327      0.000      0.000
REMARK  9 active torsions:
REMARK  status: ('A' for Active; 'I' for Inactive)
REMARK    1  A    between atoms: C2_2  and  S1_4
REMARK    2  A    between atoms: S1_4  and  N1_7
REMARK    3  A    between atoms: N1_7  and  C4_8
REMARK    4  A    between atoms: N1_7  and  C9_18
REMARK    5  A    between atoms: C4_8  and  C5_9
REMARK    6  A    between atoms: C5_9  and  O3_10
REMARK    7  A    between atoms: C12_21  and  N2_22
REMARK    8  A    between atoms: N2_22  and  S3_24
REMARK    9  A    between atoms: S3_24  and  C13_27
ROOT
HETATM    1  N1  UNL     1     -15.211   9.141  -4.200  1.00  0.00    -0.273 N
ENDROOT
BRANCH   1   2
HETATM    2  S1  UNL     1     -14.601   8.357  -2.808  1.00  0.00     0.236 S
HETATM    3  O1  UNL     1     -13.786   7.146  -3.268  1.00  0.00    -0.205 OA
HETATM    4  O2  UNL     1     -13.610   9.212  -2.061  1.00  0.00    -0.205 OA
BRANCH   2   5
HETATM    5  C2  UNL     1     -15.779   7.779  -1.662  1.00  0.00     0.121 C
HETATM    6  C1  UNL     1     -15.283   6.369  -1.239  1.00  0.00     0.027 C
HETATM    7  C3  UNL     1     -15.841   8.561  -0.390  1.00  0.00     0.027 C
ENDBRANCH   2   5
ENDBRANCH   1   2
BRANCH   1   8
HETATM    8  C4  UNL     1     -15.356  10.545  -4.295  1.00  0.00     0.180 C
BRANCH   8   9
HETATM    9  C5  UNL     1     -16.365  11.246  -3.444  1.00  0.00     0.088 C
HETATM   10  C6  UNL     1     -16.909  12.365  -4.312  1.00  0.00     0.055 C
HETATM   11  C7  UNL     1     -17.701  13.285  -3.475  1.00  0.00     0.143 C
HETATM   12  S2  UNL     1     -16.729  13.381  -1.991  1.00  0.00     0.147 S
HETATM   13  O4  UNL     1     -15.744  14.506  -2.107  1.00  0.00    -0.228 OA
HETATM   14  O5  UNL     1     -17.569  13.476  -0.770  1.00  0.00    -0.228 OA
HETATM   15  C8  UNL     1     -15.928  11.800  -2.162  1.00  0.00     0.179 C
BRANCH   9  16
HETATM   16  O3  UNL     1     -17.488  10.412  -3.220  1.00  0.00    -0.387 OA
ATOM     17  H3  UNL     1     -18.038  10.773  -2.535  1.00  0.00     0.210 HD
ENDBRANCH   9  16
ENDBRANCH   8   9
ENDBRANCH   1   8
BRANCH   1  18
HETATM   18  C9  UNL     1     -15.499   8.323  -5.315  1.00  0.00     0.048 A
HETATM   19  C10 UNL     1     -16.044   7.081  -5.096  1.00  0.00     0.032 A
HETATM   20  C11 UNL     1     -16.346   6.208  -6.143  1.00  0.00     0.035 A
HETATM   21  C12 UNL     1     -16.107   6.564  -7.433  1.00  0.00     0.081 A
HETATM   22  C17 UNL     1     -15.551   7.832  -7.665  1.00  0.00     0.145 A
HETATM   23  F1  UNL     1     -15.314   8.185  -8.943  1.00  0.00    -0.204 F
HETATM   24  C18 UNL     1     -15.260   8.682  -6.605  1.00  0.00     0.074 A
BRANCH  21  25
HETATM   25  N2  UNL     1     -16.364   5.743  -8.566  1.00  0.00    -0.281 N
ATOM     26  H2  UNL     1     -16.034   6.061  -9.477  1.00  0.00     0.178 HD
BRANCH  25  27
HETATM   27  S3  UNL     1     -17.188   4.267  -8.481  1.00  0.00     0.238 S
HETATM   28  O6  UNL     1     -16.271   3.087  -8.612  1.00  0.00    -0.205 OA
HETATM   29  O7  UNL     1     -17.949   4.157  -7.193  1.00  0.00    -0.205 OA
BRANCH  27  30
HETATM   30  C13 UNL     1     -18.406   4.119  -9.780  1.00  0.00     0.072 C
HETATM   31  C14 UNL     1     -18.288   2.732 -10.375  1.00  0.00     0.033 C
HETATM   32  C15 UNL     1     -18.150   5.115 -10.884  1.00  0.00     0.033 C
HETATM   33  C16 UNL     1     -19.802   4.281  -9.245  1.00  0.00     0.033 C
ENDBRANCH  27  30
ENDBRANCH  25  27
ENDBRANCH  21  25
ENDBRANCH   1  18
TORSDOF 9
ENDMDL