MODEL 2
REMARK VINA RESULT: -6.322749353      3.522      4.200
REMARK  7 active torsions:
REMARK  status: ('A' for Active; 'I' for Inactive)
REMARK    1  A    between atoms: C2_2  and  C3_3
REMARK    2  A    between atoms: C6_7  and  N1_8
REMARK       I    between atoms: N1_8  and  C7_10
REMARK    3  A    between atoms: C7_10  and  C8_12
REMARK    4  A    between atoms: C8_12  and  S2_13
REMARK    5  A    between atoms: S2_13  and  C9_16
REMARK    6  A    between atoms: C9_16  and  C10_17
REMARK    7  A    between atoms: C15_26  and  C16_27
ROOT
HETATM    1  N1  UNL     1     -15.100   9.758  -6.518  1.00  0.00    -0.344 N
ATOM      2  H1  UNL     1     -14.709  10.586  -6.071  1.00  0.00     0.163 HD
HETATM    3  C7  UNL     1     -14.651   9.397  -7.825  1.00  0.00     0.232 C
HETATM    4  O1  UNL     1     -15.135   8.360  -8.350  1.00  0.00    -0.273 OA
ENDROOT
BRANCH   1   5
HETATM    5  C6  UNL     1     -16.092   8.983  -5.812  1.00  0.00     0.210 C
HETATM    6  C5  UNL     1     -16.648   9.888  -4.704  1.00  0.00     0.182 C
HETATM    7  S1  UNL     1     -18.394  10.282  -4.919  1.00  0.00    -0.140 SA
HETATM    8  N2  UNL     1     -16.498   8.800  -3.793  1.00  0.00    -0.319 N
HETATM    9  C4  UNL     1     -19.266   9.072  -3.860  1.00  0.00     0.087 C
HETATM   10  C3  UNL     1     -18.564   9.233  -2.486  1.00  0.00     0.050 C
HETATM   11  C15 UNL     1     -17.186   8.697  -2.544  1.00  0.00     0.198 C
HETATM   12  C14 UNL     1     -15.537   8.220  -4.706  1.00  0.00     0.247 C
HETATM   13  O5  UNL     1     -14.600   7.369  -4.511  1.00  0.00    -0.271 OA
BRANCH  10  14
HETATM   14  C2  UNL     1     -19.412   8.629  -1.459  1.00  0.00    -0.029 C
HETATM   15  C1  UNL     1     -20.322   9.150  -0.688  1.00  0.00     0.007 C
ENDBRANCH  10  14
BRANCH  11  16
HETATM   16  C16 UNL     1     -16.326   9.385  -1.541  1.00  0.00     0.197 C
HETATM   17  O6  UNL     1     -16.601  10.560  -1.210  1.00  0.00    -0.646 OA
HETATM   18  O7  UNL     1     -15.258   8.751  -0.979  1.00  0.00    -0.646 OA
ENDBRANCH  11  16
ENDBRANCH   1   5
BRANCH   3  19
HETATM   19  C8  UNL     1     -13.655  10.184  -8.565  1.00  0.00     0.243 C
BRANCH  19  20
HETATM   20  S2  UNL     1     -14.061  11.914  -8.555  1.00  0.00     0.158 S
HETATM   21  O2  UNL     1     -15.332  12.036  -9.367  1.00  0.00    -0.227 OA
HETATM   22  O3  UNL     1     -14.269  12.470  -7.196  1.00  0.00    -0.227 OA
BRANCH  20  23
HETATM   23  C9  UNL     1     -12.759  12.853  -9.342  1.00  0.00     0.205 C
BRANCH  23  24
HETATM   24  C10 UNL     1     -12.332  12.161 -10.571  1.00  0.00     0.068 A
HETATM   25  C11 UNL     1     -11.522  12.605 -11.585  1.00  0.00     0.037 A
HETATM   26  C12 UNL     1     -11.443  11.588 -12.487  1.00  0.00     0.048 A
HETATM   27  C13 UNL     1     -12.212  10.536 -11.995  1.00  0.00     0.121 A
HETATM   28 BR1  UNL     1     -12.438   8.865 -12.877  1.00  0.00    -0.023 Br
HETATM   29  O4  UNL     1     -12.711  10.934 -10.862  1.00  0.00    -0.307 OA
ENDBRANCH  23  24
ENDBRANCH  20  23
ENDBRANCH  19  20
ENDBRANCH   3  19
TORSDOF 7
ENDMDL