MODEL 1
REMARK VINA RESULT: -4.907147269      0.000      0.000
REMARK  0 active torsions:
REMARK  status: ('A' for Active; 'I' for Inactive)
ROOT
HETATM    1  C1  UNL     1      14.727 -16.050   6.835  1.00  0.00     0.038 C
HETATM    2  C2  UNL     1      14.621 -14.665   6.187  1.00  0.00     0.143 C
HETATM    3  N1  UNL     1      15.312 -14.845   4.984  1.00  0.00    -0.324 N
HETATM    4  C3  UNL     1      15.668 -13.752   4.228  1.00  0.00     0.088 C
HETATM    5  C4  UNL     1      16.545 -14.033   3.065  1.00  0.00     0.121 C
HETATM    6  S1  UNL     1      15.674 -15.300   2.058  1.00  0.00    -0.148 SA
HETATM    7  C5  UNL     1      15.150 -16.531   3.314  1.00  0.00     0.187 C
HETATM    8  N2  UNL     1      15.500 -16.105   4.638  1.00  0.00    -0.221 NA
HETATM    9  C6  UNL     1      14.716 -16.910   5.562  1.00  0.00     0.116 C
ENDROOT
TORSDOF 0
ENDMDL