MODEL 3
REMARK VINA RESULT: -5.212237898      1.696      2.808
REMARK  1 active torsions:
REMARK  status: ('A' for Active; 'I' for Inactive)
REMARK    1  A    between atoms: O1_2  and  C2_3
ROOT
HETATM    1  C2  UNL     1      15.067 -15.943   4.804  1.00  0.00     0.123 C
HETATM    2  C3  UNL     1      16.305 -15.154   4.453  1.00  0.00     0.052 C
HETATM    3  C4  UNL     1      16.246 -14.468   3.148  1.00  0.00     0.019 C
HETATM    4  C5  UNL     1      15.518 -15.042   2.035  1.00  0.00     0.103 C
HETATM    5  N1  UNL     1      14.504 -16.026   2.286  1.00  0.00    -0.256 NA
HETATM    6  C6  UNL     1      13.457 -15.400   3.035  1.00  0.00     0.106 C
HETATM    7  C7  UNL     1      13.834 -15.176   4.435  1.00  0.00     0.066 C
HETATM    8  S1  UNL     1      15.052 -17.235   3.487  1.00  0.00    -0.043 SA
ENDROOT
BRANCH   1   9
HETATM    9  O1  UNL     1      15.061 -16.519   6.022  1.00  0.00    -0.373 OA
HETATM   10  C1  UNL     1      14.606 -15.786   7.080  1.00  0.00     0.204 C
ENDBRANCH   1   9
TORSDOF 1
ENDMDL