MODEL 4
REMARK VINA RESULT: -4.242269575      1.421      2.435
REMARK  0 active torsions:
REMARK  status: ('A' for Active; 'I' for Inactive)
ROOT
HETATM    1  C1  UNL     1      13.057 -15.997   2.565  1.00  0.00     0.030 C
HETATM    2  C2  UNL     1      13.323 -17.505   2.685  1.00  0.00     0.084 C
HETATM    3  S1  UNL     1      14.374 -17.686   4.177  1.00  0.00    -0.094 SA
HETATM    4  C3  UNL     1      14.750 -16.013   4.746  1.00  0.00     0.138 C
HETATM    5  N1  UNL     1      14.903 -15.463   5.898  1.00  0.00    -0.369 N
ATOM      6  H1  UNL     1      14.825 -15.955   6.788  1.00  0.00     0.161 HD
HETATM    7  C4  UNL     1      15.196 -14.071   5.764  1.00  0.00     0.141 C
HETATM    8  C5  UNL     1      15.647 -13.933   4.340  1.00  0.00     0.144 C
HETATM    9  N2  UNL     1      14.931 -15.039   3.719  1.00  0.00    -0.360 N
HETATM   10  C6  UNL     1      14.410 -15.338   2.403  1.00  0.00     0.125 C
ENDROOT
TORSDOF 0
ENDMDL