MODEL 5
REMARK VINA RESULT: -5.688804779      1.057      2.382
REMARK  0 active torsions:
REMARK  status: ('A' for Active; 'I' for Inactive)
ROOT
HETATM    1  N1  UNL     1      14.789 -15.804   7.278  1.00  0.00    -0.197 NA
HETATM    2  C1  UNL     1      14.661 -16.120   6.181  1.00  0.00     0.066 C
HETATM    3  C2  UNL     1      14.487 -16.531   4.839  1.00  0.00     0.132 C
HETATM    4  C3  UNL     1      13.639 -15.614   3.962  1.00  0.00     0.039 C
HETATM    5  C4  UNL     1      13.774 -16.524   2.716  1.00  0.00     0.279 C
HETATM    6  N2  UNL     1      15.244 -16.339   2.609  1.00  0.00     0.095 N
HETATM    7  C5  UNL     1      15.149 -14.915   2.222  1.00  0.00     0.278 C
HETATM    8  C6  UNL     1      14.393 -14.412   3.471  1.00  0.00     0.021 C
HETATM    9  C7  UNL     1      15.541 -14.004   4.387  1.00  0.00     0.009 C
HETATM   10  C8  UNL     1      16.460 -15.186   4.438  1.00  0.00     0.037 C
HETATM   11  C9  UNL     1      15.748 -16.462   3.979  1.00  0.00     0.241 C
ENDROOT
TORSDOF 0
ENDMDL