MODEL 3
REMARK VINA RESULT: -4.418528108      1.294      2.740
REMARK  0 active torsions:
REMARK  status: ('A' for Active; 'I' for Inactive)
ROOT
HETATM    1  C1  UNL     1      15.797 -13.941   4.511  1.00  0.00     0.118 C
HETATM    2  C2  UNL     1      15.561 -13.867   3.061  1.00  0.00     0.073 C
HETATM    3  N1  UNL     1      15.284 -15.055   2.367  1.00  0.00    -0.373 N
HETATM    4  C3  UNL     1      16.009 -16.214   2.682  1.00  0.00     0.064 C
HETATM    5  C4  UNL     1      15.145 -17.202   3.435  1.00  0.00     0.060 C
HETATM    6  C5  UNL     1      14.128 -16.420   4.260  1.00  0.00     0.054 C
HETATM    7  C6  UNL     1      13.189 -15.627   3.366  1.00  0.00     0.036 C
HETATM    8  C7  UNL     1      13.896 -15.229   2.081  1.00  0.00     0.128 C
HETATM    9  S1  UNL     1      15.074 -15.340   5.350  1.00  0.00    -0.159 SA
ENDROOT
TORSDOF 0
ENDMDL