MODEL 4
REMARK VINA RESULT: -3.972280845      2.382      4.228
REMARK  1 active torsions:
REMARK  status: ('A' for Active; 'I' for Inactive)
REMARK    1  A    between atoms: N1_4  and  C4_5
ROOT
HETATM    1  C4  UNL     1      15.212 -15.273   5.062  1.00  0.00     0.142 C
HETATM    2  N2  UNL     1      14.772 -14.402   5.870  1.00  0.00    -0.350 N
ATOM      3  H2  UNL     1      14.874 -13.412   5.648  1.00  0.00     0.167 HD
HETATM    4  C5  UNL     1      14.150 -14.779   7.060  1.00  0.00     0.073 C
HETATM    5  C6  UNL     1      14.605 -16.145   7.527  1.00  0.00     0.127 C
HETATM    6  S1  UNL     1      14.845 -16.858   5.839  1.00  0.00    -0.089 SA
ENDROOT
BRANCH   1   7
HETATM    7  N1  UNL     1      15.863 -15.103   3.822  1.00  0.00    -0.362 N
HETATM    8  C3  UNL     1      17.040 -14.317   3.540  1.00  0.00     0.125 C
HETATM    9  C2  UNL     1      16.551 -13.507   2.357  1.00  0.00     0.021 C
HETATM   10  C1  UNL     1      15.846 -14.576   1.545  1.00  0.00     0.021 C
HETATM   11  C7  UNL     1      15.494 -15.682   2.551  1.00  0.00     0.125 C
ENDBRANCH   1   7
TORSDOF 1
ENDMDL