MODEL 4
REMARK VINA RESULT: -4.846522971      1.640      2.800
REMARK  1 active torsions:
REMARK  status: ('A' for Active; 'I' for Inactive)
REMARK    1  A    between atoms: N2_7  and  O2_8
ROOT
HETATM    1  C1  UNL     1      14.745 -14.331   5.462  1.00  0.00     0.051 C
HETATM    2  C2  UNL     1      14.747 -15.610   4.657  1.00  0.00     0.112 C
HETATM    3  C3  UNL     1      14.839 -16.836   5.496  1.00  0.00     0.051 C
HETATM    4  O1  UNL     1      13.544 -15.573   3.868  1.00  0.00    -0.250 OA
HETATM    5  N1  UNL     1      13.862 -14.779   2.797  1.00  0.00    -0.184 N
ATOM      6  H1  UNL     1      13.172 -14.273   2.243  1.00  0.00     0.218 HD
HETATM    7  N2  UNL     1      15.100 -14.743   2.572  1.00  0.00    -0.169 N
HETATM    8  C4  UNL     1      15.760 -15.565   3.534  1.00  0.00     0.104 C
HETATM    9  C5  UNL     1      17.049 -14.999   4.052  1.00  0.00     0.046 C
HETATM   10  C6  UNL     1      15.906 -16.949   2.961  1.00  0.00     0.046 C
ENDROOT
BRANCH   7  11
HETATM   11  O2  UNL     1      15.672 -14.014   1.550  1.00  0.00    -0.270 OA
ATOM     12  H2  UNL     1      16.549 -14.168   1.219  1.00  0.00     0.246 HD
ENDBRANCH   7  11
TORSDOF 1
ENDMDL