MODEL 2
REMARK VINA RESULT: -3.604069554      2.435      3.087
REMARK  0 active torsions:
REMARK  status: ('A' for Active; 'I' for Inactive)
ROOT
HETATM    1  O1  UNL     1      14.385 -16.288   6.975  1.00  0.00    -0.246 OA
HETATM    2  S1  UNL     1      15.301 -16.139   5.588  1.00  0.00     0.079 S
HETATM    3  C1  UNL     1      15.080 -14.549   4.840  1.00  0.00     0.131 C
HETATM    4  C2  UNL     1      15.132 -14.745   3.337  1.00  0.00     0.088 C
HETATM    5  S2  UNL     1      13.552 -15.374   2.708  1.00  0.00    -0.157 SA
HETATM    6  C3  UNL     1      13.497 -17.157   3.104  1.00  0.00     0.162 C
HETATM    7  S3  UNL     1      14.801 -17.618   4.242  1.00  0.00    -0.056 SA
ENDROOT
TORSDOF 0
ENDMDL