MODEL 4
REMARK VINA RESULT: -5.875468594      0.965      1.448
REMARK  1 active torsions:
REMARK  status: ('A' for Active; 'I' for Inactive)
REMARK    1  A    between atoms: N1_2  and  C1_4
ROOT
HETATM    1  C1  UNL     1      14.529 -16.496   3.947  1.00  0.00     0.124 C
HETATM    2  C2  UNL     1      14.888 -15.650   5.145  1.00  0.00     0.041 C
HETATM    3  C3  UNL     1      15.736 -14.488   4.743  1.00  0.00     0.033 C
HETATM    4  C4  UNL     1      15.510 -13.985   3.367  1.00  0.00     0.272 C
HETATM    5  N2  UNL     1      15.246 -14.982   2.382  1.00  0.00     0.091 N
HETATM    6  C5  UNL     1      13.808 -15.146   2.121  1.00  0.00     0.275 C
HETATM    7  C6  UNL     1      13.294 -15.948   3.299  1.00  0.00     0.069 C
HETATM    8  C7  UNL     1      15.636 -16.292   2.927  1.00  0.00     0.309 C
ENDROOT
BRANCH   1   9
HETATM    9  N1  UNL     1      14.364 -17.893   4.280  1.00  0.00    -0.143 N
HETATM   10  O1  UNL     1      14.860 -18.416   5.309  1.00  0.00    -0.536 OA
HETATM   11  O2  UNL     1      13.625 -18.658   3.409  1.00  0.00    -0.536 OA
ENDBRANCH   1   9
TORSDOF 1
ENDMDL