MODEL 2
REMARK VINA RESULT: -5.427506911      1.388      3.318
REMARK  0 active torsions:
REMARK  status: ('A' for Active; 'I' for Inactive)
ROOT
HETATM    1  C1  UNL     1      15.298 -13.948   5.503  1.00  0.00     0.148 C
HETATM    2  N1  UNL     1      15.729 -14.959   4.610  1.00  0.00    -0.365 N
HETATM    3  C2  UNL     1      14.816 -16.046   4.519  1.00  0.00     0.111 C
HETATM    4  C3  UNL     1      13.481 -15.648   3.877  1.00  0.00     0.064 C
HETATM    5  C4  UNL     1      14.482 -16.540   5.922  1.00  0.00     0.064 C
HETATM    6  N2  UNL     1      15.334 -17.129   3.705  1.00  0.00    -0.294 N
ATOM      7  H2  UNL     1      15.255 -18.106   3.986  1.00  0.00     0.184 HD
HETATM    8  N3  UNL     1      15.892 -16.781   2.617  1.00  0.00    -0.247 N
ATOM      9  H3  UNL     1      16.287 -17.470   1.976  1.00  0.00     0.207 HD
HETATM   10  N4  UNL     1      15.939 -15.413   2.339  1.00  0.00    -0.294 N
ATOM     11  H4  UNL     1      15.699 -15.049   1.416  1.00  0.00     0.184 HD
HETATM   12  C5  UNL     1      16.343 -14.536   3.412  1.00  0.00     0.111 C
HETATM   13  C6  UNL     1      17.875 -14.612   3.471  1.00  0.00     0.064 C
HETATM   14  C7  UNL     1      16.053 -13.086   3.044  1.00  0.00     0.064 C
ENDROOT
TORSDOF 0
ENDMDL