MODEL 5
REMARK VINA RESULT: -5.675536520      1.527      3.237
REMARK  3 active torsions:
REMARK  status: ('A' for Active; 'I' for Inactive)
REMARK    1  A    between atoms: C3_3  and  O1_4
REMARK    2  A    between atoms: C8_11  and  O3_12
REMARK    3  A    between atoms: C8_11  and  C9_14
ROOT
HETATM    1  C1  UNL     1      11.693  28.810  31.045  1.00  0.00     0.022 C
HETATM    2  C2  UNL     1      13.013  28.885  30.936  1.00  0.00     0.000 C
HETATM    3  C3  UNL     1      13.672  30.150  31.362  1.00  0.00     0.154 C
HETATM    4  C4  UNL     1      14.621  30.567  30.257  1.00  0.00     0.074 C
HETATM    5  C5  UNL     1      15.525  29.409  29.933  1.00  0.00     0.060 C
HETATM    6  C6  UNL     1      16.589  29.339  31.004  1.00  0.00     0.045 C
HETATM    7  C7  UNL     1      16.281  29.815  28.654  1.00  0.00     0.045 C
HETATM    8  O2  UNL     1      14.920  28.233  29.648  1.00  0.00    -0.341 OA
HETATM    9  C8  UNL     1      13.873  27.816  30.424  1.00  0.00     0.189 C
ENDROOT
BRANCH   9  10
HETATM   10  O3  UNL     1      13.109  26.961  29.590  1.00  0.00    -0.362 OA
ATOM     11  H3  UNL     1      13.525  26.900  28.739  1.00  0.00     0.213 HD
ENDBRANCH   9  10
BRANCH   9  12
HETATM   12  C9  UNL     1      14.430  26.925  31.512  1.00  0.00     0.069 C
HETATM   13  C10 UNL     1      14.864  25.570  31.008  1.00  0.00     0.011 C
ENDBRANCH   9  12
BRANCH   3  14
HETATM   14  O1  UNL     1      12.758  31.188  31.527  1.00  0.00    -0.391 OA
ATOM     15  H1  UNL     1      13.178  32.040  31.518  1.00  0.00     0.210 HD
ENDBRANCH   3  14
TORSDOF 3
ENDMDL