MODEL 3
REMARK VINA RESULT: -6.017750492      1.093      1.533
REMARK  3 active torsions:
REMARK  status: ('A' for Active; 'I' for Inactive)
REMARK    1  A    between atoms: C2_2  and  C4_10
REMARK    2  A    between atoms: N1_3  and  N2_5
REMARK       I    between atoms: N2_5  and  C3_7
REMARK    3  A    between atoms: C4_10  and  C7_13
ROOT
HETATM    1  C1  UNL     1      11.957  28.534  31.079  1.00  0.00     0.066 C
HETATM    2  C2  UNL     1      13.358  28.701  31.498  1.00  0.00     0.008 C
HETATM    3  N1  UNL     1      13.625  29.390  32.533  1.00  0.00    -0.305 N
ATOM      4  H1  UNL     1      14.607  29.483  32.792  1.00  0.00     0.186 HD
ENDROOT
BRANCH   2   5
HETATM    5  C4  UNL     1      14.416  28.064  30.711  1.00  0.00    -0.001 C
HETATM    6  C5  UNL     1      13.792  27.437  29.484  1.00  0.00     0.022 C
HETATM    7  C6  UNL     1      15.003  26.885  31.504  1.00  0.00     0.022 C
BRANCH   5   8
HETATM    8  C7  UNL     1      15.553  28.984  30.363  1.00  0.00    -0.039 C
HETATM    9  C8  UNL     1      15.068  30.081  29.441  1.00  0.00     0.015 C
HETATM   10  C9  UNL     1      16.202  29.616  31.545  1.00  0.00     0.015 C
HETATM   11  C10 UNL     1      16.641  28.228  29.602  1.00  0.00     0.015 C
ENDBRANCH   5   8
ENDBRANCH   2   5
BRANCH   3  12
HETATM   12  N2  UNL     1      12.695  30.025  33.336  1.00  0.00    -0.254 N
HETATM   13  C3  UNL     1      12.298  31.373  33.186  1.00  0.00     0.347 C
HETATM   14  N3  UNL     1      11.341  31.967  34.039  1.00  0.00    -0.038 NA
HETATM   15  O1  UNL     1      12.786  32.107  32.276  1.00  0.00    -0.249 OA
ATOM     16  H2  UNL     1      12.267  29.483  34.087  1.00  0.00     0.191 HD
ENDBRANCH   3  12
TORSDOF 3
ENDMDL