MODEL 1
REMARK VINA RESULT: -6.298339275      0.000      0.000
REMARK  2 active torsions:
REMARK  status: ('A' for Active; 'I' for Inactive)
REMARK    1  A    between atoms: O1_2  and  C2_3
REMARK    2  A    between atoms: C2_3  and  C3_5
ROOT
HETATM    1  C3  UNL     1      13.593  29.590  32.139  1.00  0.00     0.131 C
HETATM    2  C4  UNL     1      14.959  30.061  31.763  1.00  0.00     0.020 C
HETATM    3  C5  UNL     1      15.459  29.255  30.579  1.00  0.00     0.002 C
HETATM    4  C6  UNL     1      15.253  27.776  30.844  1.00  0.00     0.015 C
HETATM    5  C7  UNL     1      13.777  27.422  30.846  1.00  0.00    -0.009 C
HETATM    6  C8  UNL     1      13.353  26.787  29.542  1.00  0.00     0.021 C
HETATM    7  C9  UNL     1      13.447  26.446  31.954  1.00  0.00     0.021 C
HETATM    8  C10 UNL     1      13.037  28.690  31.097  1.00  0.00     0.002 C
HETATM    9  N1  UNL     1      11.976  28.977  30.440  1.00  0.00    -0.404 N
ATOM     10  H11 UNL     1      11.593  28.359  29.724  1.00  0.00     0.155 HD
ATOM     11  H12 UNL     1      11.469  29.846  30.611  1.00  0.00     0.155 HD
ENDROOT
BRANCH   1  12
HETATM   12  C2  UNL     1      12.624  30.693  32.337  1.00  0.00     0.268 C
HETATM   13  O2  UNL     1      12.893  31.831  31.899  1.00  0.00    -0.264 OA
BRANCH  12  14
HETATM   14  O1  UNL     1      11.425  30.511  32.994  1.00  0.00    -0.326 OA
HETATM   15  C1  UNL     1      11.293  29.832  34.225  1.00  0.00     0.213 C
ENDBRANCH  12  14
ENDBRANCH   1  12
TORSDOF 2
ENDMDL