MODEL 4
REMARK VINA RESULT: -5.497491045      1.466      2.049
REMARK  3 active torsions:
REMARK  status: ('A' for Active; 'I' for Inactive)
REMARK    1  A    between atoms: C5_5  and  O1_6
REMARK    2  A    between atoms: C5_5  and  C6_8
REMARK    3  A    between atoms: C6_8  and  O2_11
ROOT
HETATM    1  C1  UNL     1      17.756  29.236  28.270  1.00  0.00     0.021 C
HETATM    2  C2  UNL     1      16.870  30.001  29.221  1.00  0.00     0.043 C
HETATM    3  C3  UNL     1      16.741  29.275  30.559  1.00  0.00     0.018 C
HETATM    4  C4  UNL     1      15.387  29.556  31.150  1.00  0.00     0.043 C
HETATM    5  C5  UNL     1      14.312  28.633  30.614  1.00  0.00     0.096 C
HETATM    6  C9  UNL     1      14.200  28.748  29.115  1.00  0.00     0.115 C
HETATM    7  S1  UNL     1      15.185  30.175  28.569  1.00  0.00    -0.162 SA
ENDROOT
BRANCH   5   8
HETATM    8  O1  UNL     1      14.561  27.299  30.911  1.00  0.00    -0.386 OA
ATOM      9  H1  UNL     1      14.269  27.062  31.784  1.00  0.00     0.210 HD
ENDBRANCH   5   8
BRANCH   5  10
HETATM   10  C6  UNL     1      13.059  29.038  31.331  1.00  0.00     0.082 C
HETATM   11  C7  UNL     1      13.281  30.419  31.911  1.00  0.00     0.049 C
HETATM   12  C8  UNL     1      12.684  28.124  32.457  1.00  0.00     0.049 C
BRANCH  10  13
HETATM   13  O2  UNL     1      12.032  29.110  30.375  1.00  0.00    -0.388 OA
ATOM     14  H2  UNL     1      11.216  29.236  30.845  1.00  0.00     0.210 HD
ENDBRANCH  10  13
ENDBRANCH   5  10
TORSDOF 3
ENDMDL