MODEL 1
REMARK VINA RESULT: -6.546984005      0.000      0.000
REMARK  2 active torsions:
REMARK  status: ('A' for Active; 'I' for Inactive)
REMARK    1  A    between atoms: N1_6  and  S1_7
REMARK    2  A    between atoms: S1_7  and  C6_8
ROOT
HETATM    1  C1  UNL     1      18.202  29.607  28.636  1.00  0.00     0.010 C
HETATM    2  C2  UNL     1      16.771  29.301  29.024  1.00  0.00    -0.017 C
HETATM    3  C3  UNL     1      15.906  30.398  28.457  1.00  0.00     0.005 C
HETATM    4  C4  UNL     1      14.524  29.832  28.254  1.00  0.00     0.016 C
HETATM    5  C5  UNL     1      14.059  29.114  29.519  1.00  0.00     0.103 C
HETATM    6  N1  UNL     1      14.272  29.894  30.702  1.00  0.00    -0.252 NA
HETATM    7  C7  UNL     1      15.614  29.995  31.137  1.00  0.00     0.103 C
HETATM    8  C8  UNL     1      16.578  29.059  30.474  1.00  0.00     0.019 C
ENDROOT
BRANCH   6   9
HETATM    9  S1  UNL     1      13.172  29.295  31.951  1.00  0.00    -0.009 SA
BRANCH   9  10
HETATM   10  C6  UNL     1      12.454  30.729  32.780  1.00  0.00     0.163 C
HETATM   11  N2  UNL     1      11.728  30.543  33.824  1.00  0.00    -0.381 N
ATOM     12  H22 UNL     1      11.568  29.595  34.166  1.00  0.00     0.157 HD
ATOM     13  H21 UNL     1      11.322  31.353  34.293  1.00  0.00     0.157 HD
HETATM   14  N3  UNL     1      12.676  32.045  32.305  1.00  0.00    -0.074 NA
ENDBRANCH   9  10
ENDBRANCH   6   9
TORSDOF 2
ENDMDL