MODEL 5
REMARK VINA RESULT: -6.157459180      1.581      3.706
REMARK  2 active torsions:
REMARK  status: ('A' for Active; 'I' for Inactive)
REMARK    1  A    between atoms: C2_2  and  C3_3
REMARK    2  A    between atoms: N2_6  and  O1_7
ROOT
HETATM    1  C3  UNL     1      16.057  30.354  28.444  1.00  0.00     0.055 C
HETATM    2  C4  UNL     1      15.026  30.348  27.336  1.00  0.00     0.140 C
HETATM    3  N1  UNL     1      13.782  30.332  28.093  1.00  0.00    -0.136 NA
HETATM    4  N2  UNL     1      14.024  29.446  29.137  1.00  0.00    -0.075 NA
HETATM    5  C5  UNL     1      15.390  29.702  29.580  1.00  0.00     0.160 C
HETATM    6  C6  UNL     1      15.977  28.442  30.086  1.00  0.00     0.059 C
HETATM    7  C7  UNL     1      16.825  28.788  31.318  1.00  0.00     0.006 C
HETATM    8  C8  UNL     1      15.818  29.128  32.398  1.00  0.00     0.026 C
HETATM    9  C9  UNL     1      14.801  30.054  31.785  1.00  0.00     0.170 C
HETATM   10  O2  UNL     1      15.274  30.650  30.620  1.00  0.00    -0.361 OA
ENDROOT
BRANCH   1  11
HETATM   11  C2  UNL     1      17.360  29.746  28.011  1.00  0.00     0.006 C
HETATM   12  C1  UNL     1      18.230  30.734  27.268  1.00  0.00     0.006 C
ENDBRANCH   1  11
BRANCH   4  13
HETATM   13  O1  UNL     1      13.794  28.173  28.842  1.00  0.00    -0.294 OA
ATOM     14  H1  UNL     1      13.162  28.038  28.146  1.00  0.00     0.238 HD
ENDBRANCH   4  13
TORSDOF 2
ENDMDL