MODEL 1
REMARK VINA RESULT: -6.173825590      0.000      0.000
REMARK  2 active torsions:
REMARK  status: ('A' for Active; 'I' for Inactive)
REMARK    1  A    between atoms: C3_3  and  C4_4
REMARK    2  A    between atoms: C10_14  and  N2_15
ROOT
HETATM    1  C4  UNL     1      15.757  28.943  29.521  1.00  0.00     0.046 C
HETATM    2  C5  UNL     1      15.185  30.177  30.163  1.00  0.00     0.074 C
HETATM    3  C6  UNL     1      13.954  29.905  30.932  1.00  0.00     0.041 C
HETATM    4  N1  UNL     1      13.113  30.844  31.106  1.00  0.00    -0.397 N
ATOM      5  H11 UNL     1      12.263  30.656  31.638  1.00  0.00     0.156 HD
ATOM      6  H12 UNL     1      13.338  31.752  30.698  1.00  0.00     0.156 HD
HETATM    7  S1  UNL     1      13.560  28.316  31.647  1.00  0.00    -0.106 SA
HETATM    8  C7  UNL     1      14.613  27.095  30.776  1.00  0.00     0.035 C
HETATM    9  C8  UNL     1      13.862  26.699  29.542  1.00  0.00     0.029 C
HETATM   10  C9  UNL     1      14.878  25.890  31.625  1.00  0.00     0.029 C
HETATM   11  C10 UNL     1      15.902  27.803  30.508  1.00  0.00     0.209 C
ENDROOT
BRANCH  11  12
HETATM   12  N2  UNL     1      16.379  28.321  31.777  1.00  0.00    -0.073 N
ATOM     13  H23 UNL     1      16.178  29.315  31.889  1.00  0.00     0.274 HD
ATOM     14  H22 UNL     1      15.834  27.973  32.566  1.00  0.00     0.274 HD
ATOM     15  H21 UNL     1      17.373  28.115  31.876  1.00  0.00     0.274 HD
ENDBRANCH  11  12
BRANCH   1  16
HETATM   16  C3  UNL     1      17.046  29.187  28.851  1.00  0.00    -0.024 C
HETATM   17  C2  UNL     1      17.281  30.166  27.992  1.00  0.00    -0.034 C
HETATM   18  C1  UNL     1      18.581  30.402  27.324  1.00  0.00     0.036 C
ENDBRANCH   1  16
TORSDOF 2
ENDMDL