MODEL 2
REMARK VINA RESULT: -6.808324662      1.004      1.199
REMARK  1 active torsions:
REMARK  status: ('A' for Active; 'I' for Inactive)
REMARK    1  A    between atoms: C2_2  and  C3_3
ROOT
HETATM    1  C3  UNL     1      14.343  26.622  31.467  1.00  0.00     0.130 C
HETATM    2  C4  UNL     1      15.372  26.950  30.435  1.00  0.00     0.044 C
HETATM    3  C5  UNL     1      15.771  28.404  30.439  1.00  0.00    -0.015 C
HETATM    4  C6  UNL     1      16.868  28.621  29.400  1.00  0.00     0.011 C
HETATM    5  C7  UNL     1      17.493  29.608  30.391  1.00  0.00     0.002 C
HETATM    6  C8  UNL     1      16.789  28.792  31.486  1.00  0.00     0.011 C
HETATM    7  C9  UNL     1      14.621  29.338  30.317  1.00  0.00     0.175 C
HETATM    8  C10 UNL     1      14.425  29.759  28.927  1.00  0.00     0.073 C
HETATM    9  N1  UNL     1      14.255  30.089  27.831  1.00  0.00    -0.196 NA
HETATM   10  C11 UNL     1      13.381  28.738  30.848  1.00  0.00     0.130 C
HETATM   11  N2  UNL     1      12.244  29.202  30.459  1.00  0.00    -0.382 N
ATOM     12  H21 UNL     1      11.387  28.788  30.826  1.00  0.00     0.158 HD
ATOM     13  H22 UNL     1      12.176  29.973  29.795  1.00  0.00     0.158 HD
HETATM   14  O1  UNL     1      13.472  27.699  31.743  1.00  0.00    -0.333 OA
ENDROOT
BRANCH   1  15
HETATM   15  C2  UNL     1      13.461  25.512  30.879  1.00  0.00     0.028 C
HETATM   16  C1  UNL     1      13.660  25.377  29.395  1.00  0.00     0.007 C
ENDBRANCH   1  15
TORSDOF 1
ENDMDL