MODEL 2
REMARK VINA RESULT: -5.963406349      2.258      5.452
REMARK  2 active torsions:
REMARK  status: ('A' for Active; 'I' for Inactive)
REMARK    1  A    between atoms: N1_2  and  N2_4
REMARK    2  A    between atoms: N3_6  and  C2_8
ROOT
HETATM    1  C2  UNL     1      15.515  28.838  30.928  1.00  0.00     0.194 C
HETATM    2  C3  UNL     1      15.658  27.378  30.493  1.00  0.00     0.048 C
HETATM    3  C4  UNL     1      15.023  26.444  31.496  1.00  0.00     0.004 C
HETATM    4  C5  UNL     1      13.532  26.316  31.287  1.00  0.00     0.000 C
HETATM    5  C6  UNL     1      12.751  27.024  32.383  1.00  0.00     0.000 C
HETATM    6  C7  UNL     1      11.727  27.927  31.828  1.00  0.00     0.000 C
HETATM    7  C8  UNL     1      11.732  29.331  32.241  1.00  0.00     0.002 C
HETATM    8  C9  UNL     1      13.037  30.008  32.427  1.00  0.00     0.019 C
HETATM    9  C10 UNL     1      13.694  30.406  31.101  1.00  0.00     0.115 C
HETATM   10  N4  UNL     1      14.286  29.327  30.419  1.00  0.00    -0.400 N
ATOM     11  H4  UNL     1      13.850  28.916  29.593  1.00  0.00     0.155 HD
ENDROOT
BRANCH   1  12
HETATM   12  N3  UNL     1      16.659  29.563  30.446  1.00  0.00    -0.299 N
HETATM   13  N2  UNL     1      17.232  29.306  29.342  1.00  0.00    -0.250 N
ATOM     14  H2  UNL     1      16.854  28.546  28.776  1.00  0.00     0.207 HD
ATOM     15  H3  UNL     1      17.030  30.322  31.019  1.00  0.00     0.184 HD
BRANCH  13  16
HETATM   16  N1  UNL     1      18.328  29.983  28.857  1.00  0.00    -0.327 N
HETATM   17  C1  UNL     1      18.488  30.340  27.460  1.00  0.00     0.169 C
ATOM     18  H1  UNL     1      19.064  30.248  29.513  1.00  0.00     0.181 HD
ENDBRANCH  13  16
ENDBRANCH   1  12
TORSDOF 2
ENDMDL