MODEL 1
REMARK VINA RESULT: -6.636080942      0.000      0.000
REMARK  4 active torsions:
REMARK  status: ('A' for Active; 'I' for Inactive)
REMARK    1  A    between atoms: C2_2  and  N1_5
REMARK    2  A    between atoms: N1_5  and  C5_7
REMARK    3  A    between atoms: C5_7  and  O1_11
REMARK    4  A    between atoms: O1_11  and  N3_12
ROOT
HETATM    1  C5  UNL     1      13.216  30.258  31.074  1.00  0.00     0.237 C
HETATM    2  N2  UNL     1      12.619  30.693  32.120  1.00  0.00    -0.364 N
ATOM      3  H21 UNL     1      13.059  31.433  32.667  1.00  0.00     0.159 HD
ATOM      4  H22 UNL     1      11.719  30.293  32.385  1.00  0.00     0.159 HD
ENDROOT
BRANCH   1   5
HETATM    5  N1  UNL     1      12.601  29.227  30.311  1.00  0.00    -0.347 N
ATOM      6  H1  UNL     1      12.002  29.492  29.529  1.00  0.00     0.163 HD
BRANCH   5   7
HETATM    7  C2  UNL     1      12.786  27.831  30.588  1.00  0.00     0.022 C
HETATM    8  C1  UNL     1      13.625  27.217  29.492  1.00  0.00     0.037 C
HETATM    9  C3  UNL     1      11.422  27.159  30.666  1.00  0.00     0.037 C
HETATM   10  C4  UNL     1      13.484  27.569  31.896  1.00  0.00     0.037 C
ENDBRANCH   5   7
ENDBRANCH   1   5
BRANCH   1  11
HETATM   11  O1  UNL     1      14.441  30.802  30.713  1.00  0.00    -0.202 OA
BRANCH  11  12
HETATM   12  N3  UNL     1      15.578  30.070  30.544  1.00  0.00    -0.266 N
HETATM   13  C6  UNL     1      16.144  29.870  29.410  1.00  0.00     0.010 C
HETATM   14  C7  UNL     1      15.793  30.321  28.050  1.00  0.00     0.054 C
HETATM   15  C10 UNL     1      17.390  29.063  29.256  1.00  0.00     0.054 C
HETATM   16  C8  UNL     1      17.147  30.617  27.442  1.00  0.00     0.006 C
HETATM   17  C9  UNL     1      17.983  29.456  27.928  1.00  0.00     0.006 C
ATOM     18  H3  UNL     1      16.005  29.654  31.371  1.00  0.00     0.194 HD
ENDBRANCH  11  12
ENDBRANCH   1  11
TORSDOF 4
ENDMDL