MODEL 1
REMARK VINA RESULT: -6.999532574      0.000      0.000
REMARK  5 active torsions:
REMARK  status: ('A' for Active; 'I' for Inactive)
REMARK    1  A    between atoms: C2_2  and  C3_3
REMARK    2  A    between atoms: C3_3  and  C4_4
REMARK    3  A    between atoms: C4_4  and  C5_5
REMARK    4  A    between atoms: C8_9  and  C9_10
REMARK    5  A    between atoms: C11_13  and  O1_14
ROOT
HETATM    1  C9  UNL     1      45.542  47.157 -15.150  1.00  0.00    -0.045 C
HETATM    2  C10 UNL     1      44.858  46.422 -14.459  1.00  0.00     0.010 C
HETATM    3 CL2  UNL     1      43.885  45.399 -13.456  1.00  0.00    -0.023 Cl
ENDROOT
BRANCH   1   4
HETATM    4  C8  UNL     1      46.353  48.037 -15.949  1.00  0.00     0.075 A
HETATM    5  C7  UNL     1      45.832  49.211 -16.391  1.00  0.00     0.056 A
HETATM    6  C6  UNL     1      46.615  50.053 -17.158  1.00  0.00     0.034 A
HETATM    7 CL1  UNL     1      44.174  49.683 -16.004  1.00  0.00    -0.083 Cl
HETATM    8  C5  UNL     1      47.911  49.711 -17.476  1.00  0.00    -0.032 A
HETATM    9  C12 UNL     1      48.422  48.513 -17.018  1.00  0.00     0.075 A
HETATM   10  C11 UNL     1      47.656  47.658 -16.249  1.00  0.00     0.108 A
HETATM   11 CL3  UNL     1      50.059  48.004 -17.376  1.00  0.00    -0.081 Cl
BRANCH   8  12
HETATM   12  C4  UNL     1      48.745  50.617 -18.299  1.00  0.00     0.040 C
BRANCH  12  13
HETATM   13  C3  UNL     1      48.528  50.320 -19.752  1.00  0.00     0.004 C
BRANCH  13  14
HETATM   14  C2  UNL     1      49.725  50.774 -20.574  1.00  0.00    -0.004 C
HETATM   15  C1  UNL     1      49.334  50.754 -22.022  1.00  0.00     0.005 C
ENDBRANCH  13  14
ENDBRANCH  12  13
ENDBRANCH   8  12
BRANCH  10  16
HETATM   16  O1  UNL     1      48.165  46.451 -15.786  1.00  0.00    -0.357 OA
ATOM     17  H1  UNL     1      49.027  46.157 -16.053  1.00  0.00     0.217 HD
ENDBRANCH  10  16
ENDBRANCH   1   4
TORSDOF 5
ENDMDL