MODEL 2
REMARK VINA RESULT: -6.621387829      0.120      1.312
REMARK  4 active torsions:
REMARK  status: ('A' for Active; 'I' for Inactive)
REMARK    1  A    between atoms: C2_2  and  N1_4
REMARK    2  A    between atoms: N1_4  and  C4_6
REMARK    3  A    between atoms: C4_6  and  C5_7
REMARK    4  A    between atoms: C8_11  and  C9_12
ROOT
HETATM    1  C5  UNL     1      47.654  48.152 -20.695  1.00  0.00    -0.023 A
HETATM    2  C6  UNL     1      47.614  48.863 -21.848  1.00  0.00     0.017 A
HETATM    3  C7  UNL     1      48.424  49.978 -21.927  1.00  0.00     0.051 A
HETATM    4  S1  UNL     1      49.229  50.049 -20.401  1.00  0.00    -0.101 SA
HETATM    5  C8  UNL     1      48.500  48.618 -19.703  1.00  0.00     0.044 A
ENDROOT
BRANCH   1   6
HETATM    6  C4  UNL     1      46.773  46.881 -20.601  1.00  0.00     0.154 C
BRANCH   6   7
HETATM    7  N1  UNL     1      47.213  46.220 -21.858  1.00  0.00    -0.414 N
ATOM      8  H1  UNL     1      48.197  46.289 -22.115  1.00  0.00     0.153 HD
BRANCH   7   9
HETATM    9  C2  UNL     1      46.384  45.527 -22.688  1.00  0.00     0.068 C
HETATM   10  C1  UNL     1      47.102  44.221 -23.094  1.00  0.00     0.031 C
HETATM   11  C3  UNL     1      44.956  45.208 -22.377  1.00  0.00     0.031 C
ENDBRANCH   7   9
ENDBRANCH   6   7
ENDBRANCH   1   6
BRANCH   5  12
HETATM   12  C9  UNL     1      48.827  48.048 -18.357  1.00  0.00     0.223 C
HETATM   13 CL1  UNL     1      47.434  47.910 -17.308  1.00  0.00    -0.078 Cl
HETATM   14 CL2  UNL     1      50.068  49.103 -17.610  1.00  0.00    -0.078 Cl
HETATM   15 CL3  UNL     1      49.568  46.511 -18.644  1.00  0.00    -0.078 Cl
ENDBRANCH   5  12
TORSDOF 4
ENDMDL