MODEL 2
REMARK VINA RESULT: -7.886793202      0.053      2.175
REMARK  3 active torsions:
REMARK  status: ('A' for Active; 'I' for Inactive)
REMARK    1  A    between atoms: C4_6  and  N1_7
REMARK    2  A    between atoms: N1_7  and  N2_9
REMARK    3  A    between atoms: N2_9  and  C5_10
ROOT
HETATM    1  F1  UNL     1      48.673  51.001 -16.878  1.00  0.00    -0.206 F
HETATM    2  C1  UNL     1      48.757  50.229 -17.981  1.00  0.00     0.119 A
HETATM    3  C2  UNL     1      48.580  50.837 -19.200  1.00  0.00     0.068 A
HETATM    4  C3  UNL     1      48.659  50.079 -20.331  1.00  0.00     0.066 A
HETATM    5 CL1  UNL     1      48.435  50.836 -21.908  1.00  0.00    -0.082 Cl
HETATM    6  C4  UNL     1      48.912  48.713 -20.321  1.00  0.00     0.088 A
HETATM    7  C11 UNL     1      49.087  48.121 -19.105  1.00  0.00     0.066 A
HETATM    8 CL2  UNL     1      49.407  46.421 -18.988  1.00  0.00    -0.082 Cl
HETATM    9  C12 UNL     1      49.013  48.865 -17.922  1.00  0.00     0.068 A
ENDROOT
BRANCH   6  10
HETATM   10  N1  UNL     1      48.981  47.994 -21.527  1.00  0.00    -0.300 N
ATOM     11  H1  UNL     1      49.897  47.732 -21.891  1.00  0.00     0.182 HD
BRANCH  10  12
HETATM   12  N2  UNL     1      47.857  47.628 -22.238  1.00  0.00    -0.136 NA
BRANCH  12  13
HETATM   13  C5  UNL     1      47.298  46.355 -21.754  1.00  0.00     0.099 C
HETATM   14  C6  UNL     1      47.288  45.383 -22.893  1.00  0.00     0.023 C
HETATM   15  C7  UNL     1      46.216  44.335 -22.792  1.00  0.00     0.002 C
HETATM   16  C8  UNL     1      44.869  44.884 -22.440  1.00  0.00     0.000 C
HETATM   17  C9  UNL     1      44.891  46.397 -22.265  1.00  0.00     0.002 C
HETATM   18  C10 UNL     1      45.939  46.661 -21.202  1.00  0.00     0.023 C
ENDBRANCH  12  13
ENDBRANCH  10  12
ENDBRANCH   6  10
TORSDOF 3
ENDMDL