MODEL 3
REMARK VINA RESULT: -7.715258209      6.907      8.436
REMARK  3 active torsions:
REMARK  status: ('A' for Active; 'I' for Inactive)
REMARK    1  A    between atoms: C8_9  and  C9_10
REMARK    2  A    between atoms: C9_10  and  C10_11
REMARK    3  A    between atoms: C10_11  and  C11_12
ROOT
HETATM    1  C1  UNL     1      45.996  47.249 -23.611  1.00  0.00     0.050 C
HETATM    2  C2  UNL     1      46.611  47.442 -22.266  1.00  0.00    -0.038 A
HETATM    3  C3  UNL     1      47.324  48.592 -22.043  1.00  0.00     0.038 A
HETATM    4  C4  UNL     1      47.922  48.820 -20.795  1.00  0.00     0.044 A
HETATM    5  C5  UNL     1      47.811  47.899 -19.751  1.00  0.00    -0.000 A
HETATM    6  C6  UNL     1      47.093  46.763 -20.017  1.00  0.00     0.036 A
HETATM    7  C7  UNL     1      46.487  46.513 -21.259  1.00  0.00     0.040 A
HETATM    8 CL1  UNL     1      45.585  45.062 -21.556  1.00  0.00    -0.084 Cl
HETATM    9  C8  UNL     1      48.393  48.197 -18.423  1.00  0.00     0.167 C
HETATM   10  O1  UNL     1      49.315  49.263 -18.433  1.00  0.00    -0.312 OA
HETATM   11  C12 UNL     1      49.427  50.190 -19.437  1.00  0.00     0.218 C
HETATM   12  N1  UNL     1      50.162  51.262 -19.305  1.00  0.00    -0.365 N
ATOM     13  H11 UNL     1      50.246  51.952 -20.053  1.00  0.00     0.159 HD
ATOM     14  H12 UNL     1      50.668  51.417 -18.433  1.00  0.00     0.159 HD
HETATM   15  N2  UNL     1      48.726  49.975 -20.646  1.00  0.00    -0.322 N
ATOM     16  H2  UNL     1      48.800  50.650 -21.407  1.00  0.00     0.169 HD
ENDROOT
BRANCH   9  17
HETATM   17  C9  UNL     1      47.393  48.532 -17.362  1.00  0.00     0.043 C
BRANCH  17  18
HETATM   18  C10 UNL     1      47.086  47.545 -16.324  1.00  0.00     0.074 C
BRANCH  18  19
HETATM   19  C11 UNL     1      45.891  47.877 -15.454  1.00  0.00     0.353 C
HETATM   20  F1  UNL     1      46.115  47.490 -14.139  1.00  0.00    -0.214 F
HETATM   21  F2  UNL     1      45.793  49.268 -15.429  1.00  0.00    -0.214 F
ENDBRANCH  18  19
ENDBRANCH  17  18
ENDBRANCH   9  17
TORSDOF 3
ENDMDL