MODEL 5
REMARK VINA RESULT: -6.711698102      5.974      7.984
REMARK  3 active torsions:
REMARK  status: ('A' for Active; 'I' for Inactive)
REMARK    1  A    between atoms: C2_3  and  O1_4
REMARK    2  A    between atoms: O1_4  and  C3_5
REMARK    3  A    between atoms: C3_5  and  C4_6
ROOT
HETATM    1  N1  UNL     1      46.504  42.714 -13.143  1.00  0.00    -0.097 NA
HETATM    2  C1  UNL     1      45.390  43.564 -13.281  1.00  0.00     0.109 A
HETATM    3  C2  UNL     1      44.173  43.398 -12.691  1.00  0.00     0.168 A
HETATM    4  N2  UNL     1      43.412  44.433 -13.091  1.00  0.00    -0.333 N
ATOM      5  H2  UNL     1      42.443  44.577 -12.807  1.00  0.00     0.168 HD
HETATM    6  C5  UNL     1      44.091  45.253 -13.912  1.00  0.00     0.070 A
HETATM    7  C6  UNL     1      43.764  46.433 -14.580  1.00  0.00     0.083 A
HETATM    8 CL2  UNL     1      42.142  47.103 -14.396  1.00  0.00    -0.080 Cl
HETATM    9  C7  UNL     1      44.682  47.082 -15.378  1.00  0.00     0.058 A
HETATM   10 CL3  UNL     1      44.185  48.551 -16.176  1.00  0.00    -0.082 Cl
HETATM   11  C8  UNL     1      45.933  46.539 -15.502  1.00  0.00     0.026 A
HETATM   12  C9  UNL     1      46.270  45.365 -14.841  1.00  0.00     0.017 A
HETATM   13  C10 UNL     1      45.350  44.724 -14.048  1.00  0.00     0.021 A
ENDROOT
BRANCH   3  14
HETATM   14  O1  UNL     1      43.761  42.361 -11.830  1.00  0.00    -0.333 OA
BRANCH  14  15
HETATM   15  C3  UNL     1      43.207  42.689 -10.569  1.00  0.00     0.192 C
BRANCH  15  16
HETATM   16  C4  UNL     1      44.285  43.409  -9.768  1.00  0.00     0.141 C
HETATM   17 CL1  UNL     1      43.931  43.366  -8.034  1.00  0.00    -0.128 Cl
ENDBRANCH  15  16
ENDBRANCH  14  15
ENDBRANCH   3  14
TORSDOF 3
ENDMDL