MODEL 4
REMARK VINA RESULT: -7.368282629      1.709      2.464
REMARK  3 active torsions:
REMARK  status: ('A' for Active; 'I' for Inactive)
REMARK    1  A    between atoms: C2_2  and  C3_3
REMARK    2  A    between atoms: C3_3  and  N1_4
REMARK    3  A    between atoms: N1_4  and  C4_6
ROOT
HETATM    1  C4  UNL     1      44.062  43.678 -13.707  1.00  0.00     0.123 A
HETATM    2  N2  UNL     1      43.041  44.532 -13.961  1.00  0.00    -0.338 N
ATOM      3  H2  UNL     1      42.059  44.347 -13.756  1.00  0.00     0.167 HD
HETATM    4  C5  UNL     1      43.510  45.655 -14.520  1.00  0.00     0.089 A
HETATM    5  C6  UNL     1      42.906  46.813 -14.962  1.00  0.00     0.182 A
HETATM    6  F1  UNL     1      41.577  46.974 -14.868  1.00  0.00    -0.200 F
HETATM    7  C7  UNL     1      43.658  47.847 -15.516  1.00  0.00     0.164 A
HETATM    8  F2  UNL     1      43.080  48.974 -15.947  1.00  0.00    -0.202 F
HETATM    9  C8  UNL     1      45.024  47.718 -15.627  1.00  0.00     0.003 A
HETATM   10  C9  UNL     1      45.853  48.822 -16.223  1.00  0.00     0.053 C
HETATM   11  C10 UNL     1      45.594  46.552 -15.178  1.00  0.00     0.057 A
HETATM   12 CL1  UNL     1      47.324  46.379 -15.315  1.00  0.00    -0.083 Cl
HETATM   13  C11 UNL     1      44.886  45.508 -14.626  1.00  0.00     0.041 A
HETATM   14  C12 UNL     1      45.241  44.263 -14.114  1.00  0.00     0.102 A
HETATM   15  C13 UNL     1      46.573  43.736 -14.044  1.00  0.00     0.104 C
HETATM   16  N3  UNL     1      47.645  43.300 -13.977  1.00  0.00    -0.191 NA
ENDROOT
BRANCH   1  17
HETATM   17  N1  UNL     1      43.989  42.385 -13.121  1.00  0.00    -0.375 N
ATOM     18  H1  UNL     1      43.530  42.249 -12.221  1.00  0.00     0.161 HD
BRANCH  17  19
HETATM   19  C3  UNL     1      44.579  41.262 -13.825  1.00  0.00     0.121 C
BRANCH  19  20
HETATM   20  C2  UNL     1      44.132  41.182 -15.253  1.00  0.00     0.015 C
HETATM   21  C1  UNL     1      45.337  40.811 -16.114  1.00  0.00     0.006 C
ENDBRANCH  19  20
ENDBRANCH  17  19
ENDBRANCH   1  17
TORSDOF 3
ENDMDL