MODEL 1
REMARK VINA RESULT: -6.767283059      0.000      0.000
REMARK  4 active torsions:
REMARK  status: ('A' for Active; 'I' for Inactive)
REMARK    1  A    between atoms: C8_10  and  O1_11
REMARK    2  A    between atoms: C9_13  and  N1_14
REMARK    3  A    between atoms: N1_14  and  C10_16
REMARK    4  A    between atoms: C10_16  and  C11_17
ROOT
HETATM    1  C1  UNL     1      46.839  46.886 -16.966  1.00  0.00     0.018 C
HETATM    2  C2  UNL     1      47.239  47.539 -17.898  1.00  0.00    -0.075 C
HETATM    3  C3  UNL     1      47.736  48.316 -19.000  1.00  0.00     0.053 A
HETATM    4  C4  UNL     1      48.706  49.278 -18.743  1.00  0.00    -0.017 A
HETATM    5  C5  UNL     1      49.191  49.467 -17.334  1.00  0.00     0.052 C
HETATM    6  C6  UNL     1      49.190  50.025 -19.779  1.00  0.00     0.066 A
HETATM    7 CL1  UNL     1      50.414  51.253 -19.502  1.00  0.00    -0.082 Cl
HETATM    8  C7  UNL     1      48.730  49.839 -21.079  1.00  0.00     0.091 A
HETATM    9 CL2  UNL     1      49.376  50.818 -22.379  1.00  0.00    -0.079 Cl
HETATM   10  C8  UNL     1      47.771  48.889 -21.346  1.00  0.00     0.117 A
HETATM   11  C9  UNL     1      47.287  48.139 -20.296  1.00  0.00     0.083 A
ENDROOT
BRANCH  11  12
HETATM   12  N1  UNL     1      46.299  47.146 -20.508  1.00  0.00    -0.385 N
ATOM     13  H1  UNL     1      45.314  47.354 -20.343  1.00  0.00     0.159 HD
BRANCH  12  14
HETATM   14  C10 UNL     1      46.702  45.836 -20.959  1.00  0.00     0.135 C
BRANCH  14  15
HETATM   15  C11 UNL     1      45.985  45.400 -22.202  1.00  0.00     0.134 C
HETATM   16 CL3  UNL     1      46.970  44.341 -23.220  1.00  0.00    -0.129 Cl
ENDBRANCH  14  15
ENDBRANCH  12  14
ENDBRANCH  11  12
BRANCH  10  17
HETATM   17  O1  UNL     1      47.270  48.652 -22.614  1.00  0.00    -0.357 OA
ATOM     18  H1  UNL     1      47.803  48.336 -23.334  1.00  0.00     0.218 HD
ENDBRANCH  10  17
TORSDOF 4
ENDMDL