MODEL 3
REMARK VINA RESULT: -6.694803245      2.896      4.550
REMARK  3 active torsions:
REMARK  status: ('A' for Active; 'I' for Inactive)
REMARK    1  A    between atoms: N2_9  and  C5_10
REMARK    2  A    between atoms: C5_10  and  C6_11
REMARK    3  A    between atoms: C6_11  and  C7_12
ROOT
HETATM    1  F1  UNL     1      46.713  46.346 -23.685  1.00  0.00    -0.204 F
HETATM    2  C1  UNL     1      46.996  47.017 -22.536  1.00  0.00     0.140 A
HETATM    3  C2  UNL     1      47.712  48.196 -22.541  1.00  0.00     0.075 A
HETATM    4  C3  UNL     1      47.987  48.855 -21.383  1.00  0.00     0.064 A
HETATM    5  N1  UNL     1      48.643  49.996 -21.037  1.00  0.00    -0.331 N
ATOM      6  H1  UNL     1      49.102  50.637 -21.684  1.00  0.00     0.168 HD
HETATM    7  C4  UNL     1      48.585  50.140 -19.700  1.00  0.00     0.179 A
HETATM    8  S1  UNL     1      49.218  51.343 -18.797  1.00  0.00    -0.040 SA
HETATM    9  N2  UNL     1      47.903  49.108 -19.171  1.00  0.00    -0.322 N
HETATM   10  C8  UNL     1      47.529  48.312 -20.189  1.00  0.00     0.065 A
HETATM   11  C9  UNL     1      46.808  47.126 -20.175  1.00  0.00     0.059 A
HETATM   12  C10 UNL     1      46.531  46.462 -21.351  1.00  0.00     0.074 A
HETATM   13 CL2  UNL     1      45.624  44.970 -21.328  1.00  0.00    -0.081 Cl
ENDROOT
BRANCH   9  14
HETATM   14  C5  UNL     1      47.613  48.879 -17.781  1.00  0.00     0.133 C
BRANCH  14  15
HETATM   15  C6  UNL     1      48.820  48.345 -17.018  1.00  0.00     0.035 C
BRANCH  15  16
HETATM   16  C7  UNL     1      48.729  46.816 -17.113  1.00  0.00     0.116 C
HETATM   17 CL1  UNL     1      49.800  46.212 -18.397  1.00  0.00    -0.130 Cl
ENDBRANCH  15  16
ENDBRANCH  14  15
ENDBRANCH   9  14
TORSDOF 3
ENDMDL