MODEL 4
REMARK VINA RESULT: -7.336247643      5.541      8.538
REMARK  4 active torsions:
REMARK  status: ('A' for Active; 'I' for Inactive)
REMARK    1  A    between atoms: C2_2  and  C3_3
REMARK    2  A    between atoms: C3_3  and  N1_4
REMARK    3  A    between atoms: C7_8  and  C8_9
REMARK    4  A    between atoms: C12_18  and  O1_19
ROOT
HETATM    1  N1  UNL     1      44.291  43.797 -12.841  1.00  0.00    -0.331 N
HETATM    2  C4  UNL     1      44.980  43.258 -13.857  1.00  0.00     0.011 A
HETATM    3  C5  UNL     1      45.476  41.844 -14.028  1.00  0.00     0.068 C
HETATM    4  C6  UNL     1      45.217  44.225 -14.810  1.00  0.00     0.041 A
HETATM    5  C7  UNL     1      44.659  45.406 -14.372  1.00  0.00     0.033 A
HETATM    6  C12 UNL     1      44.096  45.107 -13.157  1.00  0.00     0.154 A
ENDROOT
BRANCH   5   7
HETATM    7  C8  UNL     1      44.662  46.697 -15.050  1.00  0.00     0.060 A
HETATM    8  C9  UNL     1      45.744  47.425 -15.496  1.00  0.00     0.120 A
HETATM    9 CL1  UNL     1      47.403  46.913 -15.323  1.00  0.00    -0.063 Cl
HETATM   10  N2  UNL     1      45.334  48.581 -16.079  1.00  0.00    -0.320 N
HETATM   11  C10 UNL     1      43.992  48.620 -16.020  1.00  0.00     0.229 A
ATOM     12  H2  UNL     1      45.938  49.294 -16.489  1.00  0.00     0.169 HD
HETATM   13  F1  UNL     1      43.179  49.594 -16.485  1.00  0.00    -0.183 F
HETATM   14  C11 UNL     1      43.561  47.460 -15.386  1.00  0.00     0.186 A
HETATM   15  F2  UNL     1      42.269  47.129 -15.137  1.00  0.00    -0.200 F
ENDBRANCH   5   7
BRANCH   6  16
HETATM   16  O1  UNL     1      43.428  45.993 -12.359  1.00  0.00    -0.345 OA
ATOM     17  H1  UNL     1      42.742  46.572 -12.668  1.00  0.00     0.219 HD
ENDBRANCH   6  16
BRANCH   1  18
HETATM   18  C3  UNL     1      43.869  43.076 -11.698  1.00  0.00     0.131 C
BRANCH  18  19
HETATM   19  C2  UNL     1      44.346  43.435 -10.370  1.00  0.00     0.016 C
HETATM   20  C1  UNL     1      43.262  43.964  -9.468  1.00  0.00     0.006 C
ENDBRANCH  18  19
ENDBRANCH   1  18
TORSDOF 4
ENDMDL