MODEL 5
REMARK VINA RESULT: -4.733476097      4.446      6.828
REMARK  4 active torsions:
REMARK  status: ('A' for Active; 'I' for Inactive)
REMARK    1  A    between atoms: C2_2  and  C3_3
REMARK    2  A    between atoms: C13_18  and  C14_19
REMARK    3  A    between atoms: C14_19  and  C16_21
REMARK    4  A    between atoms: C16_21  and  O1_22
ROOT
HETATM    1  C3  UNL     1      47.370  45.002 -14.579  1.00  0.00    -0.022 C
HETATM    2  C4  UNL     1      48.231  45.406 -15.603  1.00  0.00     0.037 C
HETATM    3  C5  UNL     1      48.278  46.668 -16.218  1.00  0.00     0.006 C
HETATM    4  C6  UNL     1      49.521  47.074 -16.903  1.00  0.00     0.068 C
HETATM    5  N1  UNL     1      47.297  47.589 -16.261  1.00  0.00    -0.359 N
ATOM      6  H1  UNL     1      47.540  48.460 -16.733  1.00  0.00     0.166 HD
HETATM    7  C7  UNL     1      46.044  47.534 -15.776  1.00  0.00     0.049 A
HETATM    8  C8  UNL     1      45.230  48.566 -16.198  1.00  0.00     0.073 A
HETATM    9  C9  UNL     1      43.920  48.607 -15.760  1.00  0.00     0.126 A
HETATM   10  F1  UNL     1      43.118  49.604 -16.166  1.00  0.00    -0.205 F
HETATM   11  C10 UNL     1      43.412  47.641 -14.911  1.00  0.00     0.004 A
HETATM   12  C11 UNL     1      42.022  47.664 -14.426  1.00  0.00     0.054 C
HETATM   13  C12 UNL     1      44.244  46.604 -14.490  1.00  0.00     0.055 A
HETATM   14  N2  UNL     1      44.062  45.543 -13.697  1.00  0.00    -0.357 N
ATOM     15  H2  UNL     1      43.180  45.327 -13.234  1.00  0.00     0.166 HD
HETATM   16  C13 UNL     1      45.186  44.785 -13.577  1.00  0.00     0.027 A
HETATM   17  C17 UNL     1      46.115  45.445 -14.361  1.00  0.00     0.012 A
HETATM   18  C18 UNL     1      45.523  46.588 -14.934  1.00  0.00     0.031 A
ENDROOT
BRANCH  16  19
HETATM   19  C14 UNL     1      45.294  43.610 -12.724  1.00  0.00     0.056 C
HETATM   20  C15 UNL     1      44.317  42.569 -13.368  1.00  0.00     0.018 C
BRANCH  19  21
HETATM   21  C16 UNL     1      44.560  43.720 -11.391  1.00  0.00     0.174 C
BRANCH  21  22
HETATM   22  O1  UNL     1      43.206  43.820 -11.655  1.00  0.00    -0.400 OA
ATOM     23  H1  UNL     1      42.760  43.135 -11.170  1.00  0.00     0.209 HD
ENDBRANCH  21  22
ENDBRANCH  19  21
ENDBRANCH  16  19
BRANCH   1  24
HETATM   24  C2  UNL     1      47.903  44.002 -13.741  1.00  0.00     0.002 C
HETATM   25  C1  UNL     1      47.821  42.723 -14.128  1.00  0.00     0.012 C
ENDBRANCH   1  24
TORSDOF 4
ENDMDL