MODEL 1
REMARK VINA RESULT: -8.481886563      0.000      0.000
REMARK  5 active torsions:
REMARK  status: ('A' for Active; 'I' for Inactive)
REMARK    1  A    between atoms: C3_3  and  C4_4
REMARK    2  A    between atoms: C4_4  and  O1_6
REMARK    3  A    between atoms: C4_4  and  C6_8
REMARK    4  A    between atoms: C6_8  and  C7_9
REMARK    5  A    between atoms: C8_12  and  C9_13
ROOT
HETATM    1  C1  UNL     1      49.399  51.554 -22.076  1.00  0.00     0.112 C
HETATM    2  C2  UNL     1      49.145  50.215 -21.524  1.00  0.00    -0.108 C
HETATM    3  C3  UNL     1      48.939  49.119 -21.062  1.00  0.00    -0.069 C
ENDROOT
BRANCH   3   4
HETATM    4  C4  UNL     1      48.693  47.770 -20.496  1.00  0.00     0.122 C
HETATM    5  C5  UNL     1      47.169  47.597 -20.418  1.00  0.00     0.061 C
BRANCH   4   6
HETATM    6  O1  UNL     1      49.152  46.792 -21.346  1.00  0.00    -0.378 OA
ATOM      7  H1  UNL     1      48.519  46.087 -21.422  1.00  0.00     0.211 HD
ENDBRANCH   4   6
BRANCH   4   8
HETATM    8  C6  UNL     1      49.248  47.672 -19.114  1.00  0.00     0.110 C
BRANCH   8   9
HETATM    9  C7  UNL     1      48.314  48.038 -18.036  1.00  0.00     0.044 A
HETATM   10  N1  UNL     1      47.433  47.178 -17.448  1.00  0.00    -0.336 N
HETATM   11  C8  UNL     1      46.738  47.837 -16.517  1.00  0.00     0.175 A
ATOM     12  H1  UNL     1      47.323  46.192 -17.681  1.00  0.00     0.168 HD
HETATM   13  O2  UNL     1      47.164  49.051 -16.521  1.00  0.00    -0.294 OA
HETATM   14  C15 UNL     1      48.110  49.249 -17.405  1.00  0.00     0.074 A
HETATM   15  C16 UNL     1      48.829  50.506 -17.690  1.00  0.00     0.079 C
BRANCH  11  16
HETATM   16  C9  UNL     1      45.692  47.216 -15.679  1.00  0.00     0.090 A
HETATM   17  N2  UNL     1      45.781  46.074 -14.992  1.00  0.00    -0.361 N
HETATM   18  C10 UNL     1      44.615  45.855 -14.359  1.00  0.00     0.095 A
ATOM     19  H2  UNL     1      46.600  45.467 -14.954  1.00  0.00     0.165 HD
HETATM   20  C11 UNL     1      43.756  46.884 -14.648  1.00  0.00    -0.038 A
HETATM   21  C12 UNL     1      42.355  47.094 -14.187  1.00  0.00     0.050 C
HETATM   22  C13 UNL     1      44.439  47.740 -15.481  1.00  0.00    -0.024 A
HETATM   23  C14 UNL     1      43.929  49.020 -16.077  1.00  0.00     0.051 C
ENDBRANCH  11  16
ENDBRANCH   8   9
ENDBRANCH   4   8
ENDBRANCH   3   4
TORSDOF 5
ENDMDL