MODEL 2
REMARK VINA RESULT: -8.534573103      2.668      7.396
REMARK  4 active torsions:
REMARK  status: ('A' for Active; 'I' for Inactive)
REMARK    1  A    between atoms: C3_3  and  C4_4
REMARK    2  A    between atoms: C7_11  and  N3_12
REMARK    3  A    between atoms: N3_12  and  C8_14
REMARK    4  A    between atoms: C11_17  and  C12_18
ROOT
HETATM    1  N3  UNL     1      46.405  48.783 -15.639  1.00  0.00    -0.340 N
ATOM      2  H3  UNL     1      46.110  49.599 -15.103  1.00  0.00     0.167 HD
ENDROOT
BRANCH   1   3
HETATM    3  C7  UNL     1      46.067  47.578 -15.280  1.00  0.00     0.128 A
HETATM    4  C2  UNL     1      44.766  47.050 -15.241  1.00  0.00     0.012 A
HETATM    5  C1  UNL     1      43.584  47.855 -15.625  1.00  0.00     0.055 C
HETATM    6  C3  UNL     1      44.833  45.748 -14.887  1.00  0.00     0.059 A
HETATM    7  N1  UNL     1      46.185  45.478 -14.708  1.00  0.00    -0.298 N
HETATM    8  N2  UNL     1      46.865  46.603 -14.951  1.00  0.00    -0.285 N
ATOM      9  H1  UNL     1      46.588  44.580 -14.438  1.00  0.00     0.187 HD
ATOM     10  H2  UNL     1      47.879  46.687 -14.888  1.00  0.00     0.188 HD
BRANCH   6  11
HETATM   11  C4  UNL     1      43.782  44.753 -14.593  1.00  0.00    -0.059 C
HETATM   12  C5  UNL     1      43.762  44.630 -13.031  1.00  0.00     0.045 C
HETATM   13  C6  UNL     1      43.622  43.553 -15.325  1.00  0.00     0.045 C
ENDBRANCH   6  11
ENDBRANCH   1   3
BRANCH   1  14
HETATM   14  C8  UNL     1      47.221  48.916 -16.837  1.00  0.00     0.049 A
HETATM   15  C9  UNL     1      48.113  49.990 -16.860  1.00  0.00     0.033 A
HETATM   16  C10 UNL     1      48.896  50.173 -17.968  1.00  0.00     0.027 A
HETATM   17  C11 UNL     1      48.804  49.294 -19.065  1.00  0.00     0.016 A
HETATM   18  N4  UNL     1      47.958  48.280 -19.019  1.00  0.00    -0.367 N
HETATM   19  C16 UNL     1      47.155  48.079 -17.897  1.00  0.00     0.117 A
ATOM     20  H4  UNL     1      47.892  47.638 -19.810  1.00  0.00     0.165 HD
BRANCH  17  21
HETATM   21  C12 UNL     1      49.656  49.609 -20.187  1.00  0.00     0.069 C
HETATM   22  C13 UNL     1      49.037  49.324 -21.590  1.00  0.00     0.016 C
HETATM   23  C14 UNL     1      49.988  50.411 -22.077  1.00  0.00     0.039 C
HETATM   24  C15 UNL     1      49.821  51.018 -20.661  1.00  0.00     0.180 C
HETATM   25  F1  UNL     1      48.653  51.752 -20.700  1.00  0.00    -0.249 F
ENDBRANCH  17  21
ENDBRANCH   1  14
TORSDOF 4
ENDMDL