MODEL 5
REMARK VINA RESULT: -8.097903443      2.677      7.912
REMARK  3 active torsions:
REMARK  status: ('A' for Active; 'I' for Inactive)
REMARK    1  A    between atoms: C2_2  and  C3_3
REMARK    2  A    between atoms: C5_7  and  N2_8
REMARK       I    between atoms: N2_8  and  C6_10
REMARK       I    between atoms: C6_10  and  N3_12
REMARK    3  A    between atoms: N3_12  and  C7_14
ROOT
HETATM    1  N2  UNL     1      47.935  47.274 -17.360  1.00  0.00    -0.294 N
ATOM      2  H2  UNL     1      48.588  46.508 -17.198  1.00  0.00     0.172 HD
HETATM    3  C6  UNL     1      46.846  47.360 -16.507  1.00  0.00     0.322 C
HETATM    4  O1  UNL     1      46.006  48.272 -16.650  1.00  0.00    -0.247 OA
HETATM    5  N3  UNL     1      46.660  46.430 -15.467  1.00  0.00    -0.338 N
ATOM      6  H3  UNL     1      47.349  45.687 -15.351  1.00  0.00     0.164 HD
ENDROOT
BRANCH   1   7
HETATM    7  C5  UNL     1      48.228  48.148 -18.434  1.00  0.00     0.116 A
HETATM    8  N1  UNL     1      47.627  47.963 -19.623  1.00  0.00    -0.351 N
HETATM    9  C4  UNL     1      47.861  48.761 -20.689  1.00  0.00     0.098 A
ATOM     10  H1  UNL     1      46.970  47.190 -19.725  1.00  0.00     0.166 HD
HETATM   11  C3  UNL     1      48.748  49.813 -20.570  1.00  0.00    -0.021 A
HETATM   12  C15 UNL     1      49.376  50.028 -19.371  1.00  0.00     0.051 A
HETATM   13  C13 UNL     1      49.106  49.190 -18.319  1.00  0.00     0.004 A
HETATM   14 CL1  UNL     1      50.521  51.350 -19.152  1.00  0.00    -0.083 Cl
HETATM   15  C14 UNL     1      49.749  49.363 -16.995  1.00  0.00     0.054 C
BRANCH  11  16
HETATM   16  C2  UNL     1      49.009  50.694 -21.739  1.00  0.00     0.037 C
HETATM   17  C1  UNL     1      50.481  50.584 -22.078  1.00  0.00     0.010 C
ENDBRANCH  11  16
ENDBRANCH   1   7
BRANCH   5  18
HETATM   18  C7  UNL     1      45.531  46.479 -14.547  1.00  0.00     0.086 C
HETATM   19  C8  UNL     1      44.267  46.723 -15.310  1.00  0.00     0.025 C
HETATM   20  C9  UNL     1      43.079  46.717 -14.384  1.00  0.00     0.002 C
HETATM   21  C10 UNL     1      43.050  45.379 -13.673  1.00  0.00     0.000 C
HETATM   22  C11 UNL     1      44.320  45.275 -12.826  1.00  0.00     0.002 C
HETATM   23  C12 UNL     1      45.464  45.145 -13.808  1.00  0.00     0.025 C
ENDBRANCH   5  18
TORSDOF 3
ENDMDL