MODEL 2
REMARK VINA RESULT: -8.157815095      1.037      1.039
REMARK  3 active torsions:
REMARK  status: ('A' for Active; 'I' for Inactive)
REMARK    1  A    between atoms: C2_2  and  N1_4
REMARK       I    between atoms: N1_4  and  C4_6
REMARK       I    between atoms: C4_6  and  N2_8
REMARK    2  A    between atoms: N2_8  and  C5_10
REMARK    3  A    between atoms: C5_10  and  C6_11
ROOT
HETATM    1  C6  UNL     1      47.775  47.907 -17.269  1.00  0.00     0.142 C
HETATM    2  C7  UNL     1      49.301  47.889 -17.197  1.00  0.00     0.057 C
HETATM    3  C8  UNL     1      49.614  47.939 -18.699  1.00  0.00     0.119 C
HETATM    4 CL1  UNL     1      49.519  46.345 -19.427  1.00  0.00    -0.122 Cl
HETATM    5  C9  UNL     1      48.527  48.890 -19.160  1.00  0.00     0.078 C
HETATM    6  C10 UNL     1      49.081  50.276 -18.989  1.00  0.00     0.040 C
HETATM    7  C11 UNL     1      49.994  50.690 -20.121  1.00  0.00     0.003 C
HETATM    8  C12 UNL     1      49.128  50.670 -21.364  1.00  0.00     0.000 C
HETATM    9  C13 UNL     1      48.860  49.209 -21.642  1.00  0.00     0.003 C
HETATM   10  C14 UNL     1      48.119  48.531 -20.531  1.00  0.00     0.040 C
HETATM   11  O2  UNL     1      47.455  48.760 -18.309  1.00  0.00    -0.372 OA
ENDROOT
BRANCH   1  12
HETATM   12  C5  UNL     1      47.174  48.383 -15.994  1.00  0.00     0.156 C
BRANCH  12  13
HETATM   13  N2  UNL     1      46.886  47.301 -15.119  1.00  0.00    -0.341 N
HETATM   14  C4  UNL     1      45.565  46.913 -14.801  1.00  0.00     0.316 C
HETATM   15  N1  UNL     1      45.335  45.828 -13.904  1.00  0.00    -0.339 N
HETATM   16  O1  UNL     1      44.608  47.532 -15.317  1.00  0.00    -0.247 OA
ATOM     17  H1  UNL     1      46.144  45.351 -13.506  1.00  0.00     0.164 HD
ATOM     18  H2  UNL     1      47.662  46.784 -14.705  1.00  0.00     0.164 HD
BRANCH  15  19
HETATM   19  C2  UNL     1      44.029  45.374 -13.532  1.00  0.00     0.078 C
HETATM   20  C1  UNL     1      43.995  44.686 -12.189  1.00  0.00     0.032 C
HETATM   21  C3  UNL     1      43.598  44.347 -14.581  1.00  0.00     0.032 C
ENDBRANCH  15  19
ENDBRANCH  12  13
ENDBRANCH   1  12
TORSDOF 3
ENDMDL