MODEL 1
REMARK VINA RESULT: -9.544409955      0.000      0.000
REMARK  4 active torsions:
REMARK  status: ('A' for Active; 'I' for Inactive)
REMARK    1  A    between atoms: C4_4  and  C5_5
REMARK    2  A    between atoms: C5_5  and  N1_6
REMARK    3  A    between atoms: N1_6  and  C6_9
REMARK    4  A    between atoms: C18_22  and  O1_23
ROOT
HETATM    1  N1  UNL     1      46.995  48.928 -15.796  1.00  0.00    -0.062 N
ATOM      2  H11 UNL     1      47.230  48.298 -15.029  1.00  0.00     0.278 HD
ATOM      3  H12 UNL     1      47.107  49.820 -15.315  1.00  0.00     0.278 HD
ENDROOT
BRANCH   1   4
HETATM    4  C5  UNL     1      45.647  48.739 -16.220  1.00  0.00     0.271 C
BRANCH   4   5
HETATM    5  C4  UNL     1      44.967  47.651 -15.446  1.00  0.00    -0.029 A
HETATM    6  C3  UNL     1      45.648  46.608 -14.884  1.00  0.00     0.018 A
HETATM    7  C2  UNL     1      44.937  45.653 -14.191  1.00  0.00    -0.025 A
HETATM    8  C1  UNL     1      45.681  44.503 -13.570  1.00  0.00     0.051 C
HETATM    9  C18 UNL     1      43.570  45.737 -14.060  1.00  0.00     0.110 A
HETATM   10  C17 UNL     1      42.897  46.794 -14.632  1.00  0.00     0.150 A
HETATM   11  C16 UNL     1      43.594  47.753 -15.325  1.00  0.00     0.054 A
HETATM   12  F1  UNL     1      41.532  46.913 -14.524  1.00  0.00    -0.203 F
BRANCH   9  13
HETATM   13  O1  UNL     1      42.874  44.758 -13.352  1.00  0.00    -0.357 OA
ATOM     14  H1  UNL     1      42.067  44.979 -12.902  1.00  0.00     0.217 HD
ENDBRANCH   9  13
ENDBRANCH   4   5
ENDBRANCH   1   4
BRANCH   1  15
HETATM   15  C6  UNL     1      47.927  48.801 -16.866  1.00  0.00     0.127 C
HETATM   16  C7  UNL     1      49.131  47.954 -16.524  1.00  0.00     0.043 C
HETATM   17  C8  UNL     1      50.093  47.969 -17.690  1.00  0.00    -0.012 C
HETATM   18  C9  UNL     1      50.468  49.353 -18.131  1.00  0.00     0.009 C
HETATM   19  C13 UNL     1      49.442  47.167 -18.799  1.00  0.00     0.009 C
HETATM   20  C10 UNL     1      49.201  50.071 -18.603  1.00  0.00    -0.012 C
HETATM   21  C11 UNL     1      48.624  49.274 -19.722  1.00  0.00     0.009 C
HETATM   22  C15 UNL     1      48.302  50.157 -17.387  1.00  0.00     0.043 C
HETATM   23  C12 UNL     1      48.176  47.912 -19.190  1.00  0.00    -0.012 C
HETATM   24  C14 UNL     1      47.234  48.073 -18.032  1.00  0.00     0.043 C
ENDBRANCH   1  15
TORSDOF 4
ENDMDL