MODEL 1
REMARK VINA RESULT: -8.530302343      0.000      0.000
REMARK  2 active torsions:
REMARK  status: ('A' for Active; 'I' for Inactive)
REMARK    1  A    between atoms: C8_9  and  N1_10
REMARK    2  A    between atoms: C11_13  and  C12_14
ROOT
HETATM    1  N1  UNL     1      47.651  47.648 -17.255  1.00  0.00    -0.371 N
HETATM    2  C9  UNL     1      48.702  46.819 -16.517  1.00  0.00     0.126 C
HETATM    3  C10 UNL     1      47.886  47.261 -15.289  1.00  0.00     0.050 C
HETATM    4  C11 UNL     1      46.767  47.027 -16.333  1.00  0.00     0.127 C
ENDROOT
BRANCH   1   5
HETATM    5  C8  UNL     1      48.033  48.458 -18.347  1.00  0.00     0.043 A
HETATM    6  C2  UNL     1      48.603  49.716 -18.270  1.00  0.00    -0.033 A
HETATM    7  C1  UNL     1      48.864  50.308 -16.931  1.00  0.00     0.050 C
HETATM    8  C3  UNL     1      48.977  50.429 -19.395  1.00  0.00     0.033 A
HETATM    9  C4  UNL     1      48.799  49.918 -20.634  1.00  0.00     0.035 A
HETATM   10 CL1  UNL     1      49.304  50.814 -22.078  1.00  0.00    -0.084 Cl
HETATM   11  C5  UNL     1      48.231  48.660 -20.756  1.00  0.00     0.033 A
HETATM   12  C6  UNL     1      47.861  47.955 -19.644  1.00  0.00    -0.033 A
HETATM   13  C7  UNL     1      47.196  46.629 -19.836  1.00  0.00     0.050 C
ENDBRANCH   1   5
BRANCH   4  14
HETATM   14  C12 UNL     1      45.541  47.617 -15.880  1.00  0.00     0.058 A
HETATM   15  C13 UNL     1      44.497  46.790 -15.401  1.00  0.00     0.036 A
HETATM   16  C14 UNL     1      44.605  45.309 -15.118  1.00  0.00     0.070 C
HETATM   17  N2  UNL     1      43.431  47.529 -15.156  1.00  0.00    -0.302 N
HETATM   18  N3  UNL     1      43.683  48.804 -15.432  1.00  0.00    -0.266 N
ATOM     19  H2  UNL     1      42.542  47.173 -14.805  1.00  0.00     0.186 HD
HETATM   20  C15 UNL     1      44.976  48.874 -15.880  1.00  0.00     0.270 A
ATOM     21  H3  UNL     1      43.035  49.584 -15.329  1.00  0.00     0.190 HD
HETATM   22  O1  UNL     1      45.520  49.914 -16.229  1.00  0.00    -0.266 OA
ENDBRANCH   4  14
TORSDOF 2
ENDMDL