MODEL 3
REMARK VINA RESULT: -7.160059320      2.502      6.614
REMARK  5 active torsions:
REMARK  status: ('A' for Active; 'I' for Inactive)
REMARK    1  A    between atoms: C2_2  and  C3_3
REMARK    2  A    between atoms: C3_3  and  N1_4
REMARK    3  A    between atoms: N1_4  and  C4_6
REMARK    4  A    between atoms: C4_6  and  N2_8
REMARK    5  A    between atoms: N2_8  and  C5_10
ROOT
HETATM    1  C5  UNL     1      46.859  47.355 -16.324  1.00  0.00     0.052 A
HETATM    2  C6  UNL     1      47.876  46.473 -16.066  1.00  0.00     0.080 A
HETATM    3  S2  UNL     1      47.324  45.608 -14.697  1.00  0.00    -0.103 SA
HETATM    4  C7  UNL     1      45.822  46.379 -14.481  1.00  0.00    -0.004 A
HETATM    5  C8  UNL     1      45.792  47.303 -15.494  1.00  0.00     0.013 A
HETATM    6  C9  UNL     1      44.623  48.230 -15.603  1.00  0.00    -0.018 C
HETATM    7  C10 UNL     1      44.929  49.514 -15.841  1.00  0.00     0.196 C
HETATM    8  F1  UNL     1      43.895  50.374 -15.948  1.00  0.00    -0.219 F
HETATM    9  C11 UNL     1      43.167  47.920 -15.457  1.00  0.00     0.042 C
HETATM   10  C12 UNL     1      43.026  46.459 -15.098  1.00  0.00     0.005 C
HETATM   11  C13 UNL     1      43.431  46.118 -13.721  1.00  0.00     0.005 C
HETATM   12  C14 UNL     1      44.857  46.019 -13.389  1.00  0.00     0.047 C
ENDROOT
BRANCH   1  13
HETATM   13  N2  UNL     1      46.899  48.188 -17.469  1.00  0.00    -0.332 N
ATOM     14  H2  UNL     1      45.996  48.409 -17.888  1.00  0.00     0.168 HD
BRANCH  13  15
HETATM   15  C4  UNL     1      48.000  48.739 -18.091  1.00  0.00     0.172 C
HETATM   16  S1  UNL     1      48.817  50.021 -17.567  1.00  0.00    -0.041 SA
BRANCH  15  17
HETATM   17  N1  UNL     1      48.417  48.133 -19.351  1.00  0.00    -0.364 N
ATOM     18  H1  UNL     1      49.377  47.803 -19.456  1.00  0.00     0.162 HD
BRANCH  17  19
HETATM   19  C3  UNL     1      47.498  47.992 -20.446  1.00  0.00     0.148 C
BRANCH  19  20
HETATM   20  C2  UNL     1      47.919  48.712 -21.679  1.00  0.00    -0.018 C
HETATM   21  C1  UNL     1      48.746  49.743 -21.640  1.00  0.00     0.008 C
ENDBRANCH  19  20
ENDBRANCH  17  19
ENDBRANCH  15  17
ENDBRANCH  13  15
ENDBRANCH   1  13
TORSDOF 5
ENDMDL