MODEL 1
REMARK VINA RESULT: -8.403685716      0.000      0.000
REMARK  5 active torsions:
REMARK  status: ('A' for Active; 'I' for Inactive)
REMARK    1  A    between atoms: C4_4  and  C5_5
REMARK    2  A    between atoms: C5_5  and  C6_6
REMARK    3  A    between atoms: C6_6  and  N1_7
REMARK    4  A    between atoms: C6_6  and  C7_11
REMARK    5  A    between atoms: C9_13  and  C10_14
ROOT
HETATM    1  C6  UNL     1      47.799  48.091 -16.796  1.00  0.00     0.237 C
ENDROOT
BRANCH   1   2
HETATM    2  C5  UNL     1      47.665  48.002 -18.284  1.00  0.00     0.079 C
BRANCH   2   3
HETATM    3  C4  UNL     1      48.358  49.123 -18.977  1.00  0.00    -0.039 A
HETATM    4  C3  UNL     1      48.584  49.229 -20.337  1.00  0.00     0.033 A
HETATM    5  C2  UNL     1      49.252  50.398 -20.617  1.00  0.00     0.005 A
HETATM    6  C1  UNL     1      49.690  50.898 -21.968  1.00  0.00     0.068 C
HETATM    7  N3  UNL     1      49.437  51.011 -19.434  1.00  0.00    -0.369 N
HETATM    8  C16 UNL     1      48.913  50.272 -18.430  1.00  0.00     0.095 A
ATOM      9  H3  UNL     1      49.908  51.907 -19.311  1.00  0.00     0.165 HD
ENDBRANCH   2   3
ENDBRANCH   1   2
BRANCH   1  10
HETATM   10  N1  UNL     1      48.792  47.166 -16.278  1.00  0.00    -0.069 N
ATOM     11  H13 UNL     1      49.303  46.711 -17.035  1.00  0.00     0.275 HD
ATOM     12  H12 UNL     1      49.565  47.663 -15.836  1.00  0.00     0.275 HD
ATOM     13  H11 UNL     1      48.385  46.479 -15.643  1.00  0.00     0.275 HD
ENDBRANCH   1  10
BRANCH   1  14
HETATM   14  C7  UNL     1      46.461  47.831 -16.199  1.00  0.00     0.040 A
HETATM   15  C8  UNL     1      46.247  46.653 -15.500  1.00  0.00     0.036 A
HETATM   16  C9  UNL     1      45.022  46.367 -14.929  1.00  0.00    -0.026 A
HETATM   17  C14 UNL     1      44.038  47.311 -15.092  1.00  0.00     0.056 A
HETATM   18 CL1  UNL     1      42.499  46.985 -14.394  1.00  0.00    -0.082 Cl
HETATM   19  C15 UNL     1      44.254  48.492 -15.791  1.00  0.00     0.112 A
HETATM   20  N2  UNL     1      45.454  48.736 -16.332  1.00  0.00    -0.366 N
ATOM     21  H2  UNL     1      45.613  49.602 -16.845  1.00  0.00     0.165 HD
BRANCH  16  22
HETATM   22  C10 UNL     1      44.838  45.147 -14.217  1.00  0.00    -0.022 C
HETATM   23  C11 UNL     1      44.342  45.176 -12.822  1.00  0.00     0.019 C
HETATM   24  C12 UNL     1      46.158  44.374 -14.201  1.00  0.00     0.019 C
HETATM   25  C13 UNL     1      43.849  44.283 -15.010  1.00  0.00     0.019 C
ENDBRANCH  16  22
ENDBRANCH   1  14
TORSDOF 5
ENDMDL