MODEL 5
REMARK VINA RESULT: -6.973608237      7.449     10.336
REMARK  4 active torsions:
REMARK  status: ('A' for Active; 'I' for Inactive)
REMARK    1  A    between atoms: O1_1  and  C1_3
REMARK    2  A    between atoms: C1_3  and  C2_4
REMARK    3  A    between atoms: C11_15  and  N1_16
REMARK    4  A    between atoms: N1_16  and  C12_18
ROOT
HETATM    1  C1  UNL     1      44.037  44.011 -13.372  1.00  0.00     0.109 C
HETATM    2  C8  UNL     1      44.798  45.233 -13.507  1.00  0.00     0.009 C
HETATM    3  C9  UNL     1      45.662  45.925 -14.194  1.00  0.00     0.191 C
HETATM    4  F1  UNL     1      46.058  47.200 -13.778  1.00  0.00    -0.192 F
HETATM    5 CL1  UNL     1      46.436  45.420 -15.683  1.00  0.00    -0.051 Cl
HETATM    6  C10 UNL     1      44.099  45.695 -12.217  1.00  0.00     0.069 C
HETATM    7  C11 UNL     1      43.958  44.229 -11.880  1.00  0.00     0.120 C
ENDROOT
BRANCH   1   8
HETATM    8  O1  UNL     1      42.745  44.241 -13.919  1.00  0.00    -0.383 OA
ATOM      9  H1  UNL     1      42.745  45.072 -14.380  1.00  0.00     0.211 HD
ENDBRANCH   1   8
BRANCH   1  10
HETATM   10  C2  UNL     1      44.518  42.695 -13.810  1.00  0.00     0.027 C
HETATM   11  C3  UNL     1      44.357  42.577 -15.323  1.00  0.00     0.008 C
HETATM   12  C4  UNL     1      44.514  41.090 -15.618  1.00  0.00     0.000 C
HETATM   13  C5  UNL     1      45.999  40.833 -15.509  1.00  0.00     0.000 C
HETATM   14  C6  UNL     1      46.722  41.891 -14.756  1.00  0.00     0.000 C
HETATM   15  C7  UNL     1      45.968  42.424 -13.555  1.00  0.00     0.008 C
ENDBRANCH   1  10
BRANCH   7  16
HETATM   16  N1  UNL     1      45.007  43.820 -11.033  1.00  0.00    -0.409 N
ATOM     17  H1  UNL     1      45.987  43.926 -11.294  1.00  0.00     0.154 HD
BRANCH  16  18
HETATM   18  C12 UNL     1      44.611  43.250  -9.787  1.00  0.00     0.077 C
HETATM   19  C13 UNL     1      43.336  42.448 -10.025  1.00  0.00     0.024 C
HETATM   20  C14 UNL     1      42.425  42.773  -8.871  1.00  0.00     0.002 C
HETATM   21  C15 UNL     1      43.298  43.466  -7.838  1.00  0.00     0.002 C
HETATM   22  C16 UNL     1      44.199  44.292  -8.775  1.00  0.00     0.024 C
ENDBRANCH  16  18
ENDBRANCH   7  16
TORSDOF 4
ENDMDL