MODEL 3
REMARK VINA RESULT: -6.530056871      1.725      2.555
REMARK  9 active torsions:
REMARK  status: ('A' for Active; 'I' for Inactive)
REMARK    1  A    between atoms: C2_2  and  N1_4
REMARK       I    between atoms: N1_4  and  C4_6
REMARK    2  A    between atoms: C4_6  and  C5_8
REMARK    3  A    between atoms: C6_9  and  N2_10
REMARK       I    between atoms: N2_10  and  C7_12
REMARK    4  A    between atoms: C7_12  and  C8_14
REMARK    5  A    between atoms: C8_14  and  N3_15
REMARK       I    between atoms: N4_19  and  C12_20
REMARK    6  A    between atoms: C12_20  and  C13_22
REMARK    7  A    between atoms: C13_22  and  C14_23
REMARK    8  A    between atoms: C14_23  and  C15_24
REMARK    9  A    between atoms: C15_24  and  C16_25
ROOT
HETATM    1  N3  UNL     1     -34.039  16.676 -19.057  1.00  0.00    -0.374 NA
HETATM    2  C9  UNL     1     -33.444  17.642 -19.285  1.00  0.00     0.012 C
HETATM    3  C10 UNL     1     -32.677  18.862 -19.587  1.00  0.00     0.140 C
ENDROOT
BRANCH   1   4
HETATM    4  C8  UNL     1     -34.765  15.509 -18.783  1.00  0.00     0.267 C
BRANCH   4   5
HETATM    5  C7  UNL     1     -34.289  14.366 -19.606  1.00  0.00     0.271 C
HETATM    6  N2  UNL     1     -33.718  13.254 -18.943  1.00  0.00    -0.347 N
ATOM      7  H2  UNL     1     -33.632  13.232 -17.927  1.00  0.00     0.163 HD
HETATM    8  O2  UNL     1     -34.407  14.421 -20.860  1.00  0.00    -0.266 OA
BRANCH   6   9
HETATM    9  C6  UNL     1     -33.264  12.157 -19.753  1.00  0.00     0.135 C
HETATM   10  C5  UNL     1     -31.837  11.778 -19.668  1.00  0.00     0.203 C
HETATM   11  N4  UNL     1     -32.079  11.369 -18.328  1.00  0.00    -0.335 N
HETATM   12  C11 UNL     1     -33.377  10.874 -18.887  1.00  0.00     0.154 C
HETATM   13  C12 UNL     1     -31.616  11.332 -17.011  1.00  0.00     0.220 C
HETATM   14  O3  UNL     1     -30.533  11.849 -16.646  1.00  0.00    -0.273 OA
BRANCH  10  15
HETATM   15  C4  UNL     1     -30.776  12.725 -20.005  1.00  0.00     0.247 C
HETATM   16  N1  UNL     1     -29.449  12.428 -19.676  1.00  0.00    -0.330 N
ATOM     17  H1  UNL     1     -29.298  11.533 -19.210  1.00  0.00     0.168 HD
HETATM   18  O1  UNL     1     -31.013  13.814 -20.596  1.00  0.00    -0.271 OA
BRANCH  16  19
HETATM   19  C2  UNL     1     -28.304  13.197 -19.900  1.00  0.00    -0.001 C
HETATM   20  C1  UNL     1     -27.706  13.952 -19.018  1.00  0.00     0.037 C
HETATM   21  C3  UNL     1     -27.654  13.191 -21.287  1.00  0.00     0.067 C
ENDBRANCH  16  19
ENDBRANCH  10  15
BRANCH  13  22
HETATM   22  C13 UNL     1     -32.404  10.661 -15.941  1.00  0.00     0.103 C
BRANCH  22  23
HETATM   23  C14 UNL     1     -31.677  10.561 -14.642  1.00  0.00     0.010 C
BRANCH  23  24
HETATM   24  C15 UNL     1     -31.920  11.715 -13.709  1.00  0.00     0.011 C
BRANCH  24  25
HETATM   25  C16 UNL     1     -31.183  11.419 -12.393  1.00  0.00     0.085 C
HETATM   26 BR1  UNL     1     -31.586  12.815 -11.132  1.00  0.00    -0.097 Br
ENDBRANCH  24  25
ENDBRANCH  23  24
ENDBRANCH  22  23
ENDBRANCH  13  22
ENDBRANCH   6   9
ENDBRANCH   4   5
ENDBRANCH   1   4
TORSDOF 9
ENDMDL