MODEL 2
REMARK VINA RESULT: -6.288386241      2.208      3.113
REMARK  9 active torsions:
REMARK  status: ('A' for Active; 'I' for Inactive)
REMARK    1  A    between atoms: C2_2  and  N1_3
REMARK    2  A    between atoms: C6_7  and  N2_8
REMARK       I    between atoms: N2_8  and  C7_10
REMARK    3  A    between atoms: N3_13  and  C9_14
REMARK    4  A    between atoms: C9_14  and  O2_15
REMARK    5  A    between atoms: C9_14  and  C10_17
REMARK       I    between atoms: C10_17  and  N4_19
REMARK    6  A    between atoms: N4_19  and  C11_21
REMARK    7  A    between atoms: C11_21  and  C12_22
REMARK    8  A    between atoms: C12_22  and  C13_23
REMARK    9  A    between atoms: C13_23  and  C14_24
ROOT
HETATM    1  N1  UNL     1     -33.572  14.764 -19.581  1.00  0.00    -0.050 N
HETATM    2  C3  UNL     1     -33.348  15.528 -20.781  1.00  0.00     0.274 C
HETATM    3  C4  UNL     1     -33.470  13.320 -19.852  1.00  0.00     0.297 C
HETATM    4  C5  UNL     1     -33.202  12.791 -18.423  1.00  0.00     0.057 C
HETATM    5  C6  UNL     1     -33.195  11.357 -18.270  1.00  0.00     0.118 C
HETATM    6  N3  UNL     1     -32.232  13.686 -17.950  1.00  0.00    -0.299 N
HETATM    7  C15 UNL     1     -32.586  15.026 -18.605  1.00  0.00     0.369 C
ENDROOT
BRANCH   6   8
HETATM    8  C9  UNL     1     -31.147  13.704 -17.089  1.00  0.00     0.213 C
BRANCH   8   9
HETATM    9  O2  UNL     1     -29.935  13.812 -17.668  1.00  0.00    -0.342 OA
ATOM     10  H2  UNL     1     -29.233  14.128 -17.110  1.00  0.00     0.219 HD
ENDBRANCH   8   9
BRANCH   8  11
HETATM   11  C10 UNL     1     -30.995  13.634 -15.673  1.00  0.00     0.292 C
HETATM   12  O3  UNL     1     -30.744  14.597 -14.939  1.00  0.00    -0.264 OA
HETATM   13  N4  UNL     1     -31.132  12.371 -14.961  1.00  0.00    -0.354 N
ATOM     14  H4  UNL     1     -31.339  11.529 -15.498  1.00  0.00     0.162 HD
BRANCH  13  15
HETATM   15  C11 UNL     1     -30.989  12.258 -13.551  1.00  0.00     0.123 C
BRANCH  15  16
HETATM   16  C12 UNL     1     -32.169  12.667 -12.738  1.00  0.00     0.020 C
BRANCH  16  17
HETATM   17  C13 UNL     1     -31.743  13.112 -11.333  1.00  0.00     0.012 C
BRANCH  17  18
HETATM   18  C14 UNL     1     -30.318  12.618 -11.086  1.00  0.00     0.085 C
HETATM   19 BR1  UNL     1     -29.136  14.107 -10.728  1.00  0.00    -0.097 Br
ENDBRANCH  17  18
ENDBRANCH  16  17
ENDBRANCH  15  16
ENDBRANCH  13  15
ENDBRANCH   8  11
ENDBRANCH   6   8
BRANCH   5  20
HETATM   20  N2  UNL     1     -32.334  10.474 -18.945  1.00  0.00    -0.336 N
HETATM   21  C7  UNL     1     -30.994  10.126 -18.757  1.00  0.00     0.217 C
HETATM   22  C8  UNL     1     -30.363   9.101 -19.659  1.00  0.00     0.117 C
HETATM   23  O1  UNL     1     -30.305  10.652 -17.847  1.00  0.00    -0.274 OA
ATOM     24  H2  UNL     1     -32.776   9.991 -19.727  1.00  0.00     0.168 HD
ENDBRANCH   5  20
BRANCH   1  25
HETATM   25  C2  UNL     1     -34.879  15.102 -19.071  1.00  0.00     0.235 C
HETATM   26  C1  UNL     1     -35.942  14.722 -20.094  1.00  0.00     0.035 C
ENDBRANCH   1  25
TORSDOF 9
ENDMDL