MODEL 2
REMARK VINA RESULT: -6.330687312      3.132      5.407
REMARK  11 active torsions:
REMARK  status: ('A' for Active; 'I' for Inactive)
REMARK    1  A    between atoms: C3_3  and  C4_4
REMARK    2  A    between atoms: C5_5  and  C6_6
REMARK    3  A    between atoms: C6_6  and  C7_7
REMARK       I    between atoms: C7_7  and  N1_9
REMARK    4  A    between atoms: N1_9  and  C8_11
REMARK    5  A    between atoms: C8_11  and  C9_12
REMARK    6  A    between atoms: C10_13  and  C11_14
REMARK    7  A    between atoms: C11_14  and  N2_15
REMARK       I    between atoms: N2_15  and  C12_17
REMARK       I    between atoms: N4_19  and  C13_21
REMARK    8  A    between atoms: C13_21  and  C14_23
REMARK    9  A    between atoms: C14_23  and  C15_24
REMARK   10  A    between atoms: C15_24  and  C16_25
REMARK   11  A    between atoms: C16_25  and  C17_26
ROOT
HETATM    1  C1  UNL     1     -27.337  16.103 -11.937  1.00  0.00     0.013 C
HETATM    2  C2  UNL     1     -27.864  15.228 -11.305  1.00  0.00    -0.105 C
HETATM    3  C3  UNL     1     -28.516  14.137 -10.547  1.00  0.00     0.186 C
ENDROOT
BRANCH   3   4
HETATM    4  C4  UNL     1     -29.690  13.736 -11.338  1.00  0.00    -0.094 C
HETATM    5  C5  UNL     1     -30.658  13.427 -11.987  1.00  0.00    -0.096 C
BRANCH   5   6
HETATM    6  C6  UNL     1     -31.836  13.077 -12.782  1.00  0.00     0.196 C
BRANCH   6   7
HETATM    7  C7  UNL     1     -31.716  11.715 -13.347  1.00  0.00     0.229 C
HETATM    8  O1  UNL     1     -31.178  10.812 -12.672  1.00  0.00    -0.273 OA
HETATM    9  N1  UNL     1     -32.214  11.450 -14.650  1.00  0.00    -0.350 N
ATOM     10  H1  UNL     1     -32.650  12.202 -15.184  1.00  0.00     0.163 HD
BRANCH   9  11
HETATM   11  C8  UNL     1     -32.112  10.127 -15.233  1.00  0.00     0.217 C
BRANCH  11  12
HETATM   12  C9  UNL     1     -31.355  10.301 -16.497  1.00  0.00    -0.085 C
HETATM   13  C10 UNL     1     -30.744  10.422 -17.529  1.00  0.00    -0.085 C
BRANCH  13  14
HETATM   14  C11 UNL     1     -29.986  10.553 -18.774  1.00  0.00     0.216 C
BRANCH  14  15
HETATM   15  N2  UNL     1     -30.196  11.880 -19.354  1.00  0.00    -0.354 N
HETATM   16  C12 UNL     1     -29.997  13.069 -18.644  1.00  0.00     0.191 C
HETATM   17  N3  UNL     1     -28.801  13.283 -17.933  1.00  0.00    -0.063 NA
HETATM   18  N4  UNL     1     -30.904  13.973 -18.636  1.00  0.00    -0.301 N
HETATM   19  C13 UNL     1     -32.122  13.767 -19.353  1.00  0.00     0.224 C
ATOM     20  H4  UNL     1     -30.757  14.840 -18.117  1.00  0.00     0.171 HD
HETATM   21  O2  UNL     1     -32.238  14.361 -20.438  1.00  0.00    -0.273 OA
ATOM     22  H2  UNL     1     -30.502  11.941 -20.325  1.00  0.00     0.163 HD
BRANCH  19  23
HETATM   23  C14 UNL     1     -33.202  12.904 -18.854  1.00  0.00     0.103 C
BRANCH  23  24
HETATM   24  C15 UNL     1     -34.356  12.846 -19.803  1.00  0.00     0.010 C
BRANCH  24  25
HETATM   25  C16 UNL     1     -35.540  13.616 -19.292  1.00  0.00     0.011 C
BRANCH  25  26
HETATM   26  C17 UNL     1     -35.737  14.871 -20.147  1.00  0.00     0.085 C
HETATM   27 BR1  UNL     1     -34.932  16.379 -19.226  1.00  0.00    -0.097 Br
ENDBRANCH  25  26
ENDBRANCH  24  25
ENDBRANCH  23  24
ENDBRANCH  19  23
ENDBRANCH  14  15
ENDBRANCH  13  14
ENDBRANCH  11  12
ENDBRANCH   9  11
ENDBRANCH   6   7
ENDBRANCH   5   6
ENDBRANCH   3   4
TORSDOF 11
ENDMDL