MODEL 3
REMARK VINA RESULT: -6.432076640      1.858      7.418
REMARK  10 active torsions:
REMARK  status: ('A' for Active; 'I' for Inactive)
REMARK    1  A    between atoms: C2_2  and  C3_3
REMARK    2  A    between atoms: C3_3  and  C4_4
REMARK    3  A    between atoms: C5_5  and  C6_6
REMARK    4  A    between atoms: C6_6  and  N1_7
REMARK       I    between atoms: N1_7  and  C7_9
REMARK    5  A    between atoms: C7_9  and  C8_11
REMARK    6  A    between atoms: C8_11  and  C9_13
REMARK    7  A    between atoms: C8_11  and  N4_23
REMARK       I    between atoms: C9_13  and  N2_15
REMARK    8  A    between atoms: N2_15  and  C10_17
REMARK    9  A    between atoms: C10_17  and  C11_18
REMARK   10  A    between atoms: C11_18  and  N3_19
ROOT
HETATM    1  C8  UNL     1     -31.824  11.695 -18.302  1.00  0.00     0.249 C
HETATM    2 BR1  UNL     1     -33.394  11.093 -19.338  1.00  0.00    -0.041 Br
ENDROOT
BRANCH   1   3
HETATM    3  C7  UNL     1     -31.939  13.196 -18.339  1.00  0.00     0.267 C
HETATM    4  N1  UNL     1     -32.360  13.922 -19.472  1.00  0.00    -0.347 N
ATOM      5  H1  UNL     1     -32.614  13.447 -20.338  1.00  0.00     0.163 HD
HETATM    6  O1  UNL     1     -31.643  13.864 -17.290  1.00  0.00    -0.269 OA
BRANCH   4   7
HETATM    7  C6  UNL     1     -32.422  15.382 -19.362  1.00  0.00     0.217 C
BRANCH   7   8
HETATM    8  C5  UNL     1     -33.835  15.799 -19.400  1.00  0.00    -0.087 C
HETATM    9  C4  UNL     1     -34.991  16.143 -19.454  1.00  0.00    -0.105 C
BRANCH   9  10
HETATM   10  C3  UNL     1     -36.397  16.542 -19.527  1.00  0.00     0.093 C
BRANCH  10  11
HETATM   11  C2  UNL     1     -36.610  17.602 -20.601  1.00  0.00     0.007 C
HETATM   12  C1  UNL     1     -37.877  18.353 -20.284  1.00  0.00     0.006 C
ENDBRANCH  10  11
ENDBRANCH   9  10
ENDBRANCH   7   8
ENDBRANCH   4   7
ENDBRANCH   1   3
BRANCH   1  13
HETATM   13  C9  UNL     1     -32.067  11.275 -16.908  1.00  0.00     0.267 C
HETATM   14  O2  UNL     1     -33.181  10.744 -16.675  1.00  0.00    -0.269 OA
HETATM   15  N2  UNL     1     -31.175  11.413 -15.823  1.00  0.00    -0.356 N
ATOM     16  H2  UNL     1     -30.267  11.841 -16.003  1.00  0.00     0.162 HD
BRANCH  15  17
HETATM   17  C10 UNL     1     -31.464  10.989 -14.483  1.00  0.00     0.150 C
BRANCH  17  18
HETATM   18  C11 UNL     1     -32.086  12.011 -13.596  1.00  0.00     0.255 C
BRANCH  18  19
HETATM   19  N3  UNL     1     -31.260  12.530 -12.558  1.00  0.00    -0.077 N
HETATM   20  C12 UNL     1     -30.233  13.451 -13.070  1.00  0.00     0.271 C
HETATM   21  C13 UNL     1     -30.583  11.576 -11.741  1.00  0.00     0.271 C
HETATM   22  C14 UNL     1     -32.089  13.350 -11.666  1.00  0.00     0.271 C
ENDBRANCH  18  19
ENDBRANCH  17  18
ENDBRANCH  15  17
ENDBRANCH   1  13
BRANCH   1  23
HETATM   23  N4  UNL     1     -30.697  11.177 -18.947  1.00  0.00    -0.388 N
HETATM   24  C15 UNL     1     -29.496  11.918 -18.995  1.00  0.00     0.145 C
HETATM   25  C16 UNL     1     -30.554   9.760 -18.983  1.00  0.00     0.145 C
ENDBRANCH   1  23
TORSDOF 10
ENDMDL