MODEL 1
REMARK VINA RESULT: -6.581181314      0.000      0.000
REMARK  9 active torsions:
REMARK  status: ('A' for Active; 'I' for Inactive)
REMARK    1  A    between atoms: C2_2  and  C3_3
REMARK    2  A    between atoms: C3_3  and  C4_4
REMARK    3  A    between atoms: C4_4  and  C5_5
REMARK    4  A    between atoms: C5_5  and  C6_6
REMARK    5  A    between atoms: C6_6  and  C7_7
REMARK    6  A    between atoms: C7_7  and  C8_8
REMARK    7  A    between atoms: C10_13  and  N2_14
REMARK    8  A    between atoms: C12_19  and  C13_20
REMARK    9  A    between atoms: N5_22  and  C15_24
ROOT
HETATM    1  C8  UNL     1     -33.387  12.691 -18.761  1.00  0.00     0.291 C
HETATM    2  N1  UNL     1     -34.519  12.338 -19.508  1.00  0.00    -0.331 N
ATOM      3  H1  UNL     1     -34.690  11.366 -19.766  1.00  0.00     0.164 HD
HETATM    4  C9  UNL     1     -35.419  13.353 -19.894  1.00  0.00     0.244 C
HETATM    5  O1  UNL     1     -36.678  13.223 -19.966  1.00  0.00    -0.271 OA
HETATM    6  C10 UNL     1     -34.806  14.628 -20.229  1.00  0.00     0.211 C
HETATM    7  C12 UNL     1     -33.456  14.917 -19.616  1.00  0.00     0.253 C
HETATM    8  N5  UNL     1     -32.610  13.797 -19.370  1.00  0.00    -0.040 N
HETATM    9  C14 UNL     1     -31.711  14.116 -18.287  1.00  0.00     0.276 C
ENDROOT
BRANCH   1  10
HETATM   10  C7  UNL     1     -32.615  11.546 -18.310  1.00  0.00     0.055 C
BRANCH  10  11
HETATM   11  C6  UNL     1     -33.017  10.908 -17.031  1.00  0.00     0.004 C
BRANCH  11  12
HETATM   12  C5  UNL     1     -32.012  10.387 -16.095  1.00  0.00     0.000 C
BRANCH  12  13
HETATM   13  C4  UNL     1     -31.583  11.488 -15.082  1.00  0.00     0.000 C
BRANCH  13  14
HETATM   14  C3  UNL     1     -31.580  10.794 -13.738  1.00  0.00    -0.000 C
BRANCH  14  15
HETATM   15  C2  UNL     1     -31.294  11.736 -12.609  1.00  0.00    -0.005 C
HETATM   16  C1  UNL     1     -32.019  13.053 -12.754  1.00  0.00     0.005 C
ENDBRANCH  14  15
ENDBRANCH  13  14
ENDBRANCH  12  13
ENDBRANCH  11  12
ENDBRANCH  10  11
ENDBRANCH   1  10
BRANCH   8  17
HETATM   17  C15 UNL     1     -32.029  13.274 -20.548  1.00  0.00     0.236 C
HETATM   18  C16 UNL     1     -30.545  13.216 -20.642  1.00  0.00     0.035 C
ENDBRANCH   8  17
BRANCH   7  19
HETATM   19  C13 UNL     1     -32.959  15.988 -20.491  1.00  0.00     0.065 C
HETATM   20 BR1  UNL     1     -32.692  17.737 -19.909  1.00  0.00    -0.066 Br
ENDBRANCH   7  19
BRANCH   6  21
HETATM   21  N2  UNL     1     -35.699  15.756 -20.076  1.00  0.00    -0.351 N
HETATM   22  C11 UNL     1     -36.301  16.263 -21.107  1.00  0.00     0.197 C
HETATM   23  N3  UNL     1     -37.182  17.371 -20.973  1.00  0.00    -0.067 NA
HETATM   24  N4  UNL     1     -36.122  15.752 -22.427  1.00  0.00    -0.067 NA
ATOM     25  H2  UNL     1     -35.858  16.154 -19.150  1.00  0.00     0.162 HD
ENDBRANCH   6  21
TORSDOF 9
ENDMDL