MODEL 2
REMARK VINA RESULT: -6.998988969      1.525      1.958
REMARK  8 active torsions:
REMARK  status: ('A' for Active; 'I' for Inactive)
REMARK    1  A    between atoms: C3_3  and  C4_4
REMARK    2  A    between atoms: C6_7  and  C7_8
REMARK    3  A    between atoms: C7_8  and  C8_16
REMARK    4  A    between atoms: N1_9  and  N2_11
REMARK    5  A    between atoms: C11_21  and  N5_22
REMARK    6  A    between atoms: N5_22  and  C12_24
REMARK    7  A    between atoms: C12_24  and  C13_25
REMARK    8  A    between atoms: C13_25  and  N6_26
ROOT
HETATM    1  C8  UNL     1     -34.016  13.428 -20.017  1.00  0.00     0.117 A
HETATM    2  C9  UNL     1     -34.919  13.658 -19.067  1.00  0.00     0.129 A
HETATM    3  N4  UNL     1     -35.816  14.681 -19.436  1.00  0.00    -0.343 N
ATOM      4  H4  UNL     1     -36.595  15.045 -18.888  1.00  0.00     0.167 HD
HETATM    5  C10 UNL     1     -35.404  15.098 -20.733  1.00  0.00     0.163 A
HETATM    6  C11 UNL     1     -35.975  16.052 -21.469  1.00  0.00     0.140 C
HETATM    7  O1  UNL     1     -34.315  14.309 -21.035  1.00  0.00    -0.289 OA
ENDROOT
BRANCH   1   8
HETATM    8  C7  UNL     1     -32.931  12.475 -20.041  1.00  0.00     0.068 C
HETATM    9  N1  UNL     1     -31.786  12.881 -20.431  1.00  0.00    -0.288 N
ATOM     10  H1  UNL     1     -31.014  12.215 -20.452  1.00  0.00     0.188 HD
BRANCH   8  11
HETATM   11  C6  UNL     1     -33.073  11.066 -19.643  1.00  0.00     0.064 A
HETATM   12  C4  UNL     1     -33.130  10.542 -18.298  1.00  0.00     0.034 A
HETATM   13  C5  UNL     1     -31.952  10.184 -19.271  1.00  0.00     0.077 A
HETATM   14 BR1  UNL     1     -30.210  10.841 -18.874  1.00  0.00    -0.090 Br
BRANCH  12  15
HETATM   15  C3  UNL     1     -32.605  11.097 -17.058  1.00  0.00    -0.024 C
HETATM   16  C2  UNL     1     -32.561  10.584 -15.863  1.00  0.00    -0.034 C
HETATM   17  C1  UNL     1     -31.985  11.288 -14.689  1.00  0.00     0.036 C
ENDBRANCH  12  15
ENDBRANCH   8  11
BRANCH   9  18
HETATM   18  N2  UNL     1     -31.545  14.193 -20.829  1.00  0.00    -0.249 N
HETATM   19  N3  UNL     1     -31.273  15.129 -20.020  1.00  0.00    -0.331 N
ATOM     20  H32 UNL     1     -31.232  14.892 -19.028  1.00  0.00     0.178 HD
ATOM     21  H31 UNL     1     -31.095  16.090 -20.311  1.00  0.00     0.178 HD
ATOM     22  H2  UNL     1     -31.589  14.411 -21.825  1.00  0.00     0.207 HD
ENDBRANCH   9  18
ENDBRANCH   1   8
BRANCH   6  23
HETATM   23  N5  UNL     1     -37.089  16.754 -20.987  1.00  0.00    -0.394 N
ATOM     24  H5  UNL     1     -37.051  17.127 -20.038  1.00  0.00     0.159 HD
BRANCH  23  25
HETATM   25  C12 UNL     1     -38.292  16.979 -21.765  1.00  0.00     0.147 C
BRANCH  25  26
HETATM   26  C13 UNL     1     -37.955  17.373 -23.176  1.00  0.00     0.255 C
BRANCH  26  27
HETATM   27  N6  UNL     1     -38.124  18.754 -23.458  1.00  0.00    -0.077 N
HETATM   28  C14 UNL     1     -38.684  18.968 -24.801  1.00  0.00     0.271 C
HETATM   29  C15 UNL     1     -36.847  19.475 -23.458  1.00  0.00     0.271 C
HETATM   30  C16 UNL     1     -38.996  19.449 -22.538  1.00  0.00     0.271 C
ENDBRANCH  26  27
ENDBRANCH  25  26
ENDBRANCH  23  25
ENDBRANCH   6  23
TORSDOF 8
ENDMDL