MODEL 3
REMARK VINA RESULT: -5.928006351      2.234      3.062
REMARK  9 active torsions:
REMARK  status: ('A' for Active; 'I' for Inactive)
REMARK    1  A    between atoms: C3_3  and  C4_4
REMARK       I    between atoms: C4_4  and  N1_6
REMARK    2  A    between atoms: N1_6  and  C5_8
REMARK    3  A    between atoms: C5_8  and  C6_9
REMARK    4  A    between atoms: C6_9  and  C8_11
REMARK    5  A    between atoms: C6_9  and  N4_21
REMARK    6  A    between atoms: C8_11  and  N2_12
REMARK       I    between atoms: N2_12  and  C9_14
REMARK    7  A    between atoms: C9_14  and  C10_16
REMARK    8  A    between atoms: C10_16  and  N3_17
REMARK       I    between atoms: N4_21  and  C14_23
REMARK    9  A    between atoms: C14_23  and  C15_25
ROOT
HETATM    1  C1  UNL     1     -31.329  12.034 -10.922  1.00  0.00     0.112 C
HETATM    2  C2  UNL     1     -31.247  12.480 -12.314  1.00  0.00    -0.101 C
HETATM    3  C3  UNL     1     -31.192  12.839 -13.464  1.00  0.00    -0.006 C
ENDROOT
BRANCH   3   4
HETATM    4  C4  UNL     1     -31.111  13.293 -14.846  1.00  0.00     0.296 C
HETATM    5  O1  UNL     1     -30.813  14.480 -15.082  1.00  0.00    -0.258 OA
HETATM    6  N1  UNL     1     -31.367  12.399 -15.914  1.00  0.00    -0.348 N
ATOM      7  H1  UNL     1     -31.610  11.428 -15.721  1.00  0.00     0.163 HD
BRANCH   6   8
HETATM    8  C5  UNL     1     -31.283  12.863 -17.259  1.00  0.00     0.156 C
BRANCH   8   9
HETATM    9  C6  UNL     1     -30.754  11.646 -18.114  1.00  0.00     0.061 C
HETATM   10  C7  UNL     1     -30.472  10.484 -17.236  1.00  0.00     0.042 C
BRANCH   9  11
HETATM   11  C8  UNL     1     -31.814  11.472 -19.127  1.00  0.00     0.154 C
BRANCH  11  12
HETATM   12  N2  UNL     1     -33.022  12.183 -18.888  1.00  0.00    -0.357 N
HETATM   13  C9  UNL     1     -33.650  12.952 -19.944  1.00  0.00     0.243 C
HETATM   14  O2  UNL     1     -33.135  12.996 -21.069  1.00  0.00    -0.272 OA
ATOM     15  H2  UNL     1     -33.451  12.151 -17.963  1.00  0.00     0.162 HD
BRANCH  13  16
HETATM   16  C10 UNL     1     -34.894  13.673 -19.662  1.00  0.00     0.338 C
BRANCH  16  17
HETATM   17  N3  UNL     1     -34.634  15.086 -19.568  1.00  0.00    -0.070 N
HETATM   18  C11 UNL     1     -35.873  15.734 -19.159  1.00  0.00     0.272 C
HETATM   19  C12 UNL     1     -33.574  15.318 -18.632  1.00  0.00     0.272 C
HETATM   20  C13 UNL     1     -34.241  15.622 -20.877  1.00  0.00     0.272 C
ENDBRANCH  16  17
ENDBRANCH  13  16
ENDBRANCH  11  12
ENDBRANCH   9  11
BRANCH   9  21
HETATM   21  N4  UNL     1     -29.494  12.177 -18.606  1.00  0.00    -0.348 N
HETATM   22  C14 UNL     1     -28.380  12.638 -17.946  1.00  0.00     0.228 C
HETATM   23  O3  UNL     1     -28.215  12.708 -16.730  1.00  0.00    -0.273 OA
ATOM     24  H4  UNL     1     -29.424  12.214 -19.623  1.00  0.00     0.163 HD
BRANCH  22  25
HETATM   25  C15 UNL     1     -27.199  13.120 -18.765  1.00  0.00     0.187 C
HETATM   26 BR1  UNL     1     -25.576  13.123 -17.742  1.00  0.00    -0.087 Br
ENDBRANCH  22  25
ENDBRANCH   9  21
ENDBRANCH   8   9
ENDBRANCH   6   8
ENDBRANCH   3   4
TORSDOF 9
ENDMDL