MODEL 3
REMARK VINA RESULT: -6.736533111      2.492      3.576
REMARK  11 active torsions:
REMARK  status: ('A' for Active; 'I' for Inactive)
REMARK    1  A    between atoms: C2_2  and  C3_4
REMARK    2  A    between atoms: C3_4  and  C4_5
REMARK    3  A    between atoms: C4_5  and  C5_6
REMARK    4  A    between atoms: C5_6  and  C6_7
REMARK    5  A    between atoms: C8_11  and  C9_12
REMARK    6  A    between atoms: C9_12  and  N2_13
REMARK       I    between atoms: N2_13  and  C10_14
REMARK    7  A    between atoms: C10_14  and  C11_16
REMARK    8  A    between atoms: C12_17  and  C13_18
REMARK    9  A    between atoms: C13_18  and  C14_19
REMARK   10  A    between atoms: C14_19  and  C15_20
REMARK   11  A    between atoms: C15_20  and  N3_21
ROOT
HETATM    1  C9  UNL     1     -30.980  12.919 -20.151  1.00  0.00     0.166 C
ENDROOT
BRANCH   1   2
HETATM    2  C8  UNL     1     -31.581  14.214 -19.783  1.00  0.00     0.057 A
HETATM    3  C5  UNL     1     -33.002  14.454 -19.638  1.00  0.00     0.051 A
HETATM    4  C7  UNL     1     -32.121  14.253 -18.342  1.00  0.00     0.032 A
BRANCH   3   5
HETATM    5  C4  UNL     1     -33.515  15.924 -19.613  1.00  0.00     0.048 C
BRANCH   5   6
HETATM    6  C3  UNL     1     -33.648  16.372 -20.835  1.00  0.00    -0.007 C
BRANCH   6   7
HETATM    7  C2  UNL     1     -34.856  16.939 -21.374  1.00  0.00    -0.003 C
HETATM    8  C1  UNL     1     -34.778  17.303 -22.715  1.00  0.00     0.031 C
HETATM    9 BR1  UNL     1     -36.404  17.202 -20.369  1.00  0.00    -0.052 Br
ENDBRANCH   6   7
ENDBRANCH   5   6
ENDBRANCH   3   5
BRANCH   3  10
HETATM   10  C6  UNL     1     -34.120  13.536 -19.685  1.00  0.00     0.240 C
HETATM   11  N1  UNL     1     -35.409  13.803 -19.109  1.00  0.00    -0.061 NA
HETATM   12  O1  UNL     1     -34.090  12.376 -20.262  1.00  0.00    -0.276 OA
ENDBRANCH   3  10
ENDBRANCH   1   2
BRANCH   1  13
HETATM   13  N2  UNL     1     -30.857  11.792 -19.356  1.00  0.00    -0.376 NA
HETATM   14  C10 UNL     1     -30.741  10.732 -18.607  1.00  0.00     0.370 C
HETATM   15  O2  UNL     1     -30.331   9.536 -18.859  1.00  0.00    -0.241 OA
BRANCH  14  16
HETATM   16  C11 UNL     1     -31.127  10.760 -17.142  1.00  0.00     0.010 C
HETATM   17  C12 UNL     1     -31.426  10.698 -15.987  1.00  0.00    -0.095 C
BRANCH  17  18
HETATM   18  C13 UNL     1     -31.797  10.512 -14.592  1.00  0.00     0.097 C
BRANCH  18  19
HETATM   19  C14 UNL     1     -31.584  11.769 -13.785  1.00  0.00     0.048 C
BRANCH  19  20
HETATM   20  C15 UNL     1     -31.110  11.354 -12.407  1.00  0.00     0.311 C
BRANCH  20  21
HETATM   21  N3  UNL     1     -30.692  12.434 -11.567  1.00  0.00     0.005 N
HETATM   22  C16 UNL     1     -29.868  13.348 -12.333  1.00  0.00     0.355 C
HETATM   23  C17 UNL     1     -31.764  13.169 -10.981  1.00  0.00     0.355 C
HETATM   24  O3  UNL     1     -29.879  11.978 -10.568  1.00  0.00    -0.065 OA
ENDBRANCH  20  21
ENDBRANCH  19  20
ENDBRANCH  18  19
ENDBRANCH  17  18
ENDBRANCH  14  16
ENDBRANCH   1  13
TORSDOF 11
ENDMDL