MODEL 1
REMARK VINA RESULT: -5.784375354      0.000      0.000
REMARK  7 active torsions:
REMARK  status: ('A' for Active; 'I' for Inactive)
REMARK    1  A    between atoms: C3_3  and  N1_4
REMARK       I    between atoms: N1_4  and  C4_6
REMARK       I    between atoms: C4_6  and  N2_8
REMARK    2  A    between atoms: C5_9  and  C6_10
REMARK    3  A    between atoms: N3_15  and  C9_16
REMARK    4  A    between atoms: C9_16  and  C10_17
REMARK    5  A    between atoms: C9_16  and  C14_21
REMARK    6  A    between atoms: C10_17  and  C11_18
REMARK    7  A    between atoms: C11_18  and  C12_19
REMARK       I    between atoms: C14_21  and  N4_23
ROOT
HETATM    1  C1  UNL     1     -28.693  14.261 -12.031  1.00  0.00     0.014 C
HETATM    2  C2  UNL     1     -29.625  14.003 -12.742  1.00  0.00    -0.098 C
HETATM    3  C3  UNL     1     -30.754  13.708 -13.601  1.00  0.00     0.218 C
ENDROOT
BRANCH   3   4
HETATM    4  N1  UNL     1     -30.336  13.120 -14.880  1.00  0.00    -0.331 N
HETATM    5  C4  UNL     1     -31.042  12.052 -15.445  1.00  0.00     0.339 C
HETATM    6  O1  UNL     1     -32.053  11.649 -14.767  1.00  0.00    -0.245 OA
HETATM    7  N2  UNL     1     -30.744  11.402 -16.664  1.00  0.00    -0.219 N
HETATM    8  C5  UNL     1     -31.476  10.279 -17.292  1.00  0.00     0.230 C
HETATM    9  N3  UNL     1     -29.823  11.440 -17.711  1.00  0.00    -0.238 N
HETATM   10  C8  UNL     1     -30.353  10.210 -18.194  1.00  0.00     0.268 C
HETATM   11  O2  UNL     1     -29.986   9.382 -19.066  1.00  0.00    -0.269 OA
ATOM     12  H1  UNL     1     -29.520  13.495 -15.364  1.00  0.00     0.165 HD
BRANCH   8  13
HETATM   13  C6  UNL     1     -32.765  10.660 -17.869  1.00  0.00     0.017 C
HETATM   14  C7  UNL     1     -32.836  11.516 -18.870  1.00  0.00     0.054 C
HETATM   15 BR1  UNL     1     -34.479  12.057 -19.669  1.00  0.00    -0.064 Br
ENDBRANCH   8  13
BRANCH   9  16
HETATM   16  C9  UNL     1     -28.785  12.308 -18.181  1.00  0.00     0.203 C
BRANCH  16  17
HETATM   17  C10 UNL     1     -29.211  13.704 -18.508  1.00  0.00     0.037 C
BRANCH  17  18
HETATM   18  C11 UNL     1     -30.198  13.667 -19.655  1.00  0.00     0.002 C
BRANCH  18  19
HETATM   19  C12 UNL     1     -31.348  14.620 -19.444  1.00  0.00    -0.004 C
HETATM   20  C13 UNL     1     -32.183  14.792 -20.694  1.00  0.00     0.005 C
ENDBRANCH  18  19
ENDBRANCH  17  18
ENDBRANCH  16  17
BRANCH  16  21
HETATM   21  C14 UNL     1     -27.583  12.332 -17.277  1.00  0.00     0.242 C
HETATM   22  O3  UNL     1     -27.768  12.734 -16.106  1.00  0.00    -0.271 OA
HETATM   23  N4  UNL     1     -26.292  11.941 -17.661  1.00  0.00    -0.364 N
HETATM   24  C15 UNL     1     -25.203  11.998 -16.733  1.00  0.00     0.149 C
ATOM     25  H4  UNL     1     -26.127  11.613 -18.612  1.00  0.00     0.161 HD
ENDBRANCH  16  21
ENDBRANCH   9  16
ENDBRANCH   3   4
TORSDOF 7
ENDMDL