MODEL 1
REMARK VINA RESULT: -6.211701989      0.000      0.000
REMARK  10 active torsions:
REMARK  status: ('A' for Active; 'I' for Inactive)
REMARK    1  A    between atoms: C2_2  and  C3_3
REMARK    2  A    between atoms: C3_3  and  C4_4
REMARK    3  A    between atoms: C4_4  and  C5_5
REMARK    4  A    between atoms: C5_5  and  N1_6
REMARK       I    between atoms: N1_6  and  C6_8
REMARK    5  A    between atoms: C6_8  and  C7_10
REMARK    6  A    between atoms: C9_12  and  C10_13
REMARK       I    between atoms: C10_13  and  N2_15
REMARK    7  A    between atoms: N3_19  and  C13_20
REMARK    8  A    between atoms: C13_20  and  N4_22
REMARK    9  A    between atoms: N4_22  and  C14_24
REMARK   10  A    between atoms: C14_24  and  C15_25
ROOT
HETATM    1  C7  UNL     1     -33.225  12.488 -19.544  1.00  0.00     0.182 C
HETATM    2  C8  UNL     1     -34.343  13.348 -18.990  1.00  0.00     0.070 C
HETATM    3  C9  UNL     1     -33.371  14.445 -19.177  1.00  0.00     0.182 C
HETATM    4  N3  UNL     1     -32.299  13.465 -19.131  1.00  0.00    -0.331 N
ENDROOT
BRANCH   1   5
HETATM    5  C6  UNL     1     -33.289  11.188 -18.799  1.00  0.00     0.244 C
HETATM    6  N1  UNL     1     -33.169  11.228 -17.415  1.00  0.00    -0.339 N
ATOM      7  H1  UNL     1     -33.069  12.180 -17.064  1.00  0.00     0.167 HD
HETATM    8  O1  UNL     1     -33.444  10.159 -19.446  1.00  0.00    -0.271 OA
BRANCH   6   9
HETATM    9  C5  UNL     1     -33.152  10.276 -16.379  1.00  0.00     0.064 C
BRANCH   9  10
HETATM   10  C4  UNL     1     -32.025  10.295 -15.452  1.00  0.00     0.048 C
BRANCH  10  11
HETATM   11  C3  UNL     1     -31.893  11.370 -14.469  1.00  0.00     0.031 C
BRANCH  11  12
HETATM   12  C2  UNL     1     -31.456  10.894 -13.146  1.00  0.00    -0.037 C
HETATM   13  C1  UNL     1     -31.091  11.657 -12.146  1.00  0.00     0.007 C
ENDBRANCH  11  12
ENDBRANCH  10  11
ENDBRANCH   9  10
ENDBRANCH   6   9
ENDBRANCH   1   5
BRANCH   4  14
HETATM   14  C13 UNL     1     -30.917  13.680 -18.802  1.00  0.00     0.171 C
HETATM   15  S1  UNL     1     -30.363  13.481 -17.254  1.00  0.00    -0.041 SA
BRANCH  14  16
HETATM   16  N4  UNL     1     -29.933  14.059 -19.753  1.00  0.00    -0.366 N
ATOM     17  H4  UNL     1     -30.150  14.865 -20.339  1.00  0.00     0.161 HD
BRANCH  16  18
HETATM   18  C14 UNL     1     -28.678  13.429 -19.973  1.00  0.00     0.133 C
BRANCH  18  19
HETATM   19  C15 UNL     1     -27.463  14.180 -19.574  1.00  0.00     0.104 C
HETATM   20 BR1  UNL     1     -26.387  13.260 -18.276  1.00  0.00    -0.095 Br
ENDBRANCH  18  19
ENDBRANCH  16  18
ENDBRANCH  14  16
ENDBRANCH   4  14
BRANCH   3  21
HETATM   21  C10 UNL     1     -33.505  15.072 -20.530  1.00  0.00     0.244 C
HETATM   22  O2  UNL     1     -32.502  15.626 -21.040  1.00  0.00    -0.271 OA
HETATM   23  N2  UNL     1     -34.716  15.069 -21.261  1.00  0.00    -0.339 N
HETATM   24  C11 UNL     1     -35.573  16.036 -21.208  1.00  0.00     0.059 C
ATOM     25  H2  UNL     1     -34.922  14.268 -21.857  1.00  0.00     0.167 HD
HETATM   26  C12 UNL     1     -35.336  17.222 -20.366  1.00  0.00     0.055 C
ENDBRANCH   3  21
TORSDOF 10
ENDMDL