MODEL 5
REMARK VINA RESULT: -6.896025925      4.552      9.410
REMARK  5 active torsions:
REMARK  status: ('A' for Active; 'I' for Inactive)
REMARK    1  A    between atoms: C3_5  and  C4_6
REMARK    2  A    between atoms: C4_6  and  C5_7
REMARK    3  A    between atoms: C5_7  and  N2_8
REMARK    4  A    between atoms: N5_15  and  C8_17
REMARK    5  A    between atoms: C8_17  and  C9_18
ROOT
HETATM    1  N2  UNL     1     -27.471  17.816  -2.917  1.00  0.00    -0.328 N
ATOM      2  H2  UNL     1     -28.469  17.610  -2.872  1.00  0.00     0.171 HD
HETATM    3  C6  UNL     1     -27.035  19.138  -2.794  1.00  0.00     0.177 C
HETATM    4  N3  UNL     1     -26.662  20.227  -2.698  1.00  0.00    -0.172 NA
ENDROOT
BRANCH   1   5
HETATM    5  C5  UNL     1     -26.532  16.739  -3.108  1.00  0.00     0.139 C
BRANCH   5   6
HETATM    6  C4  UNL     1     -26.354  16.557  -4.593  1.00  0.00     0.097 C
BRANCH   6   7
HETATM    7  C3  UNL     1     -26.897  15.256  -5.073  1.00  0.00     0.100 A
HETATM    8  N1  UNL     1     -27.340  14.390  -4.146  1.00  0.00    -0.335 N
HETATM    9  C2  UNL     1     -27.829  13.200  -4.585  1.00  0.00     0.094 A
ATOM     10  H1  UNL     1     -27.311  14.617  -3.152  1.00  0.00     0.168 HD
HETATM   11  C1  UNL     1     -28.345  12.181  -3.612  1.00  0.00     0.089 C
HETATM   12  N7  UNL     1     -27.854  12.928  -5.897  1.00  0.00    -0.181 N
HETATM   13  C7  UNL     1     -27.412  13.791  -6.828  1.00  0.00     0.681 A
ATOM     14  H7  UNL     1     -28.224  12.028  -6.203  1.00  0.00     0.185 HD
HETATM   15  N4  UNL     1     -26.927  14.977  -6.384  1.00  0.00    -0.180 N
HETATM   16  N5  UNL     1     -27.429  13.545  -8.099  1.00  0.00    -0.220 N
ATOM     17  H4  UNL     1     -26.581  15.664  -7.054  1.00  0.00     0.185 HD
ATOM     18  H5  UNL     1     -27.070  14.268  -8.723  1.00  0.00     0.178 HD
BRANCH  16  19
HETATM   19  C8  UNL     1     -27.915  12.331  -8.698  1.00  0.00     0.195 C
BRANCH  19  20
HETATM   20  C9  UNL     1     -26.996  11.957  -9.835  1.00  0.00     0.029 A
HETATM   21  C10 UNL     1     -25.678  11.580  -9.738  1.00  0.00     0.048 A
HETATM   22  C11 UNL     1     -25.165  11.307 -10.988  1.00  0.00     0.046 A
HETATM   23 BR1  UNL     1     -23.380  10.743 -11.430  1.00  0.00    -0.048 Br
HETATM   24  C12 UNL     1     -26.209  11.528 -11.861  1.00  0.00     0.097 A
HETATM   25 BR2  UNL     1     -26.096  11.309 -13.744  1.00  0.00    -0.030 Br
HETATM   26  N6  UNL     1     -27.293  11.916 -11.146  1.00  0.00    -0.351 N
ATOM     27  H6  UNL     1     -28.203  12.144 -11.546  1.00  0.00     0.166 HD
ENDBRANCH  19  20
ENDBRANCH  16  19
ENDBRANCH   6   7
ENDBRANCH   5   6
ENDBRANCH   1   5
TORSDOF 5
ENDMDL