MODEL 3
REMARK VINA RESULT: -7.261631432      1.629      2.112
REMARK  6 active torsions:
REMARK  status: ('A' for Active; 'I' for Inactive)
REMARK    1  A    between atoms: C3_3  and  N1_4
REMARK    2  A    between atoms: C6_7  and  C7_8
REMARK    3  A    between atoms: C7_8  and  C8_9
REMARK    4  A    between atoms: C7_8  and  N2_12
REMARK    5  A    between atoms: C8_9  and  O1_10
REMARK    6  A    between atoms: C14_20  and  N3_21
ROOT
HETATM    1  C1  UNL     1     -23.895   9.597 -10.107  1.00  0.00     0.054 C
HETATM    2  C2  UNL     1     -24.837  10.443  -9.311  1.00  0.00     0.010 A
HETATM    3  C3  UNL     1     -25.892  11.133  -9.866  1.00  0.00     0.068 A
HETATM    4  C13 UNL     1     -26.628  11.948  -8.996  1.00  0.00     0.105 A
HETATM    5 CL1  UNL     1     -28.000  12.818  -9.591  1.00  0.00    -0.078 Cl
HETATM    6  C14 UNL     1     -26.333  12.073  -7.649  1.00  0.00     0.130 A
HETATM    7  N5  UNL     1     -25.294  11.370  -7.186  1.00  0.00    -0.327 N
ATOM      8  H5  UNL     1     -25.063  11.448  -6.195  1.00  0.00     0.169 HD
HETATM    9  C20 UNL     1     -24.547  10.573  -7.947  1.00  0.00     0.108 A
HETATM   10  N6  UNL     1     -23.541   9.902  -7.458  1.00  0.00    -0.385 N
ATOM     11  H61 UNL     1     -23.329   9.996  -6.465  1.00  0.00     0.157 HD
ATOM     12  H62 UNL     1     -22.968   9.291  -8.041  1.00  0.00     0.157 HD
ENDROOT
BRANCH   3  13
HETATM   13  N1  UNL     1     -26.303  10.961 -11.217  1.00  0.00    -0.348 N
HETATM   14  C4  UNL     1     -26.117  12.053 -12.189  1.00  0.00     0.126 C
HETATM   15  C5  UNL     1     -25.751  11.313 -13.520  1.00  0.00     0.027 C
HETATM   16  C6  UNL     1     -27.031  10.763 -14.101  1.00  0.00     0.016 C
HETATM   17  C11 UNL     1     -27.845  10.276 -12.957  1.00  0.00     0.066 C
HETATM   18  C12 UNL     1     -27.009   9.819 -11.748  1.00  0.00     0.272 C
HETATM   19  F1  UNL     1     -27.962   9.415 -10.812  1.00  0.00    -0.227 F
BRANCH  16  20
HETATM   20  C7  UNL     1     -26.828   9.813 -15.216  1.00  0.00     0.106 C
BRANCH  20  21
HETATM   21  C8  UNL     1     -27.632   8.516 -15.044  1.00  0.00     0.189 C
BRANCH  21  22
HETATM   22  O1  UNL     1     -26.714   7.434 -15.072  1.00  0.00    -0.399 OA
ATOM     23  H1  UNL     1     -26.884   6.894 -14.310  1.00  0.00     0.209 HD
ENDBRANCH  21  22
ENDBRANCH  20  21
BRANCH  20  24
HETATM   24  N2  UNL     1     -27.081  10.254 -16.537  1.00  0.00    -0.414 N
HETATM   25  C9  UNL     1     -28.348   9.994 -17.120  1.00  0.00     0.143 C
HETATM   26  C10 UNL     1     -25.983  10.004 -17.455  1.00  0.00     0.143 C
ENDBRANCH  20  24
ENDBRANCH  16  20
ENDBRANCH   3  13
BRANCH   6  27
HETATM   27  N3  UNL     1     -27.126  12.932  -6.864  1.00  0.00    -0.353 N
HETATM   28  C15 UNL     1     -28.309  12.952  -6.031  1.00  0.00     0.114 C
HETATM   29  C16 UNL     1     -27.879  12.818  -4.606  1.00  0.00     0.257 C
HETATM   30  C19 UNL     1     -28.483  14.421  -6.427  1.00  0.00     0.054 C
HETATM   31  N4  UNL     1     -27.203  14.023  -4.152  1.00  0.00    -0.071 N
HETATM   32  C17 UNL     1     -26.353  14.544  -5.182  1.00  0.00     0.257 C
ATOM     33  H42 UNL     1     -27.864  14.725  -3.817  1.00  0.00     0.277 HD
ATOM     34  H41 UNL     1     -26.693  13.867  -3.283  1.00  0.00     0.277 HD
HETATM   35  C18 UNL     1     -26.975  14.364  -6.564  1.00  0.00     0.114 C
ENDBRANCH   6  27
TORSDOF 6
ENDMDL