MODEL 4
REMARK VINA RESULT: -8.098538003      5.441      8.318
REMARK  6 active torsions:
REMARK  status: ('A' for Active; 'I' for Inactive)
REMARK    1  A    between atoms: C4_4  and  C5_5
REMARK    2  A    between atoms: N1_8  and  C6_9
REMARK    3  A    between atoms: C9_12  and  N2_13
REMARK    4  A    between atoms: N2_13  and  S1_15
REMARK    5  A    between atoms: S1_15  and  C10_18
REMARK    6  A    between atoms: C16_28  and  N5_29
ROOT
HETATM    1  C1  UNL     1     -27.932  14.140  -7.176  1.00  0.00     0.018 C
HETATM    2  C2  UNL     1     -27.531  13.108  -7.645  1.00  0.00    -0.075 C
HETATM    3  C3  UNL     1     -27.047  11.870  -8.185  1.00  0.00     0.060 A
HETATM    4  C4  UNL     1     -27.565  11.196  -9.297  1.00  0.00     0.066 A
HETATM    5  N1  UNL     1     -26.858  10.088  -9.492  1.00  0.00    -0.327 N
HETATM    6  C14 UNL     1     -25.890  10.043  -8.514  1.00  0.00     0.124 A
HETATM    7  N3  UNL     1     -24.920   9.152  -8.247  1.00  0.00    -0.338 N
ATOM      8  H3  UNL     1     -24.830   8.331  -8.845  1.00  0.00     0.168 HD
HETATM    9  C15 UNL     1     -24.066   9.302  -7.223  1.00  0.00     0.183 A
HETATM   10  N4  UNL     1     -24.163  10.371  -6.420  1.00  0.00    -0.338 N
ATOM     11  H4  UNL     1     -23.516  10.488  -5.641  1.00  0.00     0.168 HD
HETATM   12  C16 UNL     1     -25.114  11.285  -6.646  1.00  0.00     0.115 A
HETATM   13  C17 UNL     1     -25.999  11.136  -7.704  1.00  0.00     0.072 A
ENDROOT
BRANCH   4  14
HETATM   14  C5  UNL     1     -28.690  11.690 -10.063  1.00  0.00     0.229 C
HETATM   15 CL1  UNL     1     -28.290  11.852 -11.815  1.00  0.00    -0.101 Cl
HETATM   16 CL2  UNL     1     -30.068  10.520 -10.053  1.00  0.00    -0.101 Cl
ENDBRANCH   4  14
BRANCH   5  17
HETATM   17  C6  UNL     1     -26.997   9.084 -10.487  1.00  0.00     0.093 C
HETATM   18  C7  UNL     1     -25.768   8.748 -11.253  1.00  0.00     0.028 C
HETATM   19  C8  UNL     1     -25.916   7.258 -11.575  1.00  0.00     0.028 C
HETATM   20  C9  UNL     1     -27.363   6.937 -11.296  1.00  0.00     0.095 C
HETATM   21  C13 UNL     1     -27.564   7.787 -10.029  1.00  0.00     0.051 C
BRANCH  20  22
HETATM   22  N2  UNL     1     -27.648   5.575 -11.082  1.00  0.00    -0.314 N
ATOM     23  H2  UNL     1     -27.343   5.080 -10.245  1.00  0.00     0.172 HD
BRANCH  22  24
HETATM   24  S1  UNL     1     -28.540   4.806 -12.324  1.00  0.00     0.231 S
HETATM   25  O1  UNL     1     -29.998   4.701 -11.972  1.00  0.00    -0.206 OA
HETATM   26  O2  UNL     1     -27.960   3.503 -12.747  1.00  0.00    -0.206 OA
BRANCH  24  27
HETATM   27  C10 UNL     1     -28.475   5.888 -13.761  1.00  0.00     0.129 A
HETATM   28  C11 UNL     1     -29.746   5.894 -14.601  1.00  0.00     0.023 A
HETATM   29  C12 UNL     1     -28.507   5.308 -15.108  1.00  0.00     0.023 A
ENDBRANCH  24  27
ENDBRANCH  22  24
ENDBRANCH  20  22
ENDBRANCH   5  17
BRANCH  12  30
HETATM   30  N5  UNL     1     -25.278  12.347  -5.923  1.00  0.00    -0.385 N
ATOM     31  H52 UNL     1     -25.495  12.182  -4.940  1.00  0.00     0.157 HD
ATOM     32  H51 UNL     1     -25.204  13.297  -6.286  1.00  0.00     0.157 HD
ENDBRANCH  12  30
TORSDOF 6
ENDMDL