MODEL 3
REMARK VINA RESULT: -7.274746526      2.735      3.750
REMARK  8 active torsions:
REMARK  status: ('A' for Active; 'I' for Inactive)
REMARK    1  A    between atoms: C3_7  and  C4_10
REMARK    2  A    between atoms: C3_7  and  C17_30
REMARK    3  A    between atoms: C7_14  and  N3_15
REMARK    4  A    between atoms: N3_15  and  S1_17
REMARK    5  A    between atoms: S1_17  and  C8_20
REMARK    6  A    between atoms: C8_20  and  C9_21
REMARK    7  A    between atoms: C9_21  and  C10_22
REMARK    8  A    between atoms: C14_27  and  C15_28
ROOT
HETATM    1  C4  UNL     1     -25.224  11.874 -11.103  1.00  0.00     0.016 A
HETATM    2  C5  UNL     1     -24.247  11.122 -10.509  1.00  0.00     0.046 A
HETATM    3 CL1  UNL     1     -22.688  11.015 -11.291  1.00  0.00    -0.084 Cl
HETATM    4  C6  UNL     1     -24.484  10.449  -9.296  1.00  0.00     0.057 A
HETATM    5  C7  UNL     1     -25.718  10.552  -8.706  1.00  0.00     0.083 A
HETATM    6  C13 UNL     1     -26.719  11.324  -9.319  1.00  0.00     0.153 A
HETATM    7  F1  UNL     1     -27.935  11.446  -8.771  1.00  0.00    -0.203 F
HETATM    8  C14 UNL     1     -26.465  11.980 -10.516  1.00  0.00     0.023 A
ENDROOT
BRANCH   5   9
HETATM    9  N3  UNL     1     -25.983   9.889  -7.503  1.00  0.00    -0.281 N
ATOM     10  H3  UNL     1     -26.399   8.959  -7.536  1.00  0.00     0.178 HD
BRANCH   9  11
HETATM   11  S1  UNL     1     -25.639  10.577  -5.991  1.00  0.00     0.231 S
HETATM   12  O3  UNL     1     -25.971   9.551  -4.916  1.00  0.00    -0.206 OA
HETATM   13  O4  UNL     1     -24.187  10.936  -5.803  1.00  0.00    -0.206 OA
BRANCH  11  14
HETATM   14  C8  UNL     1     -26.586  12.066  -5.695  1.00  0.00     0.164 C
BRANCH  14  15
HETATM   15  C9  UNL     1     -25.733  13.230  -6.106  1.00  0.00     0.021 C
BRANCH  15  16
HETATM   16  C10 UNL     1     -25.741  14.339  -5.076  1.00  0.00    -0.014 A
HETATM   17  C11 UNL     1     -26.063  15.736  -5.539  1.00  0.00     0.005 A
HETATM   18  C12 UNL     1     -27.002  14.975  -4.652  1.00  0.00     0.005 A
ENDBRANCH  15  16
ENDBRANCH  14  15
ENDBRANCH  11  14
ENDBRANCH   9  11
ENDBRANCH   5   9
BRANCH   8  19
HETATM   19  C15 UNL     1     -27.469  12.813 -11.224  1.00  0.00     0.161 C
HETATM   20  C16 UNL     1     -27.356  12.519 -12.688  1.00  0.00     0.072 C
HETATM   21  C17 UNL     1     -28.204  11.319 -12.314  1.00  0.00     0.168 C
HETATM   22  O5  UNL     1     -28.659  12.047 -11.224  1.00  0.00    -0.372 OA
BRANCH  21  23
HETATM   23  C3  UNL     1     -27.323  10.142 -11.890  1.00  0.00     0.172 C
HETATM   24  C2  UNL     1     -28.172   9.004 -11.552  1.00  0.00     0.261 C
HETATM   25  N1  UNL     1     -28.134   8.078 -12.619  1.00  0.00    -0.277 N
HETATM   26  O2  UNL     1     -28.830   8.855 -10.499  1.00  0.00    -0.270 OA
HETATM   27  C1  UNL     1     -27.165   8.499 -13.564  1.00  0.00     0.324 C
ATOM     28  H1  UNL     1     -28.711   7.242 -12.697  1.00  0.00     0.173 HD
HETATM   29  O1  UNL     1     -26.836   7.946 -14.646  1.00  0.00    -0.247 OA
HETATM   30  N2  UNL     1     -26.584   9.711 -13.078  1.00  0.00    -0.318 N
ATOM     31  H2  UNL     1     -25.787  10.196 -13.491  1.00  0.00     0.166 HD
ENDBRANCH  21  23
ENDBRANCH   8  19
TORSDOF 8
ENDMDL