MODEL 2
REMARK VINA RESULT: -8.205981347      1.233      1.551
REMARK  5 active torsions:
REMARK  status: ('A' for Active; 'I' for Inactive)
REMARK    1  A    between atoms: C3_3  and  O1_4
REMARK    2  A    between atoms: O1_4  and  C4_5
REMARK    3  A    between atoms: N4_24  and  C14_26
REMARK    4  A    between atoms: C14_26  and  C15_27
REMARK    5  A    between atoms: C15_27  and  N5_28
ROOT
HETATM    1  C1  UNL     1     -27.203  12.056  -9.240  1.00  0.00     0.055 C
HETATM    2  C2  UNL     1     -26.125  11.147  -8.869  1.00  0.00     0.018 A
HETATM    3  C3  UNL     1     -25.673  11.069  -7.538  1.00  0.00     0.108 A
HETATM    4  C11 UNL     1     -24.671  10.153  -7.311  1.00  0.00     0.084 A
HETATM    5 CL1  UNL     1     -23.898   9.944  -5.724  1.00  0.00    -0.080 Cl
HETATM    6  C12 UNL     1     -24.164   9.377  -8.341  1.00  0.00     0.116 A
HETATM    7  N3  UNL     1     -24.632   9.496  -9.585  1.00  0.00    -0.350 N
ATOM      8  H3  UNL     1     -24.237   8.911 -10.321  1.00  0.00     0.166 HD
HETATM    9  C13 UNL     1     -25.603  10.361  -9.892  1.00  0.00     0.113 A
HETATM   10  N4  UNL     1     -26.041  10.475 -11.084  1.00  0.00    -0.354 N
ATOM     11  H4  UNL     1     -26.778  11.174 -11.183  1.00  0.00     0.166 HD
ENDROOT
BRANCH   3  12
HETATM   12  O1  UNL     1     -26.189  11.822  -6.654  1.00  0.00    -0.306 OA
BRANCH  12  13
HETATM   13  C4  UNL     1     -26.707  12.580  -5.765  1.00  0.00     0.108 A
HETATM   14  C5  UNL     1     -27.522  11.987  -4.782  1.00  0.00     0.082 A
HETATM   15  C6  UNL     1     -28.132  12.673  -3.775  1.00  0.00     0.121 A
HETATM   16  F1  UNL     1     -28.910  12.062  -2.848  1.00  0.00    -0.206 F
HETATM   17  C7  UNL     1     -27.952  14.022  -3.703  1.00  0.00     0.074 A
HETATM   18  C8  UNL     1     -27.177  14.671  -4.615  1.00  0.00     0.069 A
HETATM   19  N1  UNL     1     -26.862  15.986  -4.699  1.00  0.00    -0.306 N
HETATM   20  C10 UNL     1     -26.560  13.961  -5.636  1.00  0.00     0.097 A
HETATM   21  C9  UNL     1     -26.062  16.081  -5.753  1.00  0.00     0.325 A
ATOM     22  H1  UNL     1     -27.172  16.740  -4.084  1.00  0.00     0.171 HD
HETATM   23  O2  UNL     1     -25.547  17.158  -6.167  1.00  0.00    -0.247 OA
HETATM   24  N2  UNL     1     -25.876  14.865  -6.319  1.00  0.00    -0.304 N
ATOM     25  H2  UNL     1     -25.301  14.675  -7.140  1.00  0.00     0.171 HD
ENDBRANCH  12  13
ENDBRANCH   3  12
BRANCH  10  26
HETATM   26  C14 UNL     1     -25.713   9.833 -12.285  1.00  0.00     0.092 C
BRANCH  26  27
HETATM   27  C15 UNL     1     -26.989   9.438 -13.013  1.00  0.00     0.317 C
BRANCH  27  28
HETATM   28  N5  UNL     1     -27.242   8.041 -13.069  1.00  0.00     0.097 N
HETATM   29  C16 UNL     1     -28.625   7.776 -12.688  1.00  0.00     0.299 C
HETATM   30  C17 UNL     1     -28.964   8.193 -11.298  1.00  0.00     0.198 C
HETATM   31  O3  UNL     1     -27.952   7.916 -10.374  1.00  0.00    -0.388 OA
HETATM   32  C18 UNL     1     -27.181   6.893 -10.898  1.00  0.00     0.198 C
HETATM   33  C19 UNL     1     -26.393   7.340 -12.114  1.00  0.00     0.299 C
ENDBRANCH  27  28
ENDBRANCH  26  27
ENDBRANCH  10  26
TORSDOF 5
ENDMDL