MODEL 4
REMARK VINA RESULT: -8.081886044      1.686      2.109
REMARK  6 active torsions:
REMARK  status: ('A' for Active; 'I' for Inactive)
REMARK    1  A    between atoms: N1_1  and  C1_4
REMARK    2  A    between atoms: C2_7  and  N3_8
REMARK    3  A    between atoms: N4_11  and  C5_12
REMARK    4  A    between atoms: C5_12  and  C6_13
REMARK    5  A    between atoms: C6_13  and  N5_14
REMARK       I    between atoms: N5_14  and  C7_16
REMARK    6  A    between atoms: C7_16  and  C8_18
ROOT
HETATM    1  C1  UNL     1     -25.160  11.274  -8.030  1.00  0.00     0.127 A
HETATM    2  N2  UNL     1     -25.407  12.293  -7.193  1.00  0.00    -0.176 N
ATOM      3  H2  UNL     1     -24.768  12.445  -6.413  1.00  0.00     0.186 HD
HETATM    4  C2  UNL     1     -26.466  13.135  -7.333  1.00  0.00     0.682 A
HETATM    5  N6  UNL     1     -27.293  12.911  -8.369  1.00  0.00    -0.191 N
ATOM      6  H6  UNL     1     -28.098  13.522  -8.503  1.00  0.00     0.184 HD
HETATM    7  C14 UNL     1     -27.083  11.891  -9.245  1.00  0.00     0.065 A
HETATM    8  C15 UNL     1     -27.941  11.673 -10.325  1.00  0.00     0.056 A
HETATM    9  C16 UNL     1     -27.685  10.629 -11.193  1.00  0.00     0.058 A
HETATM   10 CL1  UNL     1     -28.726  10.305 -12.567  1.00  0.00    -0.082 Cl
HETATM   11  C17 UNL     1     -26.607   9.794 -11.027  1.00  0.00     0.056 A
HETATM   12 CL2  UNL     1     -26.269   8.477 -12.127  1.00  0.00    -0.083 Cl
HETATM   13  C18 UNL     1     -25.744   9.988  -9.968  1.00  0.00     0.043 A
HETATM   14  C19 UNL     1     -26.012  11.045  -9.101  1.00  0.00     0.037 A
ENDROOT
BRANCH   4  15
HETATM   15  N3  UNL     1     -26.674  14.209  -6.453  1.00  0.00    -0.208 N
HETATM   16  C3  UNL     1     -25.564  14.848  -5.812  1.00  0.00     0.186 C
HETATM   17  C4  UNL     1     -25.850  15.246  -4.408  1.00  0.00     0.083 C
HETATM   18  N4  UNL     1     -27.105  14.944  -3.858  1.00  0.00    -0.369 N
HETATM   19  C12 UNL     1     -28.168  14.487  -4.650  1.00  0.00     0.083 C
HETATM   20  C13 UNL     1     -27.983  14.700  -6.133  1.00  0.00     0.186 C
BRANCH  18  21
HETATM   21  C5  UNL     1     -27.513  15.969  -2.913  1.00  0.00     0.146 C
BRANCH  21  22
HETATM   22  C6  UNL     1     -26.813  17.258  -3.267  1.00  0.00     0.143 C
BRANCH  22  23
HETATM   23  N5  UNL     1     -27.634  18.423  -2.944  1.00  0.00    -0.359 N
HETATM   24  C7  UNL     1     -26.985  19.698  -2.892  1.00  0.00     0.221 C
HETATM   25  O1  UNL     1     -25.756  19.797  -3.124  1.00  0.00    -0.273 OA
ATOM     26  H5  UNL     1     -28.634  18.331  -2.761  1.00  0.00     0.162 HD
BRANCH  24  27
HETATM   27  C8  UNL     1     -27.703  20.944  -2.569  1.00  0.00     0.078 C
HETATM   28  C9  UNL     1     -26.777  22.157  -2.437  1.00  0.00     0.014 C
HETATM   29  C10 UNL     1     -27.850  22.965  -3.132  1.00  0.00     0.002 C
HETATM   30  C11 UNL     1     -28.430  21.657  -3.641  1.00  0.00     0.014 C
ENDBRANCH  24  27
ENDBRANCH  22  23
ENDBRANCH  21  22
ENDBRANCH  18  21
ENDBRANCH   4  15
BRANCH   1  31
HETATM   31  N1  UNL     1     -24.157  10.479  -7.891  1.00  0.00    -0.384 N
ATOM     32  H12 UNL     1     -23.447  10.485  -8.623  1.00  0.00     0.157 HD
ATOM     33  H11 UNL     1     -24.048   9.855  -7.092  1.00  0.00     0.157 HD
ENDBRANCH   1  31
TORSDOF 6
ENDMDL