MODEL 5
REMARK VINA RESULT: -7.382597207      1.636      2.831
REMARK  6 active torsions:
REMARK  status: ('A' for Active; 'I' for Inactive)
REMARK    1  A    between atoms: C2_2  and  C3_3
REMARK    2  A    between atoms: C3_3  and  C4_4
REMARK    3  A    between atoms: C7_13  and  N3_14
REMARK    4  A    between atoms: C10_17  and  N4_18
REMARK    5  A    between atoms: N4_18  and  C11_20
REMARK    6  A    between atoms: N6_28  and  C15_29
ROOT
HETATM    1  N3  UNL     1     -26.407  10.315 -12.252  1.00  0.00    -0.366 N
HETATM    2  C8  UNL     1     -27.367  10.815 -11.244  1.00  0.00     0.126 C
HETATM    3  C9  UNL     1     -26.850  10.564  -9.824  1.00  0.00     0.045 C
HETATM    4  C10 UNL     1     -25.467  11.077  -9.619  1.00  0.00     0.102 C
HETATM    5  C18 UNL     1     -25.070  11.765 -10.904  1.00  0.00     0.045 C
HETATM    6  C19 UNL     1     -25.040  10.617 -11.948  1.00  0.00     0.126 C
ENDROOT
BRANCH   1   7
HETATM    7  C7  UNL     1     -26.941   9.669 -13.359  1.00  0.00     0.130 A
HETATM    8  C6  UNL     1     -27.139   8.316 -13.386  1.00  0.00     0.121 A
HETATM    9  C5  UNL     1     -27.642   7.668 -14.531  1.00  0.00     0.126 A
HETATM   10 CL1  UNL     1     -26.774   7.399 -11.949  1.00  0.00    -0.076 Cl
HETATM   11  N1  UNL     1     -27.922   8.431 -15.604  1.00  0.00    -0.331 N
HETATM   12  N2  UNL     1     -27.813   6.401 -14.507  1.00  0.00    -0.384 N
HETATM   13  C4  UNL     1     -27.737   9.761 -15.603  1.00  0.00     0.084 A
ATOM     14  H1  UNL     1     -28.287   7.983 -16.445  1.00  0.00     0.168 HD
HETATM   15  N7  UNL     1     -27.252  10.369 -14.493  1.00  0.00    -0.331 N
ATOM     16  H7  UNL     1     -27.114  11.380 -14.504  1.00  0.00     0.168 HD
ATOM     17  H22 UNL     1     -28.177   5.931 -15.336  1.00  0.00     0.157 HD
ATOM     18  H21 UNL     1     -27.601   5.823 -13.695  1.00  0.00     0.157 HD
BRANCH  13  19
HETATM   19  C3  UNL     1     -28.073  10.521 -16.829  1.00  0.00     0.076 C
BRANCH  19  20
HETATM   20  C2  UNL     1     -27.306  10.021 -18.037  1.00  0.00     0.003 C
HETATM   21  C1  UNL     1     -25.830  10.257 -17.750  1.00  0.00     0.005 C
ENDBRANCH  19  20
ENDBRANCH  13  19
ENDBRANCH   1   7
BRANCH   4  22
HETATM   22  N4  UNL     1     -25.215  11.758  -8.423  1.00  0.00    -0.221 N
ATOM     23  H4  UNL     1     -24.227  11.981  -8.300  1.00  0.00     0.178 HD
BRANCH  22  24
HETATM   24  C11 UNL     1     -25.919  12.156  -7.470  1.00  0.00     0.683 A
HETATM   25  N5  UNL     1     -26.422  13.398  -7.447  1.00  0.00    -0.199 N
HETATM   26  C12 UNL     1     -27.194  13.803  -6.401  1.00  0.00     0.154 A
ATOM     27  H5  UNL     1     -26.227  14.041  -8.214  1.00  0.00     0.183 HD
HETATM   28  C13 UNL     1     -27.458  12.939  -5.369  1.00  0.00     0.200 A
HETATM   29  F1  UNL     1     -28.225  13.355  -4.346  1.00  0.00    -0.199 F
HETATM   30  C14 UNL     1     -26.918  11.660  -5.429  1.00  0.00     0.302 A
HETATM   31  O1  UNL     1     -27.169  10.865  -4.461  1.00  0.00    -0.264 OA
HETATM   32  N6  UNL     1     -26.154  11.262  -6.464  1.00  0.00    -0.140 N
BRANCH  32  33
HETATM   33  C15 UNL     1     -25.641   9.927  -6.441  1.00  0.00     0.111 A
HETATM   34  C16 UNL     1     -24.197   9.626  -6.518  1.00  0.00     0.028 A
HETATM   35  C17 UNL     1     -24.930   9.413  -5.224  1.00  0.00     0.028 A
ENDBRANCH  32  33
ENDBRANCH  22  24
ENDBRANCH   4  22
TORSDOF 6
ENDMDL