MODEL 3
REMARK VINA RESULT: -8.020911656      4.145     10.248
REMARK  8 active torsions:
REMARK  status: ('A' for Active; 'I' for Inactive)
REMARK    1  A    between atoms: O1_1  and  C1_3
REMARK    2  A    between atoms: C1_3  and  C2_4
REMARK    3  A    between atoms: C2_4  and  N1_5
REMARK    4  A    between atoms: C5_8  and  C6_9
REMARK    5  A    between atoms: C8_11  and  N2_12
REMARK    6  A    between atoms: N2_12  and  C9_13
REMARK    7  A    between atoms: C10_16  and  N4_17
REMARK    8  A    between atoms: N4_17  and  C11_19
ROOT
HETATM    1  C6  UNL     1     -25.547  12.158  -6.328  1.00  0.00     0.016 A
HETATM    2  C7  UNL     1     -25.867  11.450  -7.450  1.00  0.00     0.073 A
HETATM    3  C8  UNL     1     -25.183  10.265  -7.714  1.00  0.00     0.151 A
HETATM    4  C18 UNL     1     -24.202   9.891  -6.788  1.00  0.00     0.172 A
HETATM    5  F2  UNL     1     -23.497   8.726  -7.003  1.00  0.00    -0.201 F
HETATM    6  C19 UNL     1     -23.918  10.627  -5.688  1.00  0.00     0.134 A
HETATM    7  N6  UNL     1     -24.598  11.760  -5.468  1.00  0.00    -0.366 N
ATOM      8  H6  UNL     1     -24.392  12.322  -4.642  1.00  0.00     0.165 HD
ENDROOT
BRANCH   3   9
HETATM    9  N2  UNL     1     -25.402   9.591  -8.665  1.00  0.00    -0.380 NA
BRANCH   9  10
HETATM   10  C9  UNL     1     -25.547   8.810  -9.719  1.00  0.00     0.234 A
HETATM   11  N3  UNL     1     -26.653   7.984  -9.791  1.00  0.00    -0.161 N
HETATM   12  C10 UNL     1     -26.872   7.168 -10.821  1.00  0.00     0.680 A
ATOM     13  H3  UNL     1     -27.326   7.999  -9.025  1.00  0.00     0.187 HD
HETATM   14  N5  UNL     1     -25.999   7.141 -11.829  1.00  0.00    -0.199 N
HETATM   15  C16 UNL     1     -24.891   7.920 -11.836  1.00  0.00     0.153 A
ATOM     16  H5  UNL     1     -26.171   6.516 -12.616  1.00  0.00     0.183 HD
HETATM   17  C17 UNL     1     -24.639   8.763 -10.795  1.00  0.00     0.190 A
HETATM   18  F1  UNL     1     -23.569   9.579 -10.708  1.00  0.00    -0.199 F
BRANCH  12  19
HETATM   19  N4  UNL     1     -27.938   6.402 -10.842  1.00  0.00    -0.221 N
ATOM     20  H4  UNL     1     -28.456   6.212  -9.984  1.00  0.00     0.178 HD
BRANCH  19  21
HETATM   21  C11 UNL     1     -28.371   5.828 -12.114  1.00  0.00     0.099 C
HETATM   22  C12 UNL     1     -29.797   6.177 -12.417  1.00  0.00     0.026 C
HETATM   23  C13 UNL     1     -30.504   4.862 -12.740  1.00  0.00     0.002 C
HETATM   24  C14 UNL     1     -29.381   3.898 -13.013  1.00  0.00     0.002 C
HETATM   25  C15 UNL     1     -28.312   4.323 -12.041  1.00  0.00     0.026 C
ENDBRANCH  19  21
ENDBRANCH  12  19
ENDBRANCH   9  10
ENDBRANCH   3   9
BRANCH   1  26
HETATM   26  C5  UNL     1     -26.293  13.418  -6.065  1.00  0.00     0.038 C
HETATM   27  C4  UNL     1     -25.313  14.494  -5.731  1.00  0.00     0.030 C
HETATM   28  C3  UNL     1     -26.074  15.813  -5.500  1.00  0.00     0.122 C
HETATM   29  N1  UNL     1     -27.098  15.565  -4.576  1.00  0.00    -0.391 N
HETATM   30  C21 UNL     1     -28.065  14.571  -4.902  1.00  0.00     0.122 C
HETATM   31  C20 UNL     1     -27.316  13.231  -4.960  1.00  0.00     0.030 C
BRANCH  29  32
HETATM   32  C2  UNL     1     -27.268  16.312  -3.416  1.00  0.00     0.084 C
BRANCH  32  33
HETATM   33  C1  UNL     1     -26.464  17.579  -3.416  1.00  0.00     0.208 C
BRANCH  33  34
HETATM   34  O1  UNL     1     -27.185  18.670  -3.039  1.00  0.00    -0.396 OA
ATOM     35  H1  UNL     1     -28.059  18.686  -3.412  1.00  0.00     0.209 HD
ENDBRANCH  33  34
ENDBRANCH  32  33
ENDBRANCH  29  32
ENDBRANCH   1  26
TORSDOF 8
ENDMDL