MODEL 3
REMARK VINA RESULT: -7.218418181      3.681      7.530
REMARK  7 active torsions:
REMARK  status: ('A' for Active; 'I' for Inactive)
REMARK    1  A    between atoms: N1_2  and  C2_3
REMARK    2  A    between atoms: N1_2  and  C4_9
REMARK    3  A    between atoms: C2_3  and  C3_4
REMARK    4  A    between atoms: C3_4  and  N2_5
REMARK    5  A    between atoms: C6_11  and  N3_12
REMARK    6  A    between atoms: N3_12  and  C7_14
REMARK    7  A    between atoms: C7_14  and  C8_15
ROOT
HETATM    1  C4  UNL     1     -29.132  11.276  -9.160  1.00  0.00     0.050 A
HETATM    2  C5  UNL     1     -28.267  10.277  -9.544  1.00  0.00     0.078 A
HETATM    3  C6  UNL     1     -27.040  10.096  -8.959  1.00  0.00     0.103 A
HETATM    4  N5  UNL     1     -26.673  10.943  -7.960  1.00  0.00    -0.341 N
ATOM      5  H5  UNL     1     -25.764  10.827  -7.510  1.00  0.00     0.167 HD
HETATM    6  C12 UNL     1     -27.495  11.936  -7.555  1.00  0.00     0.063 A
HETATM    7  C13 UNL     1     -28.740  12.124  -8.144  1.00  0.00     0.069 A
HETATM    8  C14 UNL     1     -29.335  13.262  -7.477  1.00  0.00     0.198 A
HETATM    9  O1  UNL     1     -30.470  13.739  -7.739  1.00  0.00    -0.286 OA
HETATM   10  C15 UNL     1     -28.403  13.745  -6.469  1.00  0.00     0.031 A
HETATM   11  C16 UNL     1     -28.477  14.791  -5.565  1.00  0.00     0.040 A
HETATM   12  C17 UNL     1     -27.461  15.077  -4.685  1.00  0.00     0.036 A
HETATM   13 CL1  UNL     1     -27.517  16.388  -3.532  1.00  0.00    -0.084 Cl
HETATM   14  C18 UNL     1     -26.342  14.271  -4.732  1.00  0.00     0.048 A
HETATM   15  C19 UNL     1     -26.255  13.223  -5.629  1.00  0.00     0.049 A
HETATM   16 CL2  UNL     1     -24.806  12.276  -5.601  1.00  0.00    -0.083 Cl
HETATM   17  C20 UNL     1     -27.278  12.939  -6.513  1.00  0.00     0.028 A
ENDROOT
BRANCH   3  18
HETATM   18  N3  UNL     1     -26.201   9.178  -9.287  1.00  0.00    -0.376 N
ATOM     19  H3  UNL     1     -26.557   8.294  -9.651  1.00  0.00     0.161 HD
BRANCH  18  20
HETATM   20  C7  UNL     1     -24.766   9.357  -9.158  1.00  0.00     0.127 C
BRANCH  20  21
HETATM   21  C8  UNL     1     -24.137   9.784 -10.459  1.00  0.00     0.030 C
HETATM   22  C9  UNL     1     -25.079  10.472 -11.388  1.00  0.00     0.035 C
HETATM   23  C10 UNL     1     -24.864  11.937 -11.154  1.00  0.00     0.232 C
HETATM   24  N4  UNL     1     -23.933  12.033 -10.021  1.00  0.00    -0.075 N
HETATM   25  C11 UNL     1     -23.112  10.857 -10.168  1.00  0.00     0.238 C
ATOM     26  H42 UNL     1     -23.414  12.909  -9.972  1.00  0.00     0.277 HD
ATOM     27  H41 UNL     1     -24.382  12.126  -9.109  1.00  0.00     0.277 HD
ENDBRANCH  20  21
ENDBRANCH  18  20
ENDBRANCH   3  18
BRANCH   1  28
HETATM   28  N1  UNL     1     -30.410  11.438  -9.769  1.00  0.00    -0.383 N
HETATM   29  C1  UNL     1     -30.520  12.264 -10.950  1.00  0.00     0.150 C
BRANCH  28  30
HETATM   30  C2  UNL     1     -31.619  10.817  -9.267  1.00  0.00     0.149 C
BRANCH  30  31
HETATM   31  C3  UNL     1     -32.826  11.725  -9.357  1.00  0.00     0.249 C
BRANCH  31  32
HETATM   32  N2  UNL     1     -33.045  12.311  -8.060  1.00  0.00    -0.078 N
ATOM     33  H23 UNL     1     -33.759  11.822  -7.522  1.00  0.00     0.274 HD
ATOM     34  H22 UNL     1     -32.264  12.158  -7.422  1.00  0.00     0.274 HD
ATOM     35  H21 UNL     1     -33.259  13.300  -8.189  1.00  0.00     0.274 HD
ENDBRANCH  31  32
ENDBRANCH  30  31
ENDBRANCH  28  30
ENDBRANCH   1  28
TORSDOF 7
ENDMDL