MODEL 4
REMARK VINA RESULT: -7.412276676      1.754      2.685
REMARK  7 active torsions:
REMARK  status: ('A' for Active; 'I' for Inactive)
REMARK    1  A    between atoms: N1_1  and  C1_5
REMARK    2  A    between atoms: C1_5  and  C2_6
REMARK    3  A    between atoms: C2_6  and  C3_7
REMARK    4  A    between atoms: C3_7  and  N2_8
REMARK    5  A    between atoms: N2_8  and  C4_10
REMARK    6  A    between atoms: C5_13  and  N4_14
REMARK    7  A    between atoms: N5_17  and  C8_18
ROOT
HETATM    1  C4  UNL     1     -24.806  10.620  -8.609  1.00  0.00     0.134 A
HETATM    2  N3  UNL     1     -25.163  11.557  -7.720  1.00  0.00    -0.176 N
ATOM      3  H3  UNL     1     -24.476  12.236  -7.390  1.00  0.00     0.186 HD
HETATM    4  C5  UNL     1     -26.450  11.601  -7.255  1.00  0.00     0.683 A
HETATM    5  N6  UNL     1     -27.388  10.736  -7.652  1.00  0.00    -0.175 N
ATOM      6  H6  UNL     1     -28.337  10.800  -7.282  1.00  0.00     0.186 HD
HETATM    7  C14 UNL     1     -27.067   9.772  -8.554  1.00  0.00     0.139 A
HETATM    8  N7  UNL     1     -27.805   8.786  -9.123  1.00  0.00    -0.333 N
ATOM      9  H7  UNL     1     -28.792   8.591  -8.953  1.00  0.00     0.168 HD
HETATM   10  C15 UNL     1     -26.996   8.124  -9.941  1.00  0.00     0.121 A
HETATM   11 BR1  UNL     1     -27.572   6.621 -10.985  1.00  0.00    -0.028 Br
HETATM   12  C16 UNL     1     -25.734   8.657  -9.921  1.00  0.00     0.168 A
HETATM   13  F1  UNL     1     -24.634   8.250 -10.627  1.00  0.00    -0.202 F
HETATM   14  C17 UNL     1     -25.769   9.721  -9.029  1.00  0.00     0.094 A
ENDROOT
BRANCH   4  15
HETATM   15  N4  UNL     1     -26.820  12.603  -6.315  1.00  0.00    -0.214 N
HETATM   16  C6  UNL     1     -25.740  13.445  -5.811  1.00  0.00     0.171 C
HETATM   17  C7  UNL     1     -26.277  14.875  -5.985  1.00  0.00     0.293 C
HETATM   18  N5  UNL     1     -27.322  15.026  -4.998  1.00  0.00     0.096 N
HETATM   19  C12 UNL     1     -27.986  13.813  -4.647  1.00  0.00     0.293 C
HETATM   20  C13 UNL     1     -28.135  12.855  -5.824  1.00  0.00     0.171 C
BRANCH  18  21
HETATM   21  C8  UNL     1     -26.731  15.686  -3.862  1.00  0.00     0.223 A
HETATM   22  C9  UNL     1     -27.691  16.254  -2.852  1.00  0.00     0.036 A
HETATM   23  C10 UNL     1     -27.150  17.633  -3.176  1.00  0.00     0.004 A
HETATM   24  C11 UNL     1     -26.286  17.090  -4.277  1.00  0.00     0.036 A
ENDBRANCH  18  21
ENDBRANCH   4  15
BRANCH   1  25
HETATM   25  N2  UNL     1     -23.579  10.549  -9.062  1.00  0.00    -0.375 N
ATOM     26  H2  UNL     1     -22.935   9.843  -8.706  1.00  0.00     0.161 HD
BRANCH  25  27
HETATM   27  C3  UNL     1     -23.151  11.491 -10.078  1.00  0.00     0.123 C
BRANCH  27  28
HETATM   28  C2  UNL     1     -23.281  10.925 -11.479  1.00  0.00     0.047 C
BRANCH  28  29
HETATM   29  C1  UNL     1     -24.590  11.311 -12.110  1.00  0.00     0.231 C
BRANCH  29  30
HETATM   30  N1  UNL     1     -25.234  12.395 -11.393  1.00  0.00    -0.079 N
ATOM     31  H13 UNL     1     -26.231  12.221 -11.272  1.00  0.00     0.274 HD
ATOM     32  H12 UNL     1     -24.954  12.410 -10.412  1.00  0.00     0.274 HD
ATOM     33  H11 UNL     1     -25.066  13.296 -11.841  1.00  0.00     0.274 HD
ENDBRANCH  29  30
ENDBRANCH  28  29
ENDBRANCH  27  28
ENDBRANCH  25  27
ENDBRANCH   1  25
TORSDOF 7
ENDMDL