MODEL 2
REMARK VINA RESULT: -7.322183742      3.761      5.950
REMARK  2 active torsions:
REMARK  status: ('A' for Active; 'I' for Inactive)
REMARK    1  A    between atoms: O1_2  and  C2_3
REMARK    2  A    between atoms: C5_7  and  C6_8
ROOT
HETATM    1  C2  UNL     1     -42.948  16.589   9.413  1.00  0.00     0.113 A
HETATM    2  C3  UNL     1     -43.159  16.531   8.066  1.00  0.00     0.070 A
HETATM    3 CL1  UNL     1     -42.488  17.837   7.094  1.00  0.00    -0.081 Cl
HETATM    4  C4  UNL     1     -43.857  15.518   7.472  1.00  0.00     0.044 A
HETATM    5  C5  UNL     1     -44.397  14.467   8.254  1.00  0.00     0.033 A
HETATM    6  C9  UNL     1     -44.191  14.516   9.592  1.00  0.00     0.072 A
HETATM    7 CL2  UNL     1     -44.729  13.268  10.711  1.00  0.00    -0.081 Cl
HETATM    8  C10 UNL     1     -43.474  15.567  10.166  1.00  0.00     0.091 A
HETATM    9 CL3  UNL     1     -43.250  15.563  11.914  1.00  0.00    -0.079 Cl
ENDROOT
BRANCH   5  10
HETATM   10  C6  UNL     1     -45.093  13.403   7.565  1.00  0.00     0.123 A
HETATM   11  N1  UNL     1     -44.976  13.381   6.189  1.00  0.00    -0.294 N
HETATM   12  C7  UNL     1     -45.533  12.421   5.464  1.00  0.00     0.328 A
ATOM     13  H1  UNL     1     -44.450  14.119   5.721  1.00  0.00     0.172 HD
HETATM   14  O2  UNL     1     -45.434  12.389   4.199  1.00  0.00    -0.247 OA
HETATM   15  N2  UNL     1     -46.243  11.415   6.017  1.00  0.00    -0.285 N
HETATM   16  C8  UNL     1     -46.368  11.419   7.346  1.00  0.00     0.181 A
ATOM     17  H2  UNL     1     -46.665  10.684   5.445  1.00  0.00     0.173 HD
HETATM   18  S1  UNL     1     -47.213  10.234   8.083  1.00  0.00    -0.040 SA
HETATM   19  N3  UNL     1     -45.790  12.417   8.104  1.00  0.00    -0.318 N
ATOM     20  H3  UNL     1     -45.906  12.394   9.118  1.00  0.00     0.170 HD
ENDBRANCH   5  10
BRANCH   1  21
HETATM   21  O1  UNL     1     -42.255  17.585  10.058  1.00  0.00    -0.352 OA
HETATM   22  C1  UNL     1     -40.867  17.649  10.195  1.00  0.00     0.210 C
ENDBRANCH   1  21
TORSDOF 2
ENDMDL