MODEL 2
REMARK VINA RESULT: -6.726999980      1.346      2.029
REMARK  4 active torsions:
REMARK  status: ('A' for Active; 'I' for Inactive)
REMARK    1  A    between atoms: C3_5  and  C4_6
REMARK    2  A    between atoms: C6_13  and  C7_14
REMARK    3  A    between atoms: C7_14  and  O2_15
REMARK    4  A    between atoms: O2_15  and  C8_16
ROOT
HETATM    1  C1  UNL     1     -43.464  16.202   7.245  1.00  0.00     0.069 C
HETATM    2  C2  UNL     1     -44.189  14.938   7.435  1.00  0.00     0.023 A
HETATM    3  N1  UNL     1     -44.522  14.202   6.334  1.00  0.00    -0.341 N
ATOM      4  H1  UNL     1     -44.223  14.538   5.418  1.00  0.00     0.167 HD
HETATM    5  C3  UNL     1     -45.223  13.058   6.394  1.00  0.00     0.173 A
HETATM    6  N3  UNL     1     -45.607  12.633   7.598  1.00  0.00    -0.328 N
ATOM      7  H3  UNL     1     -46.141  11.768   7.675  1.00  0.00     0.168 HD
HETATM    8  C5  UNL     1     -45.304  13.320   8.713  1.00  0.00     0.117 A
HETATM    9  S1  UNL     1     -45.819  12.713  10.115  1.00  0.00    -0.059 SA
HETATM   10  C6  UNL     1     -44.572  14.514   8.651  1.00  0.00     0.060 A
ENDROOT
BRANCH  10  11
HETATM   11  C7  UNL     1     -44.250  15.158   9.944  1.00  0.00     0.119 C
HETATM   12  C10 UNL     1     -43.038  15.110  10.465  1.00  0.00     0.137 C
HETATM   13 CL2  UNL     1     -42.578  15.854  11.988  1.00  0.00    -0.068 Cl
HETATM   14 CL3  UNL     1     -41.730  14.199   9.678  1.00  0.00    -0.068 Cl
BRANCH  11  15
HETATM   15  O2  UNL     1     -45.216  15.817  10.622  1.00  0.00    -0.328 OA
BRANCH  15  16
HETATM   16  C8  UNL     1     -46.276  16.605  10.415  1.00  0.00     0.220 C
HETATM   17  C9  UNL     1     -46.695  17.197  11.785  1.00  0.00     0.057 C
HETATM   18 CL1  UNL     1     -47.756  15.827   9.812  1.00  0.00    -0.095 Cl
ENDBRANCH  15  16
ENDBRANCH  11  15
ENDBRANCH  10  11
BRANCH   5  19
HETATM   19  C4  UNL     1     -45.553  12.309   5.187  1.00  0.00     0.298 C
HETATM   20  N2  UNL     1     -45.043  11.011   4.941  1.00  0.00    -0.054 NA
HETATM   21  O1  UNL     1     -46.313  12.833   4.336  1.00  0.00    -0.268 OA
ENDBRANCH   5  19
TORSDOF 4
ENDMDL