MODEL 1
REMARK VINA RESULT: -6.770835508      0.000      0.000
REMARK  4 active torsions:
REMARK  status: ('A' for Active; 'I' for Inactive)
REMARK    1  A    between atoms: C2_2  and  C3_3
REMARK    2  A    between atoms: C3_3  and  N1_4
REMARK    3  A    between atoms: C3_3  and  C4_8
REMARK    4  A    between atoms: N2_12  and  C7_13
ROOT
HETATM    1  C4  UNL     1     -43.690  16.482   8.683  1.00  0.00     0.062 A
HETATM    2  C5  UNL     1     -44.812  16.891   9.349  1.00  0.00     0.105 A
HETATM    3  C6  UNL     1     -45.705  15.847   9.378  1.00  0.00     0.269 A
HETATM    4  O1  UNL     1     -46.828  15.852   9.898  1.00  0.00    -0.266 OA
HETATM    5  N2  UNL     1     -45.138  14.830   8.746  1.00  0.00    -0.212 N
HETATM    6  N3  UNL     1     -43.941  15.195   8.328  1.00  0.00    -0.292 N
ATOM      7  H3  UNL     1     -43.296  14.596   7.812  1.00  0.00     0.187 HD
ENDROOT
BRANCH   5   8
HETATM    8  C7  UNL     1     -45.658  13.502   8.499  1.00  0.00     0.125 A
HETATM    9  S1  UNL     1     -46.487  12.451   9.553  1.00  0.00    -0.055 SA
HETATM   10  C8  UNL     1     -46.732  11.136   8.504  1.00  0.00     0.100 A
HETATM   11 CL1  UNL     1     -47.544   9.620   8.878  1.00  0.00    -0.074 Cl
HETATM   12  C9  UNL     1     -46.151  11.560   7.342  1.00  0.00     0.087 A
HETATM   13 CL2  UNL     1     -46.166  10.477   5.921  1.00  0.00    -0.080 Cl
HETATM   14  C10 UNL     1     -45.595  12.779   7.331  1.00  0.00     0.093 A
HETATM   15 CL3  UNL     1     -44.789  13.493   5.891  1.00  0.00    -0.079 Cl
ENDBRANCH   5   8
BRANCH   1  16
HETATM   16  C3  UNL     1     -42.430  17.192   8.364  1.00  0.00     0.234 C
BRANCH  16  17
HETATM   17  C2  UNL     1     -41.280  16.285   8.714  1.00  0.00     0.035 C
HETATM   18  C1  UNL     1     -40.357  17.015   9.647  1.00  0.00     0.007 C
ENDBRANCH  16  17
BRANCH  16  19
HETATM   19  N1  UNL     1     -42.404  17.579   6.971  1.00  0.00    -0.070 N
ATOM     20  H13 UNL     1     -41.559  18.105   6.748  1.00  0.00     0.275 HD
ATOM     21  H12 UNL     1     -42.257  16.773   6.363  1.00  0.00     0.275 HD
ATOM     22  H11 UNL     1     -43.243  18.096   6.706  1.00  0.00     0.275 HD
ENDBRANCH  16  19
ENDBRANCH   1  16
TORSDOF 4
ENDMDL