MODEL 1
REMARK VINA RESULT: -8.063372910      0.000      0.000
REMARK  4 active torsions:
REMARK  status: ('A' for Active; 'I' for Inactive)
REMARK    1  A    between atoms: C2_2  and  N1_4
REMARK    2  A    between atoms: N1_4  and  C4_6
REMARK    3  A    between atoms: C6_8  and  N2_9
REMARK    4  A    between atoms: N2_9  and  C7_11
ROOT
HETATM    1  C7  UNL     1     -44.089  15.724   9.037  1.00  0.00     0.057 A
HETATM    2  C8  UNL     1     -43.728  16.721   8.124  1.00  0.00     0.057 A
HETATM    3  C9  UNL     1     -42.428  17.178   8.080  1.00  0.00     0.085 A
HETATM    4  C10 UNL     1     -42.022  18.203   7.154  1.00  0.00     0.102 C
HETATM    5  N3  UNL     1     -41.693  19.018   6.413  1.00  0.00    -0.191 NA
HETATM    6  C11 UNL     1     -41.512  16.623   8.952  1.00  0.00     0.138 A
HETATM    7  F1  UNL     1     -40.228  17.035   8.947  1.00  0.00    -0.204 F
HETATM    8  C12 UNL     1     -41.875  15.632   9.856  1.00  0.00     0.070 A
HETATM    9  C13 UNL     1     -43.174  15.170   9.909  1.00  0.00     0.063 A
HETATM   10 CL1  UNL     1     -43.660  13.917  11.043  1.00  0.00    -0.082 Cl
ENDROOT
BRANCH   1  11
HETATM   11  N2  UNL     1     -45.413  15.248   9.095  1.00  0.00    -0.341 N
ATOM     12  H2  UNL     1     -46.130  15.745   9.624  1.00  0.00     0.167 HD
BRANCH  11  13
HETATM   13  C6  UNL     1     -45.692  14.137   8.443  1.00  0.00     0.111 A
HETATM   14  C5  UNL     1     -46.276  13.100   9.126  1.00  0.00     0.096 A
HETATM   15  C4  UNL     1     -46.571  11.923   8.432  1.00  0.00     0.107 A
HETATM   16  N5  UNL     1     -46.250  11.905   7.128  1.00  0.00    -0.319 N
HETATM   17  C14 UNL     1     -45.675  12.930   6.460  1.00  0.00     0.182 A
ATOM     18  H5  UNL     1     -46.455  11.055   6.603  1.00  0.00     0.170 HD
HETATM   19  N4  UNL     1     -45.402  14.045   7.138  1.00  0.00    -0.319 N
HETATM   20 CL2  UNL     1     -45.317  12.755   4.752  1.00  0.00    -0.045 Cl
ATOM     21  H4  UNL     1     -44.968  14.835   6.659  1.00  0.00     0.170 HD
BRANCH  15  22
HETATM   22  N1  UNL     1     -47.161  10.827   9.120  1.00  0.00    -0.372 N
ATOM     23  H1  UNL     1     -47.097  10.770  10.136  1.00  0.00     0.161 HD
BRANCH  22  24
HETATM   24  C2  UNL     1     -47.843   9.803   8.389  1.00  0.00     0.075 C
HETATM   25  C1  UNL     1     -47.001   8.539   8.276  1.00  0.00     0.031 C
HETATM   26  C3  UNL     1     -49.156   9.470   9.087  1.00  0.00     0.031 C
ENDBRANCH  22  24
ENDBRANCH  15  22
ENDBRANCH  11  13
ENDBRANCH   1  11
TORSDOF 4
ENDMDL