MODEL 5
REMARK VINA RESULT: -7.025339090      1.623      6.223
REMARK  6 active torsions:
REMARK  status: ('A' for Active; 'I' for Inactive)
REMARK    1  A    between atoms: C2_2  and  C3_3
REMARK    2  A    between atoms: C3_3  and  C4_4
REMARK    3  A    between atoms: C4_4  and  C5_5
REMARK    4  A    between atoms: C8_10  and  O2_11
REMARK    5  A    between atoms: C9_13  and  C10_14
REMARK    6  A    between atoms: C13_18  and  O3_19
ROOT
HETATM    1  C1  UNL     1     -44.070  14.807   6.479  1.00  0.00     0.044 C
HETATM    2  C2  UNL     1     -44.716  14.277   7.714  1.00  0.00    -0.068 C
HETATM    3  C6  UNL     1     -45.322  13.094   7.691  1.00  0.00     0.043 A
HETATM    4  C7  UNL     1     -45.352  12.267   6.466  1.00  0.00     0.217 A
HETATM    5  O1  UNL     1     -44.722  12.639   5.452  1.00  0.00    -0.284 OA
HETATM    6  C8  UNL     1     -46.112  11.018   6.435  1.00  0.00     0.128 A
HETATM    7  C9  UNL     1     -46.793  10.567   7.468  1.00  0.00     0.037 A
HETATM    8  C13 UNL     1     -46.757  11.381   8.651  1.00  0.00     0.099 A
HETATM    9  C14 UNL     1     -46.101  12.536   8.786  1.00  0.00     0.082 A
HETATM   10 CL3  UNL     1     -46.315  13.429  10.302  1.00  0.00    -0.080 Cl
ENDROOT
BRANCH   2  11
HETATM   11  C3  UNL     1     -44.506  14.993   8.983  1.00  0.00     0.036 C
BRANCH  11  12
HETATM   12  C4  UNL     1     -44.587  16.529   8.811  1.00  0.00     0.019 C
BRANCH  12  13
HETATM   13  C5  UNL     1     -43.155  17.020   9.099  1.00  0.00     0.115 C
HETATM   14 CL1  UNL     1     -42.384  17.707   7.675  1.00  0.00    -0.130 Cl
ENDBRANCH  12  13
ENDBRANCH  11  12
ENDBRANCH   2  11
BRANCH   6  15
HETATM   15  O2  UNL     1     -46.077  10.310   5.227  1.00  0.00    -0.356 OA
ATOM     16  H2  UNL     1     -46.325  10.799   4.451  1.00  0.00     0.218 HD
ENDBRANCH   6  15
BRANCH   8  17
HETATM   17  O3  UNL     1     -47.465  10.939   9.761  1.00  0.00    -0.358 OA
ATOM     18  H3  UNL     1     -48.236  10.405   9.609  1.00  0.00     0.217 HD
ENDBRANCH   8  17
BRANCH   7  19
HETATM   19  C10 UNL     1     -47.522   9.301   7.332  1.00  0.00     0.062 C
HETATM   20  C11 UNL     1     -46.785   8.125   7.935  1.00  0.00     0.037 C
HETATM   21  C12 UNL     1     -47.781   8.942   5.869  1.00  0.00     0.037 C
HETATM   22 CL2  UNL     1     -49.116   9.360   8.122  1.00  0.00    -0.115 Cl
ENDBRANCH   7  19
TORSDOF 6
ENDMDL