MODEL 5
REMARK VINA RESULT: -6.213601712      1.990      2.489
REMARK  2 active torsions:
REMARK  status: ('A' for Active; 'I' for Inactive)
REMARK       I    between atoms: C2_2  and  N1_4
REMARK    1  A    between atoms: N1_4  and  C3_6
REMARK    2  A    between atoms: C8_15  and  C9_16
REMARK       I    between atoms: C9_16  and  N2_18
ROOT
HETATM    1  C3  UNL     1     -44.806  14.357   8.411  1.00  0.00     0.094 A
HETATM    2  S1  UNL     1     -44.409  14.305   6.778  1.00  0.00    -0.063 SA
HETATM    3  C4  UNL     1     -45.113  12.791   6.443  1.00  0.00     0.062 A
HETATM    4  S2  UNL     1     -45.439  11.643   5.193  1.00  0.00    -0.068 SA
HETATM    5  C5  UNL     1     -46.288  10.570   6.153  1.00  0.00     0.098 A
HETATM    6 CL1  UNL     1     -47.034   9.019   5.666  1.00  0.00    -0.074 Cl
HETATM    7  C6  UNL     1     -46.305  11.114   7.419  1.00  0.00     0.075 A
HETATM    8 CL2  UNL     1     -47.338  10.154   8.551  1.00  0.00    -0.081 Cl
HETATM    9  C7  UNL     1     -45.667  12.319   7.614  1.00  0.00     0.030 A
HETATM   10  C8  UNL     1     -45.491  13.190   8.710  1.00  0.00     0.081 A
ENDROOT
BRANCH   1  11
HETATM   11  N1  UNL     1     -44.425  15.454   9.269  1.00  0.00    -0.321 N
HETATM   12  C2  UNL     1     -43.135  15.456   9.842  1.00  0.00     0.218 C
HETATM   13  C1  UNL     1     -42.730  16.557  10.713  1.00  0.00     0.117 C
HETATM   14  O1  UNL     1     -42.347  14.525   9.605  1.00  0.00    -0.274 OA
ATOM     15  H1  UNL     1     -45.077  16.215   9.459  1.00  0.00     0.169 HD
ENDBRANCH   1  11
BRANCH  10  16
HETATM   16  C9  UNL     1     -45.996  13.091  10.081  1.00  0.00     0.269 C
HETATM   17  O2  UNL     1     -45.159  12.896  11.053  1.00  0.00    -0.266 OA
HETATM   18  N2  UNL     1     -47.308  13.152  10.527  1.00  0.00    -0.265 N
HETATM   19 CL3  UNL     1     -47.657  13.036  12.275  1.00  0.00     0.013 Cl
ATOM     20  H2  UNL     1     -48.071  13.262   9.859  1.00  0.00     0.183 HD
ENDBRANCH  10  16
TORSDOF 2
ENDMDL