MODEL 1
REMARK VINA RESULT: -7.913470840      0.000      0.000
REMARK  5 active torsions:
REMARK  status: ('A' for Active; 'I' for Inactive)
REMARK    1  A    between atoms: O1_1  and  C1_3
REMARK    2  A    between atoms: C4_6  and  O2_7
REMARK    3  A    between atoms: N1_9  and  C5_10
REMARK    4  A    between atoms: C5_10  and  C6_11
REMARK    5  A    between atoms: C6_11  and  N2_12
ROOT
HETATM    1  C1  UNL     1     -46.653  11.242   8.240  1.00  0.00     0.151 A
HETATM    2  C2  UNL     1     -47.087   9.975   8.017  1.00  0.00     0.008 A
HETATM    3  C3  UNL     1     -46.716   9.675   6.706  1.00  0.00     0.014 A
HETATM    4  C4  UNL     1     -46.070  10.750   6.156  1.00  0.00     0.151 A
HETATM    5  N1  UNL     1     -46.043  11.696   7.114  1.00  0.00    -0.306 N
HETATM    6  C12 UNL     1     -47.116   8.298   6.275  1.00  0.00     0.096 C
HETATM    7  C13 UNL     1     -46.468   7.360   7.302  1.00  0.00     0.016 C
HETATM    8  C14 UNL     1     -46.899   7.669   8.694  1.00  0.00     0.010 C
HETATM    9  C15 UNL     1     -47.800   8.891   8.737  1.00  0.00     0.029 C
HETATM   10  C16 UNL     1     -49.012   8.534   7.864  1.00  0.00     0.089 C
HETATM   11  C17 UNL     1     -48.612   8.160   6.478  1.00  0.00     0.252 C
HETATM   12  F1  UNL     1     -49.214   9.010   5.541  1.00  0.00    -0.206 F
HETATM   13  F2  UNL     1     -48.943   6.841   6.180  1.00  0.00    -0.206 F
ENDROOT
BRANCH   5  14
HETATM   14  C5  UNL     1     -45.443  12.991   6.928  1.00  0.00     0.152 C
BRANCH  14  15
HETATM   15  C6  UNL     1     -44.108  13.123   7.600  1.00  0.00     0.137 C
BRANCH  15  16
HETATM   16  N2  UNL     1     -44.088  14.270   8.446  1.00  0.00    -0.411 N
HETATM   17  C7  UNL     1     -42.948  15.110   8.297  1.00  0.00     0.117 C
HETATM   18  C8  UNL     1     -43.350  16.472   7.731  1.00  0.00     0.019 C
HETATM   19  C9  UNL     1     -44.222  17.138   8.765  1.00  0.00     0.003 C
HETATM   20  C10 UNL     1     -45.097  16.160   9.490  1.00  0.00     0.019 C
HETATM   21  C11 UNL     1     -45.334  14.946   8.589  1.00  0.00     0.117 C
ENDBRANCH  15  16
ENDBRANCH  14  15
ENDBRANCH   5  14
BRANCH   1  22
HETATM   22  O1  UNL     1     -46.833  11.912   9.446  1.00  0.00    -0.345 OA
ATOM     23  H1  UNL     1     -46.736  12.852   9.542  1.00  0.00     0.219 HD
ENDBRANCH   1  22
BRANCH   4  24
HETATM   24  O2  UNL     1     -45.569  10.783   4.861  1.00  0.00    -0.345 OA
ATOM     25  H2  UNL     1     -46.102  10.910   4.084  1.00  0.00     0.219 HD
ENDBRANCH   4  24
TORSDOF 5
ENDMDL