MODEL 2
REMARK VINA RESULT: -7.305851827      0.571      1.126
REMARK  4 active torsions:
REMARK  status: ('A' for Active; 'I' for Inactive)
REMARK       I    between atoms: C1_2  and  N1_3
REMARK    1  A    between atoms: C1_2  and  C7_15
REMARK    2  A    between atoms: N1_3  and  N2_5
REMARK    3  A    between atoms: N2_5  and  C2_6
REMARK    4  A    between atoms: C2_6  and  C3_7
ROOT
HETATM    1  O1  UNL     1     -44.905  10.606   4.918  1.00  0.00    -0.267 OA
HETATM    2  C1  UNL     1     -45.494  11.123   5.939  1.00  0.00     0.262 C
HETATM    3  N1  UNL     1     -46.732  10.556   6.259  1.00  0.00    -0.270 N
ATOM      4  H1  UNL     1     -47.240  10.931   7.059  1.00  0.00     0.185 HD
ENDROOT
BRANCH   3   5
HETATM    5  N2  UNL     1     -47.316   9.503   5.543  1.00  0.00    -0.133 NA
BRANCH   5   6
HETATM    6  C2  UNL     1     -48.281   8.854   6.409  1.00  0.00     0.183 C
BRANCH   6   7
HETATM    7  C3  UNL     1     -49.248   8.167   5.474  1.00  0.00     0.024 A
HETATM    8  S1  UNL     1     -50.763   8.696   4.908  1.00  0.00    -0.078 SA
HETATM    9  C4  UNL     1     -51.172   7.367   3.930  1.00  0.00     0.098 A
HETATM   10 CL1  UNL     1     -52.644   7.142   2.965  1.00  0.00    -0.074 Cl
HETATM   11  C5  UNL     1     -50.099   6.529   4.071  1.00  0.00     0.085 A
HETATM   12 CL2  UNL     1     -50.096   4.965   3.198  1.00  0.00    -0.080 Cl
HETATM   13  C6  UNL     1     -49.099   6.944   4.874  1.00  0.00     0.072 A
HETATM   14 CL3  UNL     1     -47.628   5.961   5.163  1.00  0.00    -0.081 Cl
ENDBRANCH   6   7
ENDBRANCH   5   6
ENDBRANCH   3   5
BRANCH   2  15
HETATM   15  C7  UNL     1     -44.843  12.212   6.646  1.00  0.00     0.007 C
HETATM   16  C8  UNL     1     -44.183  11.977   7.770  1.00  0.00    -0.014 C
HETATM   17  C9  UNL     1     -43.542  13.113   8.450  1.00  0.00     0.028 C
HETATM   18  C10 UNL     1     -44.424  14.339   8.485  1.00  0.00     0.004 C
HETATM   19  C11 UNL     1     -45.081  14.641   7.191  1.00  0.00     0.005 C
HETATM   20  C12 UNL     1     -44.903  13.573   6.137  1.00  0.00     0.044 C
ENDBRANCH   2  15
TORSDOF 4
ENDMDL