MODEL 3
REMARK VINA RESULT: -7.233687103      8.039     11.211
REMARK  3 active torsions:
REMARK  status: ('A' for Active; 'I' for Inactive)
REMARK    1  A    between atoms: C5_9  and  N2_10
REMARK    2  A    between atoms: N2_10  and  C6_12
REMARK    3  A    between atoms: C6_12  and  C7_13
ROOT
HETATM    1  N2  UNL     1     -48.839   6.592   3.256  1.00  0.00    -0.350 N
ATOM      2  H2  UNL     1     -49.272   5.767   3.670  1.00  0.00     0.166 HD
ENDROOT
BRANCH   1   3
HETATM    3  C5  UNL     1     -48.728   7.548   4.219  1.00  0.00     0.134 A
HETATM    4  C4  UNL     1     -49.887   8.092   4.757  1.00  0.00     0.145 A
HETATM    5  C3  UNL     1     -49.881   9.019   5.807  1.00  0.00     0.272 A
HETATM    6 CL1  UNL     1     -51.433   7.630   4.111  1.00  0.00    -0.074 Cl
HETATM    7  N1  UNL     1     -48.709   9.378   6.300  1.00  0.00    -0.312 N
HETATM    8  O1  UNL     1     -50.947   9.477   6.232  1.00  0.00    -0.266 OA
HETATM    9  C2  UNL     1     -47.553   8.884   5.820  1.00  0.00     0.081 A
ATOM     10  H1  UNL     1     -48.679  10.050   7.067  1.00  0.00     0.170 HD
HETATM   11  C1  UNL     1     -46.321   9.370   6.481  1.00  0.00     0.089 C
HETATM   12  N4  UNL     1     -47.577   8.005   4.814  1.00  0.00    -0.331 N
ATOM     13  H4  UNL     1     -46.686   7.651   4.466  1.00  0.00     0.168 HD
ENDBRANCH   1   3
BRANCH   1  14
HETATM   14  C6  UNL     1     -48.576   6.323   1.903  1.00  0.00     0.104 C
BRANCH  14  15
HETATM   15  C7  UNL     1     -49.659   6.129   0.981  1.00  0.00     0.023 A
HETATM   16  C8  UNL     1     -50.164   4.808   0.829  1.00  0.00     0.050 A
HETATM   17 CL2  UNL     1     -49.126   3.497   1.356  1.00  0.00    -0.083 Cl
HETATM   18  C9  UNL     1     -51.349   4.567   0.240  1.00  0.00     0.067 A
HETATM   19  C10 UNL     1     -52.091   5.628  -0.230  1.00  0.00     0.105 A
HETATM   20 CL3  UNL     1     -53.646   5.404  -0.990  1.00  0.00    -0.065 Cl
HETATM   21  N3  UNL     1     -51.608   6.904  -0.097  1.00  0.00    -0.350 N
HETATM   22  C11 UNL     1     -50.423   7.180   0.497  1.00  0.00     0.019 A
ATOM     23  H3  UNL     1     -52.164   7.678  -0.460  1.00  0.00     0.166 HD
HETATM   24  C12 UNL     1     -49.999   8.559   0.774  1.00  0.00     0.069 C
ENDBRANCH  14  15
ENDBRANCH   1  14
TORSDOF 3
ENDMDL