MODEL 3
REMARK VINA RESULT: -6.343363202      4.983      7.375
REMARK  4 active torsions:
REMARK  status: ('A' for Active; 'I' for Inactive)
REMARK    1  A    between atoms: S1_2  and  C2_3
REMARK    2  A    between atoms: C2_3  and  C3_6
REMARK    3  A    between atoms: C5_9  and  N1_10
REMARK    4  A    between atoms: N1_10  and  C6_12
ROOT
HETATM    1  C3  UNL     1     -45.027  13.041   7.332  1.00  0.00     0.067 A
HETATM    2  C4  UNL     1     -44.878  12.788   5.991  1.00  0.00     0.082 A
HETATM    3  S2  UNL     1     -45.808  11.395   5.761  1.00  0.00    -0.064 SA
HETATM    4  C5  UNL     1     -46.341  11.204   7.379  1.00  0.00     0.150 A
HETATM    5  N4  UNL     1     -45.777  12.209   8.017  1.00  0.00    -0.336 N
ATOM      6  H4  UNL     1     -45.920  12.339   9.019  1.00  0.00     0.168 HD
ENDROOT
BRANCH   4   7
HETATM    7  N1  UNL     1     -47.145  10.311   7.902  1.00  0.00    -0.321 N
ATOM      8  H1  UNL     1     -47.296  10.262   8.910  1.00  0.00     0.169 HD
BRANCH   7   9
HETATM    9  C6  UNL     1     -47.807   9.406   7.007  1.00  0.00     0.130 A
HETATM   10  N2  UNL     1     -48.891   9.672   6.267  1.00  0.00    -0.329 N
HETATM   11  C7  UNL     1     -49.282   8.638   5.516  1.00  0.00     0.119 A
ATOM     12  H2  UNL     1     -49.370  10.572   6.276  1.00  0.00     0.168 HD
HETATM   13  N3  UNL     1     -50.393   8.631   4.638  1.00  0.00    -0.083 NA
HETATM   14  C8  UNL     1     -48.393   7.644   5.798  1.00  0.00     0.073 A
HETATM   15  C9  UNL     1     -47.464   8.079   6.720  1.00  0.00     0.081 A
HETATM   16 CL3  UNL     1     -46.139   7.179   7.395  1.00  0.00    -0.080 Cl
ENDBRANCH   7   9
ENDBRANCH   4   7
BRANCH   1  17
HETATM   17  C2  UNL     1     -44.328  14.249   7.939  1.00  0.00     0.203 C
HETATM   18 CL1  UNL     1     -42.974  13.669   8.989  1.00  0.00    -0.082 Cl
HETATM   19 CL2  UNL     1     -43.661  15.370   6.762  1.00  0.00    -0.082 Cl
BRANCH  17  20
HETATM   20  S1  UNL     1     -45.506  15.060   9.050  1.00  0.00    -0.125 SA
HETATM   21  C1  UNL     1     -44.949  16.723   9.486  1.00  0.00     0.093 C
ENDBRANCH  17  20
ENDBRANCH   1  17
TORSDOF 4
ENDMDL