MODEL 1
REMARK VINA RESULT: -7.648406837      0.000      0.000
REMARK  18 active torsions:
REMARK  status: ('A' for Active; 'I' for Inactive)
REMARK    1  A    between atoms: C3_5  and  O3_6
REMARK    2  A    between atoms: C7_13  and  C8_14
REMARK    3  A    between atoms: C8_14  and  O6_15
REMARK    4  A    between atoms: C8_14  and  O7_17
REMARK    5  A    between atoms: C10_23  and  O9_24
REMARK    6  A    between atoms: C10_23  and  C11_26
REMARK    7  A    between atoms: C11_26  and  O10_27
REMARK    8  A    between atoms: O10_27  and  C12_28
REMARK    9  A    between atoms: C12_28  and  C13_29
REMARK   10  A    between atoms: C12_28  and  C14_32
REMARK   11  A    between atoms: C13_29  and  O11_30
REMARK   12  A    between atoms: C14_32  and  O12_33
REMARK   13  A    between atoms: C17_39  and  O15_40
REMARK   14  A    between atoms: C17_39  and  C18_42
REMARK   15  A    between atoms: C18_42  and  C19_43
REMARK   16  A    between atoms: C19_43  and  O16_44
REMARK   17  A    between atoms: C19_43  and  O17_46
REMARK   18  A    between atoms: N2_48  and  O18_49
ROOT
HETATM    1  O1  UNL     1       2.294  15.003  71.462  1.00  0.00    -0.265 OA
HETATM    2  C1  UNL     1       1.119  15.133  71.871  1.00  0.00     0.272 C
HETATM    3  O2  UNL     1       0.158  14.170  71.592  1.00  0.00    -0.316 OA
HETATM    4  C2  UNL     1      -1.025  14.940  71.282  1.00  0.00     0.248 C
HETATM    5  C3  UNL     1      -1.043  16.021  72.319  1.00  0.00     0.205 C
HETATM    6  O4  UNL     1      -1.745  17.119  72.111  1.00  0.00    -0.292 OA
HETATM    7  C4  UNL     1      -2.559  17.378  71.095  1.00  0.00     0.351 C
HETATM    8  O5  UNL     1      -1.862  17.935  70.058  1.00  0.00    -0.328 OA
HETATM    9  C5  UNL     1      -0.938  18.890  70.329  1.00  0.00     0.217 C
HETATM   10  C6  UNL     1       0.490  18.474  70.178  1.00  0.00     0.030 A
HETATM   11  C7  UNL     1       1.283  18.586  69.037  1.00  0.00     0.098 A
HETATM   12  N1  UNL     1       2.483  18.084  69.372  1.00  0.00    -0.260 N
ATOM     13  H1  UNL     1       3.289  18.023  68.750  1.00  0.00     0.194 HD
HETATM   14  O8  UNL     1       2.458  17.702  70.566  1.00  0.00    -0.238 OA
HETATM   15  C9  UNL     1       1.260  17.909  71.134  1.00  0.00     0.124 A
HETATM   16  C10 UNL     1       0.942  17.557  72.527  1.00  0.00     0.148 C
HETATM   17  C15 UNL     1       0.431  16.158  72.658  1.00  0.00     0.193 C
HETATM   18  C16 UNL     1      -3.507  16.322  70.655  1.00  0.00     0.345 C
HETATM   19  O13 UNL     1      -3.588  15.601  69.635  1.00  0.00    -0.257 OA
HETATM   20  O14 UNL     1      -4.411  16.266  71.713  1.00  0.00    -0.261 OA
HETATM   21  C17 UNL     1      -4.638  17.616  72.127  1.00  0.00     0.266 C
HETATM   22  N2  UNL     1      -3.574  18.367  71.518  1.00  0.00    -0.068 NA
ENDROOT
BRANCH  22  23
HETATM   23  O18 UNL     1      -3.131  19.281  72.361  1.00  0.00    -0.303 OA
ATOM     24  H18 UNL     1      -2.185  19.346  72.410  1.00  0.00     0.237 HD
ENDBRANCH  22  23
BRANCH   5  25
HETATM   25  O3  UNL     1      -1.634  15.398  73.459  1.00  0.00    -0.363 OA
ATOM     26  H3  UNL     1      -2.003  16.122  73.952  1.00  0.00     0.213 HD
ENDBRANCH   5  25
BRANCH  21  27
HETATM   27  O15 UNL     1      -4.491  17.629  73.510  1.00  0.00    -0.351 OA
ATOM     28  H15 UNL     1      -3.659  18.051  73.686  1.00  0.00     0.214 HD
ENDBRANCH  21  27
BRANCH  21  29
HETATM   29  C18 UNL     1      -6.008  18.090  71.785  1.00  0.00     0.150 C
BRANCH  29  30
HETATM   30  C19 UNL     1      -6.522  18.961  72.939  1.00  0.00     0.260 C
BRANCH  30  31
HETATM   31  O16 UNL     1      -5.790  20.167  72.977  1.00  0.00    -0.371 OA
ATOM     32  H16 UNL     1      -6.366  20.877  73.235  1.00  0.00     0.212 HD
ENDBRANCH  30  31
BRANCH  30  33
HETATM   33  O17 UNL     1      -7.855  19.261  72.815  1.00  0.00    -0.371 OA
ATOM     34  H17 UNL     1      -8.053  20.150  73.085  1.00  0.00     0.212 HD
ENDBRANCH  30  33
ENDBRANCH  29  30
ENDBRANCH  21  29
BRANCH  16  35
HETATM   35  O9  UNL     1       0.022  18.468  73.123  1.00  0.00    -0.380 OA
ATOM     36  H9  UNL     1      -0.869  18.331  72.825  1.00  0.00     0.211 HD
ENDBRANCH  16  35
BRANCH  16  37
HETATM   37  C11 UNL     1       2.141  17.766  73.442  1.00  0.00     0.214 C
BRANCH  37  38
HETATM   38  O10 UNL     1       2.235  19.007  73.978  1.00  0.00    -0.378 OA
BRANCH  38  39
HETATM   39  C12 UNL     1       3.511  19.370  74.316  1.00  0.00     0.168 C
BRANCH  39  40
HETATM   40  C13 UNL     1       4.299  18.075  74.551  1.00  0.00     0.198 C
BRANCH  40  41
HETATM   41  O11 UNL     1       4.271  17.755  75.911  1.00  0.00    -0.398 OA
ATOM     42  H11 UNL     1       4.879  18.316  76.379  1.00  0.00     0.209 HD
ENDBRANCH  40  41
ENDBRANCH  39  40
BRANCH  39  43
HETATM   43  C14 UNL     1       3.589  20.151  75.608  1.00  0.00     0.198 C
BRANCH  43  44
HETATM   44  O12 UNL     1       4.916  20.534  75.868  1.00  0.00    -0.398 OA
ATOM     45  H12 UNL     1       5.306  19.955  76.514  1.00  0.00     0.209 HD
ENDBRANCH  43  44
ENDBRANCH  39  43
ENDBRANCH  38  39
ENDBRANCH  37  38
ENDBRANCH  16  37
BRANCH  11  46
HETATM   46  C8  UNL     1       0.941  19.147  67.689  1.00  0.00     0.307 C
BRANCH  46  47
HETATM   47  O6  UNL     1       1.826  18.754  66.704  1.00  0.00    -0.366 OA
ATOM     48  H6  UNL     1       1.768  19.289  65.922  1.00  0.00     0.213 HD
ENDBRANCH  46  47
BRANCH  46  49
HETATM   49  O7  UNL     1       0.790  20.530  67.744  1.00  0.00    -0.366 OA
ATOM     50  H7  UNL     1      -0.106  20.784  67.560  1.00  0.00     0.213 HD
ENDBRANCH  46  49
ENDBRANCH  11  46
TORSDOF 18
ENDMDL