MODEL 5
REMARK VINA RESULT: -7.891881827      1.341      1.452
REMARK  16 active torsions:
REMARK  status: ('A' for Active; 'I' for Inactive)
REMARK    1  A    between atoms: N1_1  and  C1_4
REMARK    2  A    between atoms: C2_7  and  N3_8
REMARK    3  A    between atoms: C3_13  and  N5_14
REMARK    4  A    between atoms: N5_14  and  C4_16
REMARK    5  A    between atoms: C6_18  and  N6_19
REMARK    6  A    between atoms: C7_23  and  O1_24
REMARK    7  A    between atoms: O1_24  and  S1_25
REMARK    8  A    between atoms: S1_25  and  N7_28
REMARK    9  A    between atoms: N7_28  and  N8_29
REMARK   10  A    between atoms: N7_28  and  C8_32
REMARK   11  A    between atoms: N11_37  and  C9_38
REMARK   12  A    between atoms: C9_38  and  C10_39
REMARK   13  A    between atoms: C10_39  and  N12_40
REMARK   14  A    between atoms: C13_49  and  C14_50
REMARK   15  A    between atoms: C14_50  and  O4_51
REMARK   16  A    between atoms: N16_53  and  O5_55
ROOT
HETATM    1  C4  UNL     1       0.260  21.460  69.335  1.00  0.00     0.302 C
HETATM    2  C5  UNL     1       0.476  20.007  69.035  1.00  0.00     0.090 C
HETATM    3  C6  UNL     1       0.878  19.319  70.322  1.00  0.00     0.219 C
HETATM    4  C7  UNL     1       0.658  20.180  71.538  1.00  0.00     0.213 C
HETATM    5  C13 UNL     1      -0.613  20.957  71.509  1.00  0.00     0.296 C
HETATM    6  N17 UNL     1      -0.891  21.554  70.221  1.00  0.00    -0.039 N
ATOM      7 1H17 UNL     1      -1.725  21.152  69.794  1.00  0.00     0.280 HD
ATOM      8 2H17 UNL     1      -1.213  22.517  70.316  1.00  0.00     0.280 HD
ENDROOT
BRANCH   4   9
HETATM    9  O1  UNL     1       0.615  19.343  72.678  1.00  0.00    -0.247 OA
BRANCH   9  10
HETATM   10  S1  UNL     1       2.129  19.244  73.342  1.00  0.00     0.396 S
HETATM   11  O2  UNL     1       3.140  19.757  72.359  1.00  0.00    -0.173 OA
HETATM   12  O3  UNL     1       2.266  20.079  74.599  1.00  0.00    -0.173 OA
BRANCH  10  13
HETATM   13  N7  UNL     1       2.588  17.636  73.757  1.00  0.00     0.014 N
BRANCH  13  14
HETATM   14  N8  UNL     1       3.533  17.356  74.748  1.00  0.00    -0.312 N
ATOM     15  H82 UNL     1       3.415  17.754  75.680  1.00  0.00     0.178 HD
ATOM     16  H81 UNL     1       4.346  16.765  74.580  1.00  0.00     0.178 HD
ENDBRANCH  13  14
BRANCH  13  17
HETATM   17  C8  UNL     1       1.971  16.564  73.055  1.00  0.00     0.746 A
HETATM   18  N9  UNL     1       2.538  15.697  72.185  1.00  0.00    -0.112 N
HETATM   19  N10 UNL     1       1.626  14.846  71.746  1.00  0.00    -0.211 N
ATOM     20  H9  UNL     1       3.520  15.699  71.910  1.00  0.00     0.207 HD
HETATM   21  N11 UNL     1       0.467  15.129  72.307  1.00  0.00    -0.203 N
ATOM     22  H10 UNL     1       1.793  14.091  71.081  1.00  0.00     0.210 HD
HETATM   23  N15 UNL     1       0.684  16.185  73.111  1.00  0.00    -0.110 N
ATOM     24  H15 UNL     1      -0.030  16.637  73.683  1.00  0.00     0.207 HD
BRANCH  21  25
HETATM   25  C9  UNL     1      -0.825  14.502  72.162  1.00  0.00     0.193 C
BRANCH  25  26
HETATM   26  C10 UNL     1      -1.462  14.942  70.876  1.00  0.00     0.173 C
BRANCH  26  27
HETATM   27  N12 UNL     1      -2.669  15.690  71.106  1.00  0.00    -0.286 N
HETATM   28  C11 UNL     1      -3.830  15.585  70.433  1.00  0.00     0.130 A
HETATM   29  C12 UNL     1      -4.734  16.476  70.962  1.00  0.00     0.127 A
HETATM   30  N13 UNL     1      -4.088  17.098  71.948  1.00  0.00    -0.296 N
HETATM   31  N14 UNL     1      -2.859  16.633  72.037  1.00  0.00    -0.241 N
ATOM     32  H13 UNL     1      -4.485  17.824  72.544  1.00  0.00     0.187 HD
ATOM     33  H14 UNL     1      -2.160  16.944  72.711  1.00  0.00     0.208 HD
ENDBRANCH  26  27
ENDBRANCH  25  26
ENDBRANCH  21  25
ENDBRANCH  13  17
ENDBRANCH  10  13
ENDBRANCH   9  10
ENDBRANCH   4   9
BRANCH   3  34
HETATM   34  N6  UNL     1       0.236  18.024  70.453  1.00  0.00    -0.072 N
ATOM     35  H63 UNL     1      -0.649  18.095  70.955  1.00  0.00     0.274 HD
ATOM     36  H62 UNL     1      -0.117  17.690  69.556  1.00  0.00     0.274 HD
ATOM     37  H61 UNL     1       0.859  17.343  70.886  1.00  0.00     0.274 HD
ENDBRANCH   3  34
BRANCH   5  38
HETATM   38  C14 UNL     1      -1.775  20.143  71.956  1.00  0.00     0.169 C
HETATM   39  N16 UNL     1      -2.051  20.040  73.207  1.00  0.00    -0.249 N
ATOM     40  H16 UNL     1      -1.468  20.520  73.893  1.00  0.00     0.196 HD
BRANCH  38  41
HETATM   41  O4  UNL     1      -2.555  19.500  71.030  1.00  0.00    -0.346 OA
ATOM     42  H4  UNL     1      -3.438  19.807  70.860  1.00  0.00     0.219 HD
ENDBRANCH  38  41
BRANCH  39  43
HETATM   43  O5  UNL     1      -3.116  19.294  73.629  1.00  0.00    -0.288 OA
ATOM     44  H5  UNL     1      -3.970  19.691  73.752  1.00  0.00     0.244 HD
ENDBRANCH  39  43
ENDBRANCH   5  38
BRANCH   1  45
HETATM   45  N5  UNL     1       0.032  22.263  68.179  1.00  0.00    -0.195 N
ATOM     46  H5  UNL     1      -0.883  22.703  68.089  1.00  0.00     0.180 HD
BRANCH  45  47
HETATM   47  C3  UNL     1       0.889  22.478  67.237  1.00  0.00     0.709 A
HETATM   48  N4  UNL     1       1.516  23.672  67.166  1.00  0.00    -0.022 N
HETATM   49  C2  UNL     1       2.419  23.974  66.216  1.00  0.00     0.705 A
ATOM     50  H4  UNL     1       1.294  24.379  67.867  1.00  0.00     0.203 HD
HETATM   51  N2  UNL     1       2.710  23.039  65.293  1.00  0.00    -0.022 N
HETATM   52  C1  UNL     1       2.103  21.839  65.336  1.00  0.00     0.705 A
ATOM     53  H2  UNL     1       3.391  23.240  64.561  1.00  0.00     0.203 HD
HETATM   54  N18 UNL     1       1.199  21.563  66.301  1.00  0.00    -0.022 N
ATOM     55  H18 UNL     1       0.747  20.650  66.320  1.00  0.00     0.203 HD
BRANCH  49  56
HETATM   56  N3  UNL     1       3.010  25.140  66.173  1.00  0.00    -0.234 N
ATOM     57  H32 UNL     1       3.797  25.366  66.782  1.00  0.00     0.174 HD
ATOM     58  H31 UNL     1       2.686  25.853  65.519  1.00  0.00     0.174 HD
ENDBRANCH  49  56
BRANCH  52  59
HETATM   59  N1  UNL     1       2.364  20.934  64.467  1.00  0.00    -0.234 N
ATOM     60  H12 UNL     1       2.629  20.006  64.796  1.00  0.00     0.174 HD
ATOM     61  H11 UNL     1       2.310  21.132  63.467  1.00  0.00     0.174 HD
ENDBRANCH  52  59
ENDBRANCH  45  47
ENDBRANCH   1  45
TORSDOF 16
ENDMDL