MODEL 1
REMARK VINA RESULT: -9.511618519      0.000      0.000
REMARK  15 active torsions:
REMARK  status: ('A' for Active; 'I' for Inactive)
REMARK    1  A    between atoms: C2_3  and  N2_4
REMARK    2  A    between atoms: N2_4  and  S1_6
REMARK    3  A    between atoms: S1_6  and  N3_9
REMARK       I    between atoms: N3_9  and  C3_11
REMARK    4  A    between atoms: C3_11  and  C4_13
REMARK    5  A    between atoms: C4_13  and  C5_18
REMARK    6  A    between atoms: N4_14  and  O4_16
REMARK    7  A    between atoms: C5_18  and  O5_19
REMARK    8  A    between atoms: C5_18  and  C6_21
REMARK    9  A    between atoms: C6_21  and  O6_22
REMARK   10  A    between atoms: C6_21  and  C7_24
REMARK   11  A    between atoms: C7_24  and  O7_25
REMARK   12  A    between atoms: C7_24  and  C8_27
REMARK   13  A    between atoms: C11_33  and  C12_34
REMARK   14  A    between atoms: C12_34  and  O9_35
REMARK   15  A    between atoms: C12_34  and  O10_37
ROOT
HETATM    1  C4  UNL     1       0.706  21.306  67.546  1.00  0.00     0.131 C
HETATM    2  N4  UNL     1       0.010  22.249  67.981  1.00  0.00    -0.265 N
ATOM      3  H4  UNL     1       0.043  23.069  67.376  1.00  0.00     0.194 HD
ENDROOT
BRANCH   1   4
HETATM    4  C3  UNL     1       0.843  20.019  68.204  1.00  0.00     0.283 C
HETATM    5  N3  UNL     1       0.619  19.768  69.571  1.00  0.00    -0.232 N
ATOM      6  H3  UNL     1       0.336  20.526  70.193  1.00  0.00     0.183 HD
HETATM    7  O3  UNL     1       1.199  19.018  67.480  1.00  0.00    -0.265 OA
BRANCH   5   8
HETATM    8  S1  UNL     1       0.827  18.161  70.191  1.00  0.00     0.327 S
HETATM    9  O1  UNL     1      -0.124  17.260  69.415  1.00  0.00    -0.182 OA
HETATM   10  O2  UNL     1       2.204  17.666  69.870  1.00  0.00    -0.182 OA
BRANCH   8  11
HETATM   11  N2  UNL     1       0.495  18.056  71.869  1.00  0.00    -0.251 N
ATOM     12  H2  UNL     1      -0.394  17.677  72.194  1.00  0.00     0.182 HD
BRANCH  11  13
HETATM   13  C2  UNL     1       1.464  18.501  72.798  1.00  0.00     0.146 A
HETATM   14  N1  UNL     1       2.335  17.691  73.408  1.00  0.00    -0.320 N
HETATM   15  C1  UNL     1       2.317  16.284  73.146  1.00  0.00     0.159 C
HETATM   16  C16 UNL     1       3.249  18.151  74.287  1.00  0.00     0.134 A
HETATM   17  C15 UNL     1       3.314  19.495  74.589  1.00  0.00     0.131 A
HETATM   18  N9  UNL     1       4.056  17.320  74.837  1.00  0.00    -0.383 N
HETATM   19  C14 UNL     1       2.427  20.364  73.978  1.00  0.00     0.117 A
HETATM   20  N8  UNL     1       4.080  20.230  75.391  1.00  0.00    -0.236 N
HETATM   21  C13 UNL     1       1.512  19.867  73.092  1.00  0.00     0.122 A
HETATM   22  N7  UNL     1       2.731  21.578  74.466  1.00  0.00    -0.237 N
HETATM   23  N6  UNL     1       0.607  20.785  72.473  1.00  0.00    -0.096 NA
HETATM   24  O12 UNL     1       3.717  21.474  75.305  1.00  0.00    -0.156 OA
ATOM     25  H7  UNL     1       2.260  22.448  74.216  1.00  0.00     0.197 HD
ATOM     26  H8  UNL     1       4.833  19.872  75.980  1.00  0.00     0.197 HD
ATOM     27  H92 UNL     1       4.008  16.326  74.614  1.00  0.00     0.157 HD
ATOM     28  H91 UNL     1       4.747  17.667  75.502  1.00  0.00     0.157 HD
ENDBRANCH  11  13
ENDBRANCH   8  11
ENDBRANCH   5   8
ENDBRANCH   1   4
BRANCH   1  29
HETATM   29  C5  UNL     1       1.481  21.446  66.254  1.00  0.00     0.207 C
BRANCH  29  30
HETATM   30  O5  UNL     1       0.628  20.943  65.245  1.00  0.00    -0.387 OA
ATOM     31  H5  UNL     1       0.965  21.295  64.429  1.00  0.00     0.210 HD
ENDBRANCH  29  30
BRANCH  29  32
HETATM   32  C6  UNL     1       1.826  22.858  65.934  1.00  0.00     0.189 C
BRANCH  32  33
HETATM   33  O6  UNL     1       2.863  23.359  66.723  1.00  0.00    -0.390 OA
ATOM     34  H6  UNL     1       3.382  24.019  66.280  1.00  0.00     0.210 HD
ENDBRANCH  32  33
BRANCH  32  35
HETATM   35  C7  UNL     1       2.070  23.030  64.456  1.00  0.00     0.224 C
BRANCH  35  36
HETATM   36  O7  UNL     1       3.289  22.412  64.105  1.00  0.00    -0.385 OA
ATOM     37  H7  UNL     1       3.915  22.523  64.811  1.00  0.00     0.210 HD
ENDBRANCH  35  36
BRANCH  35  38
HETATM   38  C8  UNL     1       2.307  24.499  64.239  1.00  0.00     0.158 A
HETATM   39  N5  UNL     1       3.494  25.073  64.484  1.00  0.00    -0.305 N
HETATM   40  C9  UNL     1       3.705  26.400  64.286  1.00  0.00     0.249 A
ATOM     41  H5  UNL     1       4.261  24.496  64.829  1.00  0.00     0.171 HD
HETATM   42  O8  UNL     1       4.812  26.952  64.511  1.00  0.00    -0.268 OA
HETATM   43  C10 UNL     1       2.651  27.157  63.820  1.00  0.00     0.112 A
HETATM   44  C11 UNL     1       1.439  26.526  63.580  1.00  0.00     0.115 A
HETATM   45  O11 UNL     1       1.332  25.249  63.799  1.00  0.00    -0.294 OA
BRANCH  44  46
HETATM   46  C12 UNL     1       0.286  27.315  63.078  1.00  0.00     0.312 C
BRANCH  46  47
HETATM   47  O9  UNL     1       0.699  28.301  62.180  1.00  0.00    -0.365 OA
ATOM     48  H9  UNL     1       0.657  27.990  61.283  1.00  0.00     0.213 HD
ENDBRANCH  46  47
BRANCH  46  49
HETATM   49  O10 UNL     1      -0.444  27.821  64.125  1.00  0.00    -0.365 OA
ATOM     50  H10 UNL     1      -1.371  27.663  63.992  1.00  0.00     0.213 HD
ENDBRANCH  46  49
ENDBRANCH  44  46
ENDBRANCH  35  38
ENDBRANCH  32  35
ENDBRANCH  29  32
ENDBRANCH   1  29
BRANCH   2  51
HETATM   51  O4  UNL     1      -0.763  22.434  69.046  1.00  0.00    -0.289 OA
ATOM     52  H4  UNL     1      -1.693  22.359  69.223  1.00  0.00     0.244 HD
ENDBRANCH   2  51
TORSDOF 15
ENDMDL