MODEL 4
REMARK VINA RESULT: -8.476140986      2.902      7.341
REMARK  16 active torsions:
REMARK  status: ('A' for Active; 'I' for Inactive)
REMARK    1  A    between atoms: C2_2  and  C3_3
REMARK    2  A    between atoms: C3_3  and  N1_4
REMARK    3  A    between atoms: C4_9  and  N4_10
REMARK    4  A    between atoms: N4_10  and  C5_12
REMARK    5  A    between atoms: C7_16  and  C8_17
REMARK    6  A    between atoms: C8_17  and  O1_18
REMARK    7  A    between atoms: C8_17  and  O2_20
REMARK    8  A    between atoms: C12_27  and  O5_28
REMARK    9  A    between atoms: C13_30  and  N6_31
REMARK   10  A    between atoms: N6_31  and  N7_33
REMARK   11  A    between atoms: N7_33  and  C14_35
REMARK   12  A    between atoms: C15_40  and  N10_41
REMARK   13  A    between atoms: N12_46  and  O6_47
REMARK   14  A    between atoms: N13_49  and  O7_50
REMARK   15  A    between atoms: C16_52  and  C17_53
REMARK   16  A    between atoms: C17_53  and  O9_55
ROOT
HETATM    1  C5  UNL     1      -0.070  20.223  71.305  1.00  0.00     0.184 C
HETATM    2  C6  UNL     1       0.294  18.902  71.692  1.00  0.00     0.099 A
HETATM    3  N5  UNL     1      -0.361  17.962  70.997  1.00  0.00    -0.348 N
ATOM      4  H5  UNL     1      -1.034  18.244  70.283  1.00  0.00     0.166 HD
HETATM    5  C7  UNL     1      -0.145  16.646  71.225  1.00  0.00     0.119 A
HETATM    6  C9  UNL     1       0.759  16.235  72.182  1.00  0.00     0.250 A
HETATM    7  O3  UNL     1       0.923  15.002  72.356  1.00  0.00    -0.282 OA
HETATM    8  C10 UNL     1       1.429  17.200  72.892  1.00  0.00     0.239 A
HETATM    9  O4  UNL     1       2.252  16.857  73.764  1.00  0.00    -0.283 OA
HETATM   10  C11 UNL     1       1.170  18.526  72.616  1.00  0.00     0.086 A
HETATM   11  C12 UNL     1       1.921  19.398  73.402  1.00  0.00     0.132 C
HETATM   12  C13 UNL     1       1.818  20.785  73.575  1.00  0.00     0.203 C
HETATM   13  N12 UNL     1       0.945  21.647  72.981  1.00  0.00    -0.114 N
HETATM   14  N13 UNL     1      -0.016  21.271  72.156  1.00  0.00    -0.115 N
ENDROOT
BRANCH   1  15
HETATM   15  N4  UNL     1      -0.549  20.357  70.004  1.00  0.00    -0.320 N
ATOM     16  H4  UNL     1      -1.367  19.804  69.745  1.00  0.00     0.169 HD
BRANCH  15  17
HETATM   17  C4  UNL     1       0.004  21.191  69.021  1.00  0.00     0.158 A
HETATM   18  N3  UNL     1      -0.127  22.491  68.799  1.00  0.00    -0.269 N
HETATM   19  N2  UNL     1       0.608  22.870  67.817  1.00  0.00    -0.238 N
ATOM     20  H3  UNL     1      -0.733  23.110  69.338  1.00  0.00     0.190 HD
HETATM   21  N1  UNL     1       1.295  21.825  67.303  1.00  0.00    -0.265 N
ATOM     22  H2  UNL     1       0.666  23.827  67.472  1.00  0.00     0.208 HD
HETATM   23  C16 UNL     1       0.936  20.767  68.038  1.00  0.00     0.173 A
BRANCH  21  24
HETATM   24  C3  UNL     1       2.152  22.052  66.179  1.00  0.00     0.177 C
BRANCH  24  25
HETATM   25  C2  UNL     1       1.467  22.364  64.922  1.00  0.00    -0.015 C
HETATM   26  C1  UNL     1       1.567  23.544  64.355  1.00  0.00     0.008 C
ENDBRANCH  24  25
ENDBRANCH  21  24
BRANCH  23  27
HETATM   27  C17 UNL     1       1.440  19.437  67.828  1.00  0.00     0.315 C
HETATM   28  O8  UNL     1       1.414  18.815  66.717  1.00  0.00    -0.257 OA
BRANCH  27  29
HETATM   29  O9  UNL     1       2.006  18.719  68.861  1.00  0.00    -0.321 OA
HETATM   30  C18 UNL     1       3.124  19.164  69.605  1.00  0.00     0.213 C
ENDBRANCH  27  29
ENDBRANCH  23  27
ENDBRANCH  15  17
ENDBRANCH   1  15
BRANCH  14  31
HETATM   31  O7  UNL     1      -1.141  22.068  72.208  1.00  0.00    -0.264 OA
ATOM     32  H7  UNL     1      -1.337  22.459  73.051  1.00  0.00     0.247 HD
ENDBRANCH  14  31
BRANCH  13  33
HETATM   33  O6  UNL     1       1.080  22.978  73.269  1.00  0.00    -0.264 OA
ATOM     34  H6  UNL     1       0.340  23.544  73.080  1.00  0.00     0.247 HD
ENDBRANCH  13  33
BRANCH   5  35
HETATM   35  C8  UNL     1      -0.886  15.614  70.441  1.00  0.00     0.309 C
BRANCH  35  36
HETATM   36  O1  UNL     1      -1.876  16.321  69.724  1.00  0.00    -0.366 OA
ATOM     37  H1  UNL     1      -2.491  16.631  70.378  1.00  0.00     0.213 HD
ENDBRANCH  35  36
BRANCH  35  38
HETATM   38  O2  UNL     1      -1.540  14.741  71.279  1.00  0.00    -0.366 OA
ATOM     39  H2  UNL     1      -1.723  13.921  70.836  1.00  0.00     0.213 HD
ENDBRANCH  35  38
ENDBRANCH   5  35
BRANCH  11  40
HETATM   40  O5  UNL     1       2.922  18.754  74.114  1.00  0.00    -0.356 OA
ATOM     41  H5  UNL     1       3.529  18.285  73.553  1.00  0.00     0.218 HD
ENDBRANCH  11  40
BRANCH  12  42
HETATM   42  N6  UNL     1       2.725  21.389  74.477  1.00  0.00    -0.266 N
ATOM     43  H6  UNL     1       3.499  21.919  74.076  1.00  0.00     0.189 HD
BRANCH  42  44
HETATM   44  N7  UNL     1       2.648  21.322  75.856  1.00  0.00    -0.128 N
ATOM     45  H7  UNL     1       2.681  20.425  76.341  1.00  0.00     0.205 HD
BRANCH  44  46
HETATM   46  C14 UNL     1       2.534  22.443  76.519  1.00  0.00     0.726 A
HETATM   47  N8  UNL     1       1.613  23.412  76.370  1.00  0.00    -0.116 N
HETATM   48  N9  UNL     1       1.835  24.389  77.233  1.00  0.00    -0.117 N
ATOM     49  H8  UNL     1       0.853  23.395  75.690  1.00  0.00     0.206 HD
HETATM   50  C15 UNL     1       2.915  24.058  77.956  1.00  0.00     0.705 A
ATOM     51  H9  UNL     1       1.283  25.242  77.331  1.00  0.00     0.206 HD
HETATM   52  N11 UNL     1       3.354  22.862  77.525  1.00  0.00    -0.019 N
ATOM     53  H11 UNL     1       4.161  22.356  77.889  1.00  0.00     0.203 HD
BRANCH  50  54
HETATM   54  N10 UNL     1       3.468  24.736  78.904  1.00  0.00    -0.233 N
ATOM     55 2H10 UNL     1       4.154  25.476  78.755  1.00  0.00     0.174 HD
ATOM     56 1H10 UNL     1       3.316  24.644  79.909  1.00  0.00     0.174 HD
ENDBRANCH  50  54
ENDBRANCH  44  46
ENDBRANCH  42  44
ENDBRANCH  12  42
TORSDOF 16
ENDMDL