MODEL 4
REMARK VINA RESULT: -9.092810499      2.693      4.300
REMARK  16 active torsions:
REMARK  status: ('A' for Active; 'I' for Inactive)
REMARK    1  A    between atoms: C3_6  and  O2_7
REMARK    2  A    between atoms: C4_9  and  C5_10
REMARK    3  A    between atoms: C5_10  and  C6_11
REMARK    4  A    between atoms: C6_11  and  O3_12
REMARK    5  A    between atoms: C6_11  and  O4_14
REMARK    6  A    between atoms: O4_14  and  C7_15
REMARK    7  A    between atoms: C7_15  and  C8_16
REMARK    8  A    between atoms: C8_16  and  N2_17
REMARK    9  A    between atoms: N2_17  and  O5_18
REMARK   10  A    between atoms: N2_17  and  N3_20
REMARK   11  A    between atoms: C10_29  and  N7_30
REMARK   12  A    between atoms: C12_32  and  O6_33
REMARK   13  A    between atoms: C13_35  and  O7_36
REMARK   14  A    between atoms: C14_38  and  C15_39
REMARK   15  A    between atoms: C15_39  and  N8_40
REMARK   16  A    between atoms: C18_47  and  N11_48
ROOT
HETATM    1  N3  UNL     1       0.329  18.209  70.712  1.00  0.00     0.017 N
HETATM    2  N4  UNL     1      -0.974  18.180  70.451  1.00  0.00    -0.094 N
ATOM      3  H4  UNL     1      -1.383  17.942  69.548  1.00  0.00     0.208 HD
HETATM    4  C9  UNL     1      -1.678  18.511  71.550  1.00  0.00     0.707 A
HETATM    5  N5  UNL     1      -2.945  18.597  71.701  1.00  0.00    -0.233 N
ATOM      6  H51 UNL     1      -3.479  18.848  72.533  1.00  0.00     0.174 HD
ATOM      7  H52 UNL     1      -3.642  18.419  70.978  1.00  0.00     0.174 HD
HETATM    8  N6  UNL     1      -0.765  18.745  72.498  1.00  0.00    -0.018 N
ATOM      9  H6  UNL     1      -0.977  19.019  73.458  1.00  0.00     0.203 HD
HETATM   10  C10 UNL     1       0.490  18.562  71.998  1.00  0.00     0.733 A
ENDROOT
BRANCH  10  11
HETATM   11  N7  UNL     1       1.634  18.749  72.797  1.00  0.00    -0.211 N
HETATM   12  C11 UNL     1       2.014  17.696  73.699  1.00  0.00     0.175 C
HETATM   13  C12 UNL     1       3.379  17.856  74.270  1.00  0.00     0.165 C
HETATM   14  C13 UNL     1       3.882  19.241  74.408  1.00  0.00     0.155 C
HETATM   15  C14 UNL     1       2.995  20.342  74.036  1.00  0.00     0.055 C
HETATM   16  C19 UNL     1       2.362  19.990  72.686  1.00  0.00     0.150 C
BRANCH  13  17
HETATM   17  O6  UNL     1       3.542  17.085  75.455  1.00  0.00    -0.391 OA
ATOM     18  H6  UNL     1       3.403  17.611  76.234  1.00  0.00     0.210 HD
ENDBRANCH  13  17
BRANCH  14  19
HETATM   19  O7  UNL     1       4.583  19.405  75.614  1.00  0.00    -0.392 OA
ATOM     20  H7  UNL     1       5.454  19.752  75.458  1.00  0.00     0.210 HD
ENDBRANCH  14  19
BRANCH  15  21
HETATM   21  C15 UNL     1       1.908  20.811  74.909  1.00  0.00     0.161 C
BRANCH  21  22
HETATM   22  N8  UNL     1       2.169  21.915  75.783  1.00  0.00    -0.260 N
HETATM   23  N9  UNL     1       3.153  21.806  76.655  1.00  0.00    -0.237 N
HETATM   24  N10 UNL     1       3.412  22.772  77.518  1.00  0.00    -0.268 N
ATOM     25  H9  UNL     1       3.724  20.961  76.663  1.00  0.00     0.208 HD
HETATM   26  C16 UNL     1       2.675  23.897  77.531  1.00  0.00     0.166 A
ATOM     27  H10 UNL     1       4.178  22.663  78.182  1.00  0.00     0.190 HD
HETATM   28  C17 UNL     1       1.634  24.065  76.640  1.00  0.00     0.138 A
HETATM   29  N14 UNL     1       2.685  25.107  78.312  1.00  0.00    -0.266 N
HETATM   30  C18 UNL     1       1.412  23.009  75.753  1.00  0.00     0.149 A
HETATM   31  N12 UNL     1       1.016  25.328  76.848  1.00  0.00    -0.277 N
HETATM   32  N13 UNL     1       1.790  26.032  77.773  1.00  0.00    -0.020 NA
ATOM     33  H12 UNL     1       0.162  25.660  76.401  1.00  0.00     0.184 HD
ATOM     34  H14 UNL     1       3.262  25.264  79.138  1.00  0.00     0.186 HD
BRANCH  30  35
HETATM   35  N11 UNL     1       0.448  23.217  74.894  1.00  0.00    -0.382 N
ATOM     36 2H11 UNL     1      -0.401  22.681  75.074  1.00  0.00     0.157 HD
ATOM     37 1H11 UNL     1       0.499  23.878  74.119  1.00  0.00     0.157 HD
ENDBRANCH  30  35
ENDBRANCH  21  22
ENDBRANCH  15  21
ENDBRANCH  10  11
BRANCH   1  38
HETATM   38  N2  UNL     1       1.372  17.940  69.839  1.00  0.00    -0.163 N
BRANCH  38  39
HETATM   39  C8  UNL     1       1.630  18.759  68.674  1.00  0.00     0.205 C
BRANCH  39  40
HETATM   40  C7  UNL     1       2.763  19.757  68.907  1.00  0.00     0.195 C
BRANCH  40  41
HETATM   41  O4  UNL     1       2.298  21.034  68.628  1.00  0.00    -0.359 OA
BRANCH  41  42
HETATM   42  C6  UNL     1       0.951  21.218  68.852  1.00  0.00     0.261 C
BRANCH  42  43
HETATM   43  C5  UNL     1       0.380  22.254  67.885  1.00  0.00     0.106 C
BRANCH  43  44
HETATM   44  C4  UNL     1       1.224  22.340  66.664  1.00  0.00     0.031 A
HETATM   45  C2  UNL     1       2.135  23.335  66.366  1.00  0.00     0.040 A
HETATM   46  C1  UNL     1       2.479  24.522  67.203  1.00  0.00     0.071 C
HETATM   47  N1  UNL     1       2.653  23.024  65.180  1.00  0.00    -0.263 N
HETATM   48  O1  UNL     1       2.122  21.922  64.745  1.00  0.00    -0.212 OA
ATOM     49  H1  UNL     1       3.360  23.569  64.688  1.00  0.00     0.194 HD
HETATM   50  C3  UNL     1       1.246  21.460  65.606  1.00  0.00     0.213 A
BRANCH  50  51
HETATM   51  O2  UNL     1       0.507  20.298  65.436  1.00  0.00    -0.339 OA
ATOM     52  H2  UNL     1      -0.412  20.270  65.197  1.00  0.00     0.220 HD
ENDBRANCH  50  51
ENDBRANCH  43  44
ENDBRANCH  42  43
BRANCH  42  53
HETATM   53  O3  UNL     1       0.728  21.685  70.154  1.00  0.00    -0.371 OA
ATOM     54  H3  UNL     1       0.602  20.927  70.714  1.00  0.00     0.212 HD
ENDBRANCH  42  53
ENDBRANCH  41  42
ENDBRANCH  40  41
ENDBRANCH  39  40
ENDBRANCH  38  39
BRANCH  38  55
HETATM   55  O5  UNL     1       2.219  16.889  70.050  1.00  0.00    -0.270 OA
ATOM     56  H5  UNL     1       2.380  16.644  70.954  1.00  0.00     0.246 HD
ENDBRANCH  38  55
ENDBRANCH   1  38
TORSDOF 16
ENDMDL