MODEL 5
REMARK VINA RESULT: -7.628395310      6.227      8.780
REMARK  19 active torsions:
REMARK  status: ('A' for Active; 'I' for Inactive)
REMARK    1  A    between atoms: C4_7  and  C5_8
REMARK    2  A    between atoms: C5_8  and  C6_9
REMARK    3  A    between atoms: C6_9  and  O2_10
REMARK    4  A    between atoms: C6_9  and  C7_12
REMARK    5  A    between atoms: C7_12  and  O3_13
REMARK    6  A    between atoms: C7_12  and  C8_15
REMARK    7  A    between atoms: C8_15  and  O4_16
REMARK    8  A    between atoms: C8_15  and  C9_18
REMARK    9  A    between atoms: C9_18  and  O5_19
REMARK   10  A    between atoms: C9_18  and  O6_21
REMARK   11  A    between atoms: C11_24  and  O7_25
REMARK   12  A    between atoms: C12_27  and  O8_28
REMARK   13  A    between atoms: C13_32  and  N3_33
REMARK   14  A    between atoms: C14_38  and  C15_39
REMARK   15  A    between atoms: C15_39  and  O9_40
REMARK   16  A    between atoms: C15_39  and  C16_42
REMARK   17  A    between atoms: C16_42  and  O10_43
REMARK   18  A    between atoms: C17_45  and  C18_46
REMARK   19  A    between atoms: C18_46  and  O11_47
ROOT
HETATM    1  O1  UNL     1       1.255  21.378  72.326  1.00  0.00    -0.283 OA
HETATM    2  C1  UNL     1       1.104  21.919  73.433  1.00  0.00     0.233 C
HETATM    3  C2  UNL     1       1.913  21.462  74.493  1.00  0.00     0.131 C
HETATM    4  C3  UNL     1       2.409  20.117  74.310  1.00  0.00     0.100 A
HETATM    5  N1  UNL     1       2.063  19.461  73.178  1.00  0.00    -0.355 N
ATOM      6  H1  UNL     1       1.469  19.965  72.521  1.00  0.00     0.166 HD
HETATM    7  C4  UNL     1       2.417  18.231  72.836  1.00  0.00     0.015 A
HETATM    8  C10 UNL     1       3.219  17.542  73.720  1.00  0.00     0.064 A
HETATM    9  C11 UNL     1       3.630  18.113  74.900  1.00  0.00     0.103 A
HETATM   10  C12 UNL     1       3.210  19.424  75.188  1.00  0.00     0.128 A
HETATM   11  N2  UNL     1       2.175  22.209  75.545  1.00  0.00    -0.183 N
ATOM     12  H2  UNL     1       3.018  21.914  76.038  1.00  0.00     0.184 HD
HETATM   13  C13 UNL     1       1.585  23.272  76.116  1.00  0.00     0.707 C
HETATM   14  N6  UNL     1       0.643  24.036  75.554  1.00  0.00    -0.170 N
ATOM     15  H6  UNL     1       0.422  24.886  76.073  1.00  0.00     0.186 HD
HETATM   16  C19 UNL     1      -0.069  23.874  74.412  1.00  0.00     0.175 A
HETATM   17  N7  UNL     1      -1.106  24.620  74.017  1.00  0.00    -0.223 N
ATOM     18  H7  UNL     1      -1.509  25.415  74.513  1.00  0.00     0.198 HD
HETATM   19  O12 UNL     1      -1.502  24.136  72.875  1.00  0.00    -0.155 OA
HETATM   20  N8  UNL     1      -0.786  23.126  72.512  1.00  0.00    -0.234 N
ATOM     21  H8  UNL     1      -0.903  22.582  71.658  1.00  0.00     0.197 HD
HETATM   22  C20 UNL     1       0.136  22.921  73.453  1.00  0.00     0.155 A
ENDROOT
BRANCH  10  23
HETATM   23  O8  UNL     1       3.629  19.942  76.342  1.00  0.00    -0.356 OA
ATOM     24  H8  UNL     1       3.635  19.448  77.154  1.00  0.00     0.218 HD
ENDBRANCH  10  23
BRANCH  13  25
HETATM   25  N3  UNL     1       2.001  23.611  77.429  1.00  0.00    -0.072 N
HETATM   26  N4  UNL     1       2.866  24.574  77.787  1.00  0.00    -0.221 N
HETATM   27  N5  UNL     1       3.018  24.608  79.094  1.00  0.00    -0.285 N
ATOM     28  H4  UNL     1       3.341  25.197  77.134  1.00  0.00     0.209 HD
HETATM   29  C14 UNL     1       2.245  23.647  79.660  1.00  0.00     0.085 A
ATOM     30  H5  UNL     1       3.622  25.254  79.602  1.00  0.00     0.188 HD
HETATM   31  C17 UNL     1       1.620  23.039  78.591  1.00  0.00     0.103 A
BRANCH  29  32
HETATM   32  C15 UNL     1       2.086  23.306  81.091  1.00  0.00     0.195 C
BRANCH  32  33
HETATM   33  O9  UNL     1       2.649  22.098  81.429  1.00  0.00    -0.387 OA
ATOM     34  H9  UNL     1       2.016  21.393  81.496  1.00  0.00     0.210 HD
ENDBRANCH  32  33
BRANCH  32  35
HETATM   35  C16 UNL     1       2.701  24.460  81.889  1.00  0.00     0.202 C
BRANCH  35  36
HETATM   36  O10 UNL     1       4.068  24.344  81.984  1.00  0.00    -0.398 OA
ATOM     37  H10 UNL     1       4.499  25.187  81.916  1.00  0.00     0.209 HD
ENDBRANCH  35  36
ENDBRANCH  32  35
ENDBRANCH  29  32
BRANCH  31  38
HETATM   38  C18 UNL     1       0.657  21.913  78.701  1.00  0.00     0.226 C
BRANCH  38  39
HETATM   39  O11 UNL     1       1.208  20.714  78.268  1.00  0.00    -0.395 OA
ATOM     40  H11 UNL     1       0.731  19.963  78.601  1.00  0.00     0.209 HD
ENDBRANCH  38  39
ENDBRANCH  31  38
ENDBRANCH  13  25
BRANCH   7  41
HETATM   41  C5  UNL     1       2.008  17.596  71.557  1.00  0.00     0.091 C
BRANCH  41  42
HETATM   42  C6  UNL     1       1.956  18.619  70.469  1.00  0.00     0.155 C
BRANCH  42  43
HETATM   43  O2  UNL     1       2.896  18.367  69.461  1.00  0.00    -0.393 OA
ATOM     44  H2  UNL     1       2.825  17.483  69.119  1.00  0.00     0.210 HD
ENDBRANCH  42  43
BRANCH  42  45
HETATM   45  C7  UNL     1       0.614  18.789  69.824  1.00  0.00     0.180 C
BRANCH  45  46
HETATM   46  O3  UNL     1       0.703  18.085  68.586  1.00  0.00    -0.390 OA
ATOM     47  H3  UNL     1       0.861  17.179  68.825  1.00  0.00     0.210 HD
ENDBRANCH  45  46
BRANCH  45  48
HETATM   48  C8  UNL     1      -0.503  18.135  70.617  1.00  0.00     0.204 C
BRANCH  48  49
HETATM   49  O4  UNL     1      -1.339  17.391  69.785  1.00  0.00    -0.388 OA
ATOM     50  H4  UNL     1      -1.007  16.509  69.667  1.00  0.00     0.210 HD
ENDBRANCH  48  49
BRANCH  48  51
HETATM   51  C9  UNL     1      -1.240  19.174  71.397  1.00  0.00     0.285 C
BRANCH  51  52
HETATM   52  O5  UNL     1      -1.069  20.449  70.916  1.00  0.00    -0.369 OA
ATOM     53  H5  UNL     1      -1.393  20.569  70.031  1.00  0.00     0.212 HD
ENDBRANCH  51  52
BRANCH  51  54
HETATM   54  O6  UNL     1      -0.939  19.152  72.749  1.00  0.00    -0.369 OA
ATOM     55  H6  UNL     1      -0.139  19.618  72.960  1.00  0.00     0.212 HD
ENDBRANCH  51  54
ENDBRANCH  48  51
ENDBRANCH  45  48
ENDBRANCH  42  45
ENDBRANCH  41  42
ENDBRANCH   7  41
BRANCH   9  56
HETATM   56  O7  UNL     1       4.431  17.468  75.816  1.00  0.00    -0.358 OA
ATOM     57  H7  UNL     1       4.809  17.898  76.575  1.00  0.00     0.217 HD
ENDBRANCH   9  56
TORSDOF 19
ENDMDL