MODEL 1
REMARK VINA RESULT: -8.087009589      0.000      0.000
REMARK  18 active torsions:
REMARK  status: ('A' for Active; 'I' for Inactive)
REMARK    1  A    between atoms: O1_2  and  C2_3
REMARK    2  A    between atoms: C6_12  and  C7_13
REMARK    3  A    between atoms: C7_13  and  O2_14
REMARK    4  A    between atoms: N3_17  and  O3_18
REMARK    5  A    between atoms: O3_18  and  C8_19
REMARK    6  A    between atoms: C8_19  and  O4_20
REMARK    7  A    between atoms: C8_19  and  C9_22
REMARK    8  A    between atoms: C9_22  and  O5_23
REMARK    9  A    between atoms: C9_22  and  C16_43
REMARK   10  A    between atoms: O5_23  and  N4_24
REMARK   11  A    between atoms: N4_24  and  C10_25
REMARK   12  A    between atoms: N4_24  and  C14_37
REMARK   13  A    between atoms: C12_30  and  O7_31
REMARK   14  A    between atoms: C13_33  and  O8_34
REMARK   15  A    between atoms: C14_37  and  N6_39
REMARK   16  A    between atoms: C16_43  and  O10_44
REMARK   17  A    between atoms: C16_43  and  O11_46
REMARK   18  A    between atoms: N7_49  and  O12_51
ROOT
HETATM    1  C8  UNL     1       0.799  21.518  68.745  1.00  0.00     0.316 C
ENDROOT
BRANCH   1   2
HETATM    2  O3  UNL     1       0.579  20.711  69.825  1.00  0.00    -0.256 OA
BRANCH   2   3
HETATM    3  N3  UNL     1       1.034  21.209  70.997  1.00  0.00    -0.109 NA
HETATM    4  C4  UNL     1       1.165  20.205  72.035  1.00  0.00     0.153 C
HETATM    5  C3  UNL     1       2.159  19.166  71.711  1.00  0.00     0.106 C
HETATM    6  C5  UNL     1      -0.129  19.560  72.303  1.00  0.00     0.061 C
HETATM    7  C17 UNL     1       1.763  20.912  73.210  1.00  0.00     0.091 C
HETATM    8  N1  UNL     1       3.319  19.439  72.507  1.00  0.00    -0.347 N
HETATM    9  N2  UNL     1       2.106  18.166  70.895  1.00  0.00    -0.387 N
HETATM   10  C2  UNL     1       2.891  20.102  73.743  1.00  0.00     0.273 C
ATOM     11  H1  UNL     1       4.282  19.210  72.256  1.00  0.00     0.163 HD
ATOM     12  H22 UNL     1       2.794  17.447  70.670  1.00  0.00     0.157 HD
ATOM     13  H21 UNL     1       1.281  17.972  70.328  1.00  0.00     0.157 HD
HETATM   14  C6  UNL     1      -1.268  20.462  72.060  1.00  0.00     0.092 C
HETATM   15  S1  UNL     1      -0.421  22.029  71.678  1.00  0.00    -0.046 SA
HETATM   16  N7  UNL     1       1.418  22.031  73.726  1.00  0.00    -0.270 N
ATOM     17  H7  UNL     1       0.639  22.557  73.333  1.00  0.00     0.193 HD
BRANCH  10  18
HETATM   18  O1  UNL     1       2.351  19.168  74.629  1.00  0.00    -0.366 OA
HETATM   19  C1  UNL     1       3.313  18.333  75.161  1.00  0.00     0.204 C
ENDBRANCH  10  18
BRANCH  14  20
HETATM   20  C7  UNL     1      -2.302  20.563  73.094  1.00  0.00     0.180 C
BRANCH  20  21
HETATM   21  O2  UNL     1      -2.661  19.416  73.737  1.00  0.00    -0.400 OA
ATOM     22  H2  UNL     1      -3.543  19.092  73.593  1.00  0.00     0.209 HD
ENDBRANCH  20  21
ENDBRANCH  14  20
BRANCH  16  23
HETATM   23  O12 UNL     1       2.098  22.516  74.803  1.00  0.00    -0.290 OA
ATOM     24  H12 UNL     1       2.162  21.994  75.595  1.00  0.00     0.244 HD
ENDBRANCH  16  23
ENDBRANCH   2   3
ENDBRANCH   1   2
BRANCH   1  25
HETATM   25  O4  UNL     1       1.839  22.392  69.071  1.00  0.00    -0.367 OA
ATOM     26  H4  UNL     1       1.457  23.245  69.242  1.00  0.00     0.212 HD
ENDBRANCH   1  25
BRANCH   1  27
HETATM   27  C9  UNL     1       1.276  20.759  67.507  1.00  0.00     0.263 C
BRANCH  27  28
HETATM   28  O5  UNL     1       2.360  21.450  67.002  1.00  0.00    -0.257 OA
BRANCH  28  29
HETATM   29  N4  UNL     1       2.186  22.018  65.828  1.00  0.00    -0.189 N
BRANCH  29  30
HETATM   30  C10 UNL     1       2.403  23.406  65.654  1.00  0.00     0.258 A
HETATM   31  N5  UNL     1       2.741  23.948  64.469  1.00  0.00    -0.285 N
HETATM   32  C11 UNL     1       2.953  25.253  64.272  1.00  0.00     0.286 A
ATOM     33  H5  UNL     1       2.842  23.322  63.671  1.00  0.00     0.172 HD
HETATM   34  O6  UNL     1       3.269  25.733  63.146  1.00  0.00    -0.265 OA
HETATM   35  C12 UNL     1       2.820  26.125  65.347  1.00  0.00     0.193 A
HETATM   36  C13 UNL     1       2.475  25.547  66.545  1.00  0.00     0.226 A
HETATM   37  O9  UNL     1       2.280  24.258  66.673  1.00  0.00    -0.251 OA
BRANCH  35  38
HETATM   38  O7  UNL     1       3.036  27.474  65.159  1.00  0.00    -0.352 OA
ATOM     39  H7  UNL     1       2.345  28.092  65.368  1.00  0.00     0.218 HD
ENDBRANCH  35  38
BRANCH  36  40
HETATM   40  O8  UNL     1       2.330  26.376  67.648  1.00  0.00    -0.338 OA
ATOM     41  H8  UNL     1       1.472  26.749  67.814  1.00  0.00     0.220 HD
ENDBRANCH  36  40
ENDBRANCH  29  30
BRANCH  29  42
HETATM   42  C14 UNL     1       1.768  21.234  64.697  1.00  0.00     0.310 C
HETATM   43  C15 UNL     1       2.925  20.436  64.104  1.00  0.00     0.065 C
BRANCH  42  44
HETATM   44  N6  UNL     1       0.653  20.363  65.002  1.00  0.00    -0.056 N
ATOM     45  H63 UNL     1       0.198  20.039  64.149  1.00  0.00     0.276 HD
ATOM     46  H62 UNL     1       0.978  19.468  65.367  1.00  0.00     0.276 HD
ATOM     47  H61 UNL     1      -0.020  20.794  65.635  1.00  0.00     0.276 HD
ENDBRANCH  42  44
ENDBRANCH  29  42
ENDBRANCH  28  29
ENDBRANCH  27  28
BRANCH  27  48
HETATM   48  C16 UNL     1       1.759  19.370  67.882  1.00  0.00     0.290 C
BRANCH  48  49
HETATM   49  O10 UNL     1       1.757  18.511  66.794  1.00  0.00    -0.369 OA
ATOM     50  H10 UNL     1       1.088  17.840  66.873  1.00  0.00     0.212 HD
ENDBRANCH  48  49
BRANCH  48  51
HETATM   51  O11 UNL     1       3.039  19.432  68.475  1.00  0.00    -0.369 OA
ATOM     52  H11 UNL     1       2.968  19.608  69.406  1.00  0.00     0.212 HD
ENDBRANCH  48  51
ENDBRANCH  27  48
ENDBRANCH   1  27
TORSDOF 18
ENDMDL