MODEL 5
REMARK VINA RESULT: -8.839549056      4.915     12.742
REMARK  14 active torsions:
REMARK  status: ('A' for Active; 'I' for Inactive)
REMARK    1  A    between atoms: N1_1  and  C1_4
REMARK    2  A    between atoms: C3_11  and  C4_12
REMARK    3  A    between atoms: C6_16  and  N6_17
REMARK    4  A    between atoms: C7_22  and  N8_23
REMARK    5  A    between atoms: C9_27  and  C10_28
REMARK    6  A    between atoms: C10_28  and  S1_29
REMARK    7  A    between atoms: S1_29  and  C11_30
REMARK    8  A    between atoms: N10_34  and  C14_35
REMARK    9  A    between atoms: C14_35  and  O2_36
REMARK   10  A    between atoms: C14_35  and  C15_38
REMARK   11  A    between atoms: C15_38  and  C16_39
REMARK   12  A    between atoms: C16_39  and  O3_40
REMARK   13  A    between atoms: C17_42  and  C18_43
REMARK   14  A    between atoms: C18_43  and  O4_44
ROOT
HETATM    1  C4  UNL     1       1.451  18.969  70.199  1.00  0.00     0.152 A
HETATM    2  N5  UNL     1       0.472  19.887  70.185  1.00  0.00    -0.320 N
ATOM      3  H5  UNL     1      -0.295  19.940  70.857  1.00  0.00     0.169 HD
HETATM    4  C5  UNL     1       0.659  20.740  69.136  1.00  0.00     0.192 A
HETATM    5  C6  UNL     1      -0.036  21.838  68.667  1.00  0.00     0.163 A
HETATM    6  N7  UNL     1       0.441  22.464  67.570  1.00  0.00    -0.170 N
ATOM      7  H7  UNL     1      -0.031  23.279  67.179  1.00  0.00     0.186 HD
HETATM    8  C7  UNL     1       1.558  21.974  67.014  1.00  0.00     0.722 A
HETATM    9  N13 UNL     1       2.225  20.906  67.479  1.00  0.00    -0.107 N
ATOM     10  H13 UNL     1       3.070  20.585  67.008  1.00  0.00     0.208 HD
HETATM   11  N14 UNL     1       1.783  20.276  68.545  1.00  0.00    -0.160 N
HETATM   12  N15 UNL     1       2.256  19.222  69.178  1.00  0.00    -0.260 N
ATOM     13  H15 UNL     1       3.092  18.695  68.927  1.00  0.00     0.191 HD
ENDROOT
BRANCH   8  14
HETATM   14  N8  UNL     1       2.129  22.594  65.841  1.00  0.00    -0.079 N
HETATM   15  C8  UNL     1       2.604  21.923  64.774  1.00  0.00     0.227 A
HETATM   16  N9  UNL     1       3.048  22.857  63.913  1.00  0.00    -0.338 N
HETATM   17  C9  UNL     1       2.863  24.085  64.411  1.00  0.00     0.107 A
ATOM     18  H9  UNL     1       3.469  22.657  63.006  1.00  0.00     0.168 HD
HETATM   19  N12 UNL     1       2.277  23.886  65.635  1.00  0.00    -0.266 N
ATOM     20  H12 UNL     1       2.000  24.623  66.283  1.00  0.00     0.189 HD
BRANCH  17  21
HETATM   21  C10 UNL     1       3.197  25.428  63.842  1.00  0.00     0.153 C
BRANCH  21  22
HETATM   22  S1  UNL     1       2.447  26.743  64.739  1.00  0.00    -0.128 SA
BRANCH  22  23
HETATM   23  C11 UNL     1       1.194  27.702  63.963  1.00  0.00     0.258 C
HETATM   24  C12 UNL     1       0.760  27.270  62.582  1.00  0.00     0.147 C
HETATM   25  C13 UNL     1      -0.608  27.894  62.418  1.00  0.00     0.226 C
HETATM   26  O1  UNL     1      -1.487  27.447  61.672  1.00  0.00    -0.273 OA
HETATM   27  N10 UNL     1      -0.837  29.063  63.192  1.00  0.00    -0.295 N
HETATM   28  C17 UNL     1       0.303  29.863  63.581  1.00  0.00     0.315 C
HETATM   29  N11 UNL     1       1.480  29.133  63.926  1.00  0.00    -0.038 N
ATOM     30 2H11 UNL     1       1.889  29.463  64.800  1.00  0.00     0.281 HD
ATOM     31 1H11 UNL     1       2.258  29.349  63.303  1.00  0.00     0.281 HD
BRANCH  27  32
HETATM   32  C14 UNL     1      -2.198  29.450  63.578  1.00  0.00     0.226 C
BRANCH  32  33
HETATM   33  O2  UNL     1      -2.906  28.277  63.825  1.00  0.00    -0.377 OA
ATOM     34  H2  UNL     1      -2.922  28.150  64.766  1.00  0.00     0.212 HD
ENDBRANCH  32  33
BRANCH  32  35
HETATM   35  C15 UNL     1      -2.101  30.341  64.782  1.00  0.00     0.079 C
BRANCH  35  36
HETATM   36  C16 UNL     1      -2.582  29.652  66.040  1.00  0.00     0.168 C
BRANCH  36  37
HETATM   37  O3  UNL     1      -1.604  28.740  66.421  1.00  0.00    -0.401 OA
ATOM     38  H3  UNL     1      -2.034  28.041  66.899  1.00  0.00     0.209 HD
ENDBRANCH  36  37
ENDBRANCH  35  36
ENDBRANCH  32  35
ENDBRANCH  27  32
BRANCH  28  39
HETATM   39  C18 UNL     1       0.598  30.830  62.427  1.00  0.00     0.218 C
BRANCH  39  40
HETATM   40  O4  UNL     1       1.970  30.887  62.183  1.00  0.00    -0.397 OA
ATOM     41  H4  UNL     1       2.170  31.601  61.590  1.00  0.00     0.209 HD
ENDBRANCH  39  40
ENDBRANCH  28  39
ENDBRANCH  22  23
ENDBRANCH  21  22
ENDBRANCH  17  21
ENDBRANCH   8  14
BRANCH   5  42
HETATM   42  N6  UNL     1      -1.109  22.252  69.266  1.00  0.00    -0.382 N
ATOM     43  H62 UNL     1      -2.029  22.145  68.839  1.00  0.00     0.157 HD
ATOM     44  H61 UNL     1      -1.059  22.699  70.181  1.00  0.00     0.157 HD
ENDBRANCH   5  42
BRANCH   1  45
HETATM   45  C3  UNL     1       1.548  17.889  71.204  1.00  0.00     0.108 A
HETATM   46  N4  UNL     1       2.133  18.078  72.379  1.00  0.00    -0.326 N
HETATM   47  C2  UNL     1       2.241  17.112  73.322  1.00  0.00     0.194 A
ATOM     48  H4  UNL     1       2.521  18.999  72.583  1.00  0.00     0.169 HD
HETATM   49  N2  UNL     1       1.726  15.905  73.046  1.00  0.00    -0.315 N
HETATM   50  N3  UNL     1       2.879  17.409  74.543  1.00  0.00    -0.063 NA
HETATM   51  C1  UNL     1       1.122  15.633  71.889  1.00  0.00     0.128 A
ATOM     52  H2  UNL     1       1.800  15.167  73.746  1.00  0.00     0.170 HD
HETATM   53  C19 UNL     1       1.025  16.640  70.939  1.00  0.00     0.120 A
HETATM   54  N16 UNL     1       0.387  16.372  69.698  1.00  0.00    -0.096 NA
BRANCH  51  55
HETATM   55  N1  UNL     1       0.619  14.467  71.607  1.00  0.00    -0.384 N
ATOM     56  H12 UNL     1       0.717  13.719  72.293  1.00  0.00     0.157 HD
ATOM     57  H11 UNL     1       0.132  14.267  70.734  1.00  0.00     0.157 HD
ENDBRANCH  51  55
ENDBRANCH   1  45
TORSDOF 14
ENDMDL