MODEL 2
REMARK VINA RESULT: -8.254938912      4.328      7.180
REMARK  17 active torsions:
REMARK  status: ('A' for Active; 'I' for Inactive)
REMARK    1  A    between atoms: N1_1  and  C1_4
REMARK    2  A    between atoms: N3_8  and  C3_10
REMARK    3  A    between atoms: C4_11  and  C5_12
REMARK    4  A    between atoms: C5_12  and  O1_13
REMARK    5  A    between atoms: C5_12  and  O2_15
REMARK    6  A    between atoms: N4_19  and  O4_21
REMARK    7  A    between atoms: C7_23  and  O5_24
REMARK    8  A    between atoms: O5_24  and  C8_25
REMARK    9  A    between atoms: C8_25  and  C9_27
REMARK   10  A    between atoms: C9_27  and  N5_28
REMARK   11  A    between atoms: C9_27  and  C10_32
REMARK   12  A    between atoms: N9_39  and  C11_40
REMARK   13  A    between atoms: C11_40  and  C12_41
REMARK   14  A    between atoms: C12_41  and  C13_42
REMARK   15  A    between atoms: C16_48  and  C17_49
REMARK   16  A    between atoms: C17_49  and  O10_50
REMARK   17  A    between atoms: C17_49  and  O11_52
ROOT
HETATM    1  C3  UNL     1       2.191  21.561  75.140  1.00  0.00     0.049 C
HETATM    2  C4  UNL     1       2.552  20.709  76.110  1.00  0.00     0.132 C
HETATM    3  O3  UNL     1       2.968  19.426  75.904  1.00  0.00    -0.291 OA
HETATM    4  C6  UNL     1       3.043  18.908  74.636  1.00  0.00     0.173 C
HETATM    5  N4  UNL     1       3.765  17.885  74.369  1.00  0.00    -0.248 N
ATOM      6  H4  UNL     1       3.811  17.512  73.421  1.00  0.00     0.196 HD
HETATM    7  C7  UNL     1       2.234  19.602  73.570  1.00  0.00     0.214 C
HETATM    8  C14 UNL     1       2.270  21.087  73.756  1.00  0.00     0.101 C
ENDROOT
BRANCH   1   9
HETATM    9  N3  UNL     1       1.781  22.833  75.470  1.00  0.00    -0.341 N
HETATM   10  C2  UNL     1       0.945  23.677  75.168  1.00  0.00     0.159 A
HETATM   11  N2  UNL     1       0.010  23.530  74.225  1.00  0.00    -0.174 N
HETATM   12  C15 UNL     1       0.971  24.892  75.872  1.00  0.00     0.166 A
HETATM   13  C1  UNL     1      -0.911  24.478  73.905  1.00  0.00     0.679 A
ATOM     14  H2  UNL     1      -0.013  22.650  73.711  1.00  0.00     0.186 HD
HETATM   15  N11 UNL     1      -0.858  25.632  74.598  1.00  0.00    -0.174 N
HETATM   16  C18 UNL     1       0.052  25.848  75.559  1.00  0.00     0.161 A
ATOM     17  H11 UNL     1      -1.534  26.366  74.385  1.00  0.00     0.186 HD
HETATM   18  N10 UNL     1       0.315  26.900  76.389  1.00  0.00    -0.319 N
HETATM   19  C16 UNL     1       1.370  26.553  77.169  1.00  0.00     0.181 A
ATOM     20  H10 UNL     1      -0.190  27.786  76.417  1.00  0.00     0.169 HD
HETATM   21  O9  UNL     1       1.744  25.342  76.837  1.00  0.00    -0.285 OA
ATOM     22  H3  UNL     1       2.373  23.196  76.218  1.00  0.00     0.167 HD
BRANCH  13  23
HETATM   23  N1  UNL     1      -1.797  24.276  72.975  1.00  0.00    -0.234 N
ATOM     24  H12 UNL     1      -1.773  23.447  72.380  1.00  0.00     0.174 HD
ATOM     25  H11 UNL     1      -2.550  24.941  72.804  1.00  0.00     0.174 HD
ENDBRANCH  13  23
BRANCH  19  26
HETATM   26  C17 UNL     1       2.001  27.394  78.221  1.00  0.00     0.331 C
BRANCH  26  27
HETATM   27  O10 UNL     1       3.066  26.718  78.835  1.00  0.00    -0.364 OA
ATOM     28  H10 UNL     1       3.721  27.329  79.152  1.00  0.00     0.213 HD
ENDBRANCH  26  27
BRANCH  26  29
HETATM   29  O11 UNL     1       2.525  28.561  77.623  1.00  0.00    -0.364 OA
ATOM     30  H11 UNL     1       3.124  28.978  78.232  1.00  0.00     0.213 HD
ENDBRANCH  26  29
ENDBRANCH  19  26
ENDBRANCH   1   9
BRANCH   2  31
HETATM   31  C5  UNL     1       2.488  21.211  77.501  1.00  0.00     0.314 C
BRANCH  31  32
HETATM   32  O1  UNL     1       3.133  22.441  77.580  1.00  0.00    -0.365 OA
ATOM     33  H1  UNL     1       4.063  22.303  77.713  1.00  0.00     0.213 HD
ENDBRANCH  31  32
BRANCH  31  34
HETATM   34  O2  UNL     1       1.133  21.462  77.825  1.00  0.00    -0.365 OA
ATOM     35  H2  UNL     1       1.027  22.394  77.974  1.00  0.00     0.213 HD
ENDBRANCH  31  34
ENDBRANCH   2  31
BRANCH   7  36
HETATM   36  O5  UNL     1       2.894  19.291  72.351  1.00  0.00    -0.305 OA
BRANCH  36  37
HETATM   37  C8  UNL     1       2.259  18.826  71.213  1.00  0.00     0.298 C
HETATM   38  O6  UNL     1       1.539  17.803  71.325  1.00  0.00    -0.262 OA
BRANCH  37  39
HETATM   39  C9  UNL     1       2.416  19.503  69.893  1.00  0.00     0.351 C
BRANCH  39  40
HETATM   40  N5  UNL     1       2.745  18.569  68.883  1.00  0.00    -0.059 N
ATOM     41  H53 UNL     1       2.075  17.801  68.848  1.00  0.00     0.275 HD
ATOM     42  H52 UNL     1       2.590  18.953  67.951  1.00  0.00     0.275 HD
ATOM     43  H51 UNL     1       3.700  18.231  68.998  1.00  0.00     0.275 HD
ENDBRANCH  39  40
BRANCH  39  44
HETATM   44  C10 UNL     1       1.217  20.344  69.602  1.00  0.00     0.156 A
HETATM   45  N6  UNL     1       0.014  20.273  70.186  1.00  0.00    -0.270 N
HETATM   46  N7  UNL     1      -0.751  21.204  69.683  1.00  0.00    -0.227 N
ATOM     47  H6  UNL     1      -0.260  19.602  70.903  1.00  0.00     0.190 HD
HETATM   48  N8  UNL     1      -0.054  21.861  68.793  1.00  0.00    -0.225 N
ATOM     49  H7  UNL     1      -1.721  21.387  69.940  1.00  0.00     0.210 HD
HETATM   50  N9  UNL     1       1.197  21.342  68.716  1.00  0.00    -0.261 N
ATOM     51  H8  UNL     1      -0.399  22.645  68.240  1.00  0.00     0.210 HD
BRANCH  50  52
HETATM   52  C11 UNL     1       2.170  21.866  67.803  1.00  0.00     0.163 C
BRANCH  52  53
HETATM   53  C12 UNL     1       1.795  21.841  66.356  1.00  0.00     0.135 C
BRANCH  53  54
HETATM   54  C13 UNL     1       1.395  20.499  65.893  1.00  0.00     0.174 C
HETATM   55  O7  UNL     1       0.398  20.378  65.142  1.00  0.00    -0.648 OA
HETATM   56  O8  UNL     1       2.078  19.351  66.248  1.00  0.00    -0.648 OA
ENDBRANCH  53  54
ENDBRANCH  52  53
ENDBRANCH  50  52
ENDBRANCH  39  44
ENDBRANCH  37  39
ENDBRANCH  36  37
ENDBRANCH   7  36
BRANCH   5  57
HETATM   57  O4  UNL     1       4.475  17.302  75.388  1.00  0.00    -0.288 OA
ATOM     58  H4  UNL     1       4.923  16.483  75.216  1.00  0.00     0.244 HD
ENDBRANCH   5  57
TORSDOF 17
ENDMDL