MODEL 4
REMARK VINA RESULT: -8.690297950      1.179      1.382
REMARK  13 active torsions:
REMARK  status: ('A' for Active; 'I' for Inactive)
REMARK    1  A    between atoms: N1_1  and  C1_4
REMARK    2  A    between atoms: C2_7  and  C3_8
REMARK    3  A    between atoms: C4_10  and  C5_11
REMARK    4  A    between atoms: N5_16  and  C6_17
REMARK    5  A    between atoms: C6_17  and  C7_18
REMARK    6  A    between atoms: C7_18  and  N6_19
REMARK    7  A    between atoms: C7_18  and  C12_31
REMARK       I    between atoms: N6_19  and  C8_21
REMARK    8  A    between atoms: C8_21  and  O2_23
REMARK    9  A    between atoms: O2_23  and  C9_24
REMARK   10  A    between atoms: C9_24  and  C10_25
REMARK   11  A    between atoms: C9_24  and  C11_28
REMARK   12  A    between atoms: C10_25  and  O3_26
REMARK   13  A    between atoms: C11_28  and  O4_29
ROOT
HETATM    1  C7  UNL     1       0.841  18.645  69.182  1.00  0.00     0.162 C
ENDROOT
BRANCH   1   2
HETATM    2  C6  UNL     1       2.203  18.429  69.737  1.00  0.00     0.202 C
BRANCH   2   3
HETATM    3  N5  UNL     1       2.246  18.546  71.179  1.00  0.00    -0.216 N
HETATM    4  N4  UNL     1       1.955  17.662  72.101  1.00  0.00    -0.224 N
HETATM    5  N3  UNL     1       2.100  18.196  73.277  1.00  0.00    -0.268 N
ATOM      6  H4  UNL     1       1.660  16.701  71.923  1.00  0.00     0.210 HD
HETATM    7  C5  UNL     1       2.492  19.456  73.154  1.00  0.00     0.155 A
ATOM      8  H3  UNL     1       1.938  17.716  74.163  1.00  0.00     0.190 HD
HETATM    9  N14 UNL     1       2.583  19.672  71.840  1.00  0.00    -0.266 N
ATOM     10  H14 UNL     1       2.863  20.551  71.404  1.00  0.00     0.190 HD
BRANCH   7  11
HETATM   11  C4  UNL     1       2.766  20.449  74.196  1.00  0.00     0.103 A
HETATM   12  C2  UNL     1       2.067  21.615  74.286  1.00  0.00     0.056 A
HETATM   13  N2  UNL     1       2.402  22.474  75.277  1.00  0.00    -0.194 N
HETATM   14  C1  UNL     1       3.379  22.238  76.166  1.00  0.00     0.679 A
ATOM     15  H2  UNL     1       1.883  23.348  75.353  1.00  0.00     0.184 HD
HETATM   16  N15 UNL     1       4.058  21.092  76.071  1.00  0.00    -0.155 N
HETATM   17  C17 UNL     1       3.770  20.194  75.102  1.00  0.00     0.275 A
ATOM     18  H15 UNL     1       4.803  20.891  76.738  1.00  0.00     0.187 HD
HETATM   19  O5  UNL     1       4.432  19.134  75.050  1.00  0.00    -0.267 OA
BRANCH  12  20
HETATM   20  C3  UNL     1       0.951  21.949  73.332  1.00  0.00     0.145 C
HETATM   21  S1  UNL     1       0.122  23.449  73.968  1.00  0.00    -0.091 SA
ENDBRANCH  12  20
BRANCH  14  22
HETATM   22  N1  UNL     1       3.683  23.081  77.119  1.00  0.00    -0.234 N
ATOM     23  H12 UNL     1       3.772  24.072  76.895  1.00  0.00     0.174 HD
ATOM     24  H11 UNL     1       3.841  22.788  78.083  1.00  0.00     0.174 HD
ENDBRANCH  14  22
ENDBRANCH   7  11
ENDBRANCH   2   3
ENDBRANCH   1   2
BRANCH   1  25
HETATM   25  N6  UNL     1       0.779  19.998  68.601  1.00  0.00    -0.325 N
HETATM   26  C8  UNL     1       1.059  20.282  67.258  1.00  0.00     0.361 C
HETATM   27  O1  UNL     1       1.385  19.439  66.402  1.00  0.00    -0.238 OA
ATOM     28  H6  UNL     1       0.517  20.773  69.211  1.00  0.00     0.165 HD
BRANCH  26  29
HETATM   29  O2  UNL     1       0.982  21.594  66.798  1.00  0.00    -0.294 OA
BRANCH  29  30
HETATM   30  C9  UNL     1       2.109  22.312  66.368  1.00  0.00     0.180 C
BRANCH  30  31
HETATM   31  C10 UNL     1       2.192  22.586  64.919  1.00  0.00     0.199 C
BRANCH  31  32
HETATM   32  O3  UNL     1       2.954  23.771  64.774  1.00  0.00    -0.398 OA
ATOM     33  H3  UNL     1       2.426  24.373  64.263  1.00  0.00     0.209 HD
ENDBRANCH  31  32
ENDBRANCH  30  31
BRANCH  30  34
HETATM   34  C11 UNL     1       2.145  23.573  67.225  1.00  0.00     0.199 C
BRANCH  34  35
HETATM   35  O4  UNL     1       3.330  23.754  67.887  1.00  0.00    -0.398 OA
ATOM     36  H4  UNL     1       3.519  24.663  68.087  1.00  0.00     0.209 HD
ENDBRANCH  34  35
ENDBRANCH  30  34
ENDBRANCH  29  30
ENDBRANCH  26  29
ENDBRANCH   1  25
BRANCH   1  37
HETATM   37  C12 UNL     1      -0.237  18.657  70.234  1.00  0.00     0.094 A
HETATM   38  N7  UNL     1      -0.637  19.706  70.955  1.00  0.00    -0.188 N
HETATM   39  C13 UNL     1      -1.649  19.356  71.777  1.00  0.00     0.707 A
ATOM     40  H7  UNL     1      -0.234  20.641  70.895  1.00  0.00     0.184 HD
HETATM   41  N8  UNL     1      -2.378  20.034  72.675  1.00  0.00    -0.173 N
HETATM   42  N12 UNL     1      -1.889  18.045  71.561  1.00  0.00    -0.069 N
HETATM   43  C14 UNL     1      -3.353  19.450  73.380  1.00  0.00     0.174 A
ATOM     44  H8  UNL     1      -2.183  21.024  72.825  1.00  0.00     0.185 HD
HETATM   45  N9  UNL     1      -4.141  20.140  74.334  1.00  0.00    -0.078 NA
HETATM   46  C15 UNL     1      -3.592  18.122  73.158  1.00  0.00     0.173 A
HETATM   47  N10 UNL     1      -4.598  17.388  73.836  1.00  0.00    -0.078 NA
HETATM   48  N11 UNL     1      -2.850  17.461  72.253  1.00  0.00    -0.262 N
ATOM     49  H11 UNL     1      -3.036  16.471  72.096  1.00  0.00     0.189 HD
HETATM   50  C16 UNL     1      -1.023  17.590  70.607  1.00  0.00     0.181 A
HETATM   51  N13 UNL     1      -1.011  16.242  70.150  1.00  0.00    -0.078 NA
ENDBRANCH   1  37
TORSDOF 13
ENDMDL