MODEL 5
REMARK VINA RESULT: -4.873243576      1.480      2.062
REMARK  11 active torsions:
REMARK  status: ('A' for Active; 'I' for Inactive)
REMARK    1  A    between atoms: N1_2  and  C2_3
REMARK    2  A    between atoms: N1_2  and  C12_38
REMARK    3  A    between atoms: C2_3  and  C3_4
REMARK    4  A    between atoms: N2_6  and  N3_7
REMARK    5  A    between atoms: C7_14  and  N5_15
REMARK    6  A    between atoms: C8_20  and  N7_21
REMARK       I    between atoms: N7_21  and  C9_23
REMARK    7  A    between atoms: N9_25  and  O1_27
REMARK    8  A    between atoms: N10_29  and  C10_30
REMARK    9  A    between atoms: C12_38  and  O3_39
REMARK   10  A    between atoms: C12_38  and  C13_41
REMARK   11  A    between atoms: C13_41  and  N14_42
ROOT
HETATM    1  C3  UNL     1      79.217 -12.597 -51.021  1.00  0.00     0.075 A
HETATM    2  C4  UNL     1      79.420 -13.494 -50.090  1.00  0.00     0.147 A
HETATM    3  N2  UNL     1      78.323 -14.250 -49.558  1.00  0.00    -0.264 N
HETATM    4  C5  UNL     1      77.013 -14.022 -50.045  1.00  0.00     0.145 A
HETATM    5  C6  UNL     1      76.824 -13.076 -51.022  1.00  0.00     0.162 A
HETATM    6  N4  UNL     1      75.555 -12.872 -51.474  1.00  0.00    -0.174 N
ATOM      7  H4  UNL     1      75.371 -12.178 -52.199  1.00  0.00     0.186 HD
HETATM    8  C7  UNL     1      74.550 -13.594 -50.954  1.00  0.00     0.679 A
HETATM    9  N6  UNL     1      74.742 -14.533 -49.985  1.00  0.00    -0.174 N
ATOM     10  H6  UNL     1      73.944 -15.055 -49.624  1.00  0.00     0.186 HD
HETATM   11  C8  UNL     1      75.970 -14.776 -49.502  1.00  0.00     0.156 A
HETATM   12  N10 UNL     1      77.908 -12.328 -51.547  1.00  0.00    -0.274 N
ENDROOT
BRANCH   1  13
HETATM   13  C2  UNL     1      80.307 -11.789 -51.603  1.00  0.00     0.119 C
BRANCH  13  14
HETATM   14  N1  UNL     1      81.230 -12.542 -52.339  1.00  0.00    -0.365 N
HETATM   15  C1  UNL     1      80.854 -13.148 -53.541  1.00  0.00     0.151 C
BRANCH  14  16
HETATM   16  C12 UNL     1      82.511 -12.740 -51.807  1.00  0.00     0.244 C
BRANCH  16  17
HETATM   17  O3  UNL     1      82.745 -14.092 -51.576  1.00  0.00    -0.375 OA
ATOM     18  H3  UNL     1      82.576 -14.312 -50.668  1.00  0.00     0.212 HD
ENDBRANCH  16  17
BRANCH  16  19
HETATM   19  C13 UNL     1      82.923 -11.903 -50.643  1.00  0.00     0.282 C
BRANCH  19  20
HETATM   20  N14 UNL     1      83.000 -12.617 -49.392  1.00  0.00    -0.075 N
ATOM     21 3H14 UNL     1      82.516 -12.099 -48.658  1.00  0.00     0.274 HD
ATOM     22 2H14 UNL     1      82.422 -13.456 -49.425  1.00  0.00     0.274 HD
ATOM     23 1H14 UNL     1      83.948 -12.850 -49.096  1.00  0.00     0.274 HD
ENDBRANCH  19  20
ENDBRANCH  16  19
ENDBRANCH  14  16
ENDBRANCH  13  14
ENDBRANCH   1  13
BRANCH  12  24
HETATM   24  C10 UNL     1      77.708 -11.351 -52.549  1.00  0.00     0.179 A
HETATM   25  N11 UNL     1      77.736 -10.021 -52.320  1.00  0.00    -0.222 N
HETATM   26  O2  UNL     1      77.521  -9.409 -53.431  1.00  0.00    -0.154 OA
ATOM     27  H11 UNL     1      77.900  -9.575 -51.417  1.00  0.00     0.198 HD
HETATM   28  N12 UNL     1      77.348 -10.279 -54.404  1.00  0.00    -0.224 N
HETATM   29  C11 UNL     1      77.457 -11.518 -53.894  1.00  0.00     0.184 A
ATOM     30  H12 UNL     1      77.163 -10.051 -55.381  1.00  0.00     0.198 HD
HETATM   31  N13 UNL     1      77.350 -12.785 -54.526  1.00  0.00    -0.077 NA
ENDBRANCH  12  24
BRANCH   3  32
HETATM   32  N3  UNL     1      78.550 -15.214 -48.552  1.00  0.00    -0.338 N
ATOM     33  H32 UNL     1      78.980 -14.941 -47.668  1.00  0.00     0.177 HD
ATOM     34  H31 UNL     1      78.286 -16.187 -48.708  1.00  0.00     0.177 HD
ENDBRANCH   3  32
BRANCH  11  35
HETATM   35  N7  UNL     1      76.237 -15.629 -48.607  1.00  0.00    -0.313 N
HETATM   36  C9  UNL     1      75.460 -16.807 -48.480  1.00  0.00     0.213 C
HETATM   37  N8  UNL     1      74.573 -16.891 -47.381  1.00  0.00    -0.061 NA
HETATM   38  N9  UNL     1      75.565 -17.781 -49.343  1.00  0.00    -0.241 N
ATOM     39  H9  UNL     1      76.216 -17.700 -50.125  1.00  0.00     0.197 HD
ATOM     40  H7  UNL     1      77.017 -15.466 -47.971  1.00  0.00     0.170 HD
BRANCH  38  41
HETATM   41  O1  UNL     1      74.812 -18.901 -49.204  1.00  0.00    -0.287 OA
ATOM     42  H1  UNL     1      75.119 -19.731 -49.551  1.00  0.00     0.244 HD
ENDBRANCH  38  41
ENDBRANCH  11  35
BRANCH   8  43
HETATM   43  N5  UNL     1      73.338 -13.422 -51.361  1.00  0.00    -0.234 N
ATOM     44  H52 UNL     1      72.851 -14.248 -51.709  1.00  0.00     0.174 HD
ATOM     45  H51 UNL     1      72.905 -12.499 -51.329  1.00  0.00     0.174 HD
ENDBRANCH   8  43
TORSDOF 11
ENDMDL