MODEL 1
REMARK VINA RESULT: -6.551932752      0.000      0.000
REMARK  9 active torsions:
REMARK  status: ('A' for Active; 'I' for Inactive)
REMARK    1  A    between atoms: C8_9  and  N2_10
REMARK    2  A    between atoms: N2_10  and  C9_12
REMARK    3  A    between atoms: C10_15  and  N4_16
REMARK    4  A    between atoms: N4_16  and  C11_18
REMARK    5  A    between atoms: C11_18  and  O1_19
REMARK    6  A    between atoms: C11_18  and  N5_21
REMARK    7  A    between atoms: N5_21  and  C12_23
REMARK    8  A    between atoms: C13_26  and  O2_27
REMARK    9  A    between atoms: N10_35  and  N11_36
ROOT
HETATM    1  N1  UNL     1      77.039 -11.003 -53.280  1.00  0.00    -0.191 NA
HETATM    2  C1  UNL     1      76.633 -11.765 -52.510  1.00  0.00     0.099 C
HETATM    3  C2  UNL     1      76.149 -12.723 -51.547  1.00  0.00     0.045 A
HETATM    4  C3  UNL     1      74.790 -12.891 -51.422  1.00  0.00     0.025 A
HETATM    5  C4  UNL     1      74.320 -13.802 -50.508  1.00  0.00     0.032 A
HETATM    6  C5  UNL     1      75.211 -14.551 -49.711  1.00  0.00     0.046 A
HETATM    7  C6  UNL     1      76.558 -14.399 -49.816  1.00  0.00     0.013 A
HETATM    8  C7  UNL     1      76.996 -13.463 -50.759  1.00  0.00     0.036 A
HETATM    9  C8  UNL     1      77.557 -15.127 -48.968  1.00  0.00     0.239 C
HETATM   10  N12 UNL     1      76.905 -16.179 -48.202  1.00  0.00    -0.317 N
ATOM     11  H12 UNL     1      77.499 -16.853 -47.718  1.00  0.00     0.166 HD
HETATM   12  C15 UNL     1      75.513 -16.330 -48.085  1.00  0.00     0.322 C
HETATM   13  O3  UNL     1      75.036 -17.200 -47.293  1.00  0.00    -0.247 OA
HETATM   14  N13 UNL     1      74.619 -15.524 -48.834  1.00  0.00    -0.308 N
ATOM     15  H13 UNL     1      73.607 -15.630 -48.756  1.00  0.00     0.170 HD
ENDROOT
BRANCH   9  16
HETATM   16  N2  UNL     1      78.607 -15.643 -49.772  1.00  0.00    -0.198 N
ATOM     17  H2  UNL     1      79.526 -15.373 -49.421  1.00  0.00     0.180 HD
BRANCH  16  18
HETATM   18  C9  UNL     1      78.695 -16.428 -50.921  1.00  0.00     0.730 A
HETATM   19  N3  UNL     1      78.001 -17.628 -50.947  1.00  0.00    -0.020 N
HETATM   20  C10 UNL     1      78.027 -18.477 -51.960  1.00  0.00     0.710 A
ATOM     21  H3  UNL     1      77.435 -17.871 -50.134  1.00  0.00     0.203 HD
HETATM   22  N8  UNL     1      78.788 -18.122 -53.022  1.00  0.00    -0.020 N
HETATM   23  C14 UNL     1      79.475 -16.984 -53.050  1.00  0.00     0.726 A
ATOM     24  H8  UNL     1      78.837 -18.747 -53.826  1.00  0.00     0.203 HD
HETATM   25  N9  UNL     1      80.210 -16.646 -54.081  1.00  0.00    -0.232 N
HETATM   26  N10 UNL     1      79.428 -16.127 -51.985  1.00  0.00     0.084 N
ATOM     27  H92 UNL     1      80.246 -17.285 -54.876  1.00  0.00     0.174 HD
ATOM     28  H91 UNL     1      80.738 -15.774 -54.103  1.00  0.00     0.174 HD
BRANCH  20  29
HETATM   29  N4  UNL     1      77.307 -19.700 -51.956  1.00  0.00    -0.181 N
ATOM     30  H4  UNL     1      77.682 -20.509 -51.463  1.00  0.00     0.182 HD
BRANCH  29  31
HETATM   31  C11 UNL     1      76.019 -19.801 -52.664  1.00  0.00     0.339 C
BRANCH  31  32
HETATM   32  O1  UNL     1      75.548 -18.494 -52.818  1.00  0.00    -0.359 OA
ATOM     33  H1  UNL     1      74.610 -18.561 -52.954  1.00  0.00     0.214 HD
ENDBRANCH  31  32
BRANCH  31  34
HETATM   34  N5  UNL     1      76.236 -20.390 -53.929  1.00  0.00    -0.358 N
ATOM     35  H5  UNL     1      77.152 -20.313 -54.372  1.00  0.00     0.159 HD
BRANCH  34  36
HETATM   36  C12 UNL     1      75.204 -21.078 -54.582  1.00  0.00     0.237 C
HETATM   37  N6  UNL     1      73.860 -20.777 -54.066  1.00  0.00    -0.116 NA
HETATM   38  N7  UNL     1      73.655 -19.918 -55.162  1.00  0.00    -0.111 NA
HETATM   39  C13 UNL     1      74.672 -20.641 -55.900  1.00  0.00     0.266 C
BRANCH  39  40
HETATM   40  O2  UNL     1      75.488 -19.891 -56.726  1.00  0.00    -0.375 OA
ATOM     41  H2  UNL     1      75.126 -19.552 -57.537  1.00  0.00     0.211 HD
ENDBRANCH  39  40
ENDBRANCH  34  36
ENDBRANCH  31  34
ENDBRANCH  29  31
ENDBRANCH  20  29
BRANCH  26  42
HETATM   42  N11 UNL     1      80.215 -14.945 -52.095  1.00  0.00    -0.309 N
ATOM     43 2H11 UNL     1      79.904 -14.146 -51.543  1.00  0.00     0.178 HD
ATOM     44 1H11 UNL     1      81.037 -14.865 -52.694  1.00  0.00     0.178 HD
ENDBRANCH  26  42
ENDBRANCH  16  18
ENDBRANCH   9  16
TORSDOF 9
ENDMDL