MODEL 5
REMARK VINA RESULT: -4.981357322      3.906      6.321
REMARK  12 active torsions:
REMARK  status: ('A' for Active; 'I' for Inactive)
REMARK    1  A    between atoms: C2_2  and  C3_3
REMARK    2  A    between atoms: C2_2  and  C4_6
REMARK    3  A    between atoms: C2_2  and  N1_9
REMARK    4  A    between atoms: C3_3  and  O1_4
REMARK    5  A    between atoms: C4_6  and  O2_7
REMARK    6  A    between atoms: N1_9  and  C5_11
REMARK    7  A    between atoms: C5_11  and  C6_12
REMARK    8  A    between atoms: C9_20  and  N4_21
REMARK    9  A    between atoms: N6_27  and  C11_28
REMARK   10  A    between atoms: C12_32  and  N8_33
REMARK   11  A    between atoms: N8_33  and  N9_35
REMARK   12  A    between atoms: C13_38  and  N10_39
ROOT
HETATM    1  C6  UNL     1      78.553  -8.592 -51.098  1.00  0.00     0.096 A
HETATM    2  N2  UNL     1      78.056  -7.438 -51.548  1.00  0.00    -0.346 N
ATOM      3  H2  UNL     1      77.752  -7.391 -52.520  1.00  0.00     0.166 HD
HETATM    4  C7  UNL     1      77.935  -6.347 -50.799  1.00  0.00     0.147 A
HETATM    5  C8  UNL     1      77.412  -5.187 -51.330  1.00  0.00     0.290 A
HETATM    6  O3  UNL     1      77.035  -5.122 -52.533  1.00  0.00    -0.265 OA
HETATM    7  N3  UNL     1      77.299  -4.102 -50.557  1.00  0.00    -0.154 N
ATOM      8  H3  UNL     1      76.914  -3.237 -50.937  1.00  0.00     0.187 HD
HETATM    9  C9  UNL     1      77.694  -4.160 -49.283  1.00  0.00     0.680 A
HETATM   10  N5  UNL     1      78.212  -5.303 -48.751  1.00  0.00    -0.174 N
ATOM     11  H5  UNL     1      78.501  -5.302 -47.772  1.00  0.00     0.186 HD
HETATM   12  C10 UNL     1      78.355  -6.431 -49.468  1.00  0.00     0.161 A
HETATM   13  N6  UNL     1      78.862  -7.566 -48.962  1.00  0.00    -0.257 N
HETATM   14  C14 UNL     1      78.961  -8.633 -49.764  1.00  0.00     0.276 A
HETATM   15  O4  UNL     1      79.425  -9.692 -49.323  1.00  0.00    -0.266 OA
ENDROOT
BRANCH  13  16
HETATM   16  C11 UNL     1      79.278  -7.606 -47.607  1.00  0.00     0.363 C
HETATM   17  N7  UNL     1      78.970  -8.874 -46.926  1.00  0.00    -0.019 N
HETATM   18  C12 UNL     1      79.643  -8.735 -45.661  1.00  0.00     0.342 C
ATOM     19  H72 UNL     1      77.975  -9.090 -46.857  1.00  0.00     0.283 HD
ATOM     20  H71 UNL     1      79.220  -9.712 -47.452  1.00  0.00     0.283 HD
HETATM   21  C13 UNL     1      81.141  -8.740 -45.941  1.00  0.00     0.299 C
HETATM   22  S1  UNL     1      81.113  -7.667 -47.443  1.00  0.00    -0.078 SA
BRANCH  18  23
HETATM   23  N8  UNL     1      79.244  -9.628 -44.642  1.00  0.00    -0.310 N
ATOM     24  H8  UNL     1      79.247  -9.353 -43.660  1.00  0.00     0.182 HD
BRANCH  23  25
HETATM   25  N9  UNL     1      78.852 -10.881 -45.037  1.00  0.00    -0.347 N
ATOM     26  H92 UNL     1      78.987 -11.686 -44.424  1.00  0.00     0.176 HD
ATOM     27  H91 UNL     1      78.427 -10.959 -45.961  1.00  0.00     0.176 HD
ENDBRANCH  23  25
ENDBRANCH  18  23
BRANCH  21  28
HETATM   28  N10 UNL     1      81.773  -8.053 -44.847  1.00  0.00    -0.062 N
ATOM     29 3H10 UNL     1      81.111  -7.575 -44.236  1.00  0.00     0.275 HD
ATOM     30 2H10 UNL     1      82.162  -8.686 -44.148  1.00  0.00     0.275 HD
ATOM     31 1H10 UNL     1      82.469  -7.427 -45.252  1.00  0.00     0.275 HD
ENDBRANCH  21  28
ENDBRANCH  13  16
BRANCH   1  32
HETATM   32  C5  UNL     1      78.664  -9.788 -51.996  1.00  0.00     0.178 C
BRANCH  32  33
HETATM   33  N1  UNL     1      77.930 -10.852 -51.401  1.00  0.00    -0.404 N
ATOM     34  H1  UNL     1      77.685 -10.860 -50.411  1.00  0.00     0.154 HD
BRANCH  33  35
HETATM   35  C2  UNL     1      77.563 -11.906 -52.290  1.00  0.00     0.065 C
HETATM   36  C1  UNL     1      76.230 -12.479 -51.816  1.00  0.00     0.042 C
BRANCH  35  37
HETATM   37  C3  UNL     1      77.324 -11.414 -53.705  1.00  0.00     0.196 C
BRANCH  37  38
HETATM   38  O1  UNL     1      76.204 -12.088 -54.187  1.00  0.00    -0.398 OA
ATOM     39  H1  UNL     1      76.041 -12.816 -53.598  1.00  0.00     0.209 HD
ENDBRANCH  37  38
ENDBRANCH  35  37
BRANCH  35  40
HETATM   40  C4  UNL     1      78.540 -13.028 -52.359  1.00  0.00     0.196 C
BRANCH  40  41
HETATM   41  O2  UNL     1      78.065 -13.949 -53.309  1.00  0.00    -0.398 OA
ATOM     42  H2  UNL     1      77.425 -14.503 -52.878  1.00  0.00     0.209 HD
ENDBRANCH  40  41
ENDBRANCH  35  40
ENDBRANCH  33  35
ENDBRANCH  32  33
ENDBRANCH   1  32
BRANCH   9  43
HETATM   43  N4  UNL     1      77.587  -3.122 -48.537  1.00  0.00    -0.234 N
ATOM     44  H42 UNL     1      77.966  -3.154 -47.591  1.00  0.00     0.174 HD
ATOM     45  H41 UNL     1      77.128  -2.287 -48.899  1.00  0.00     0.174 HD
ENDBRANCH   9  43
TORSDOF 12
ENDMDL