MODEL 2
REMARK VINA RESULT: -6.688663332      2.482      3.932
REMARK  11 active torsions:
REMARK  status: ('A' for Active; 'I' for Inactive)
REMARK    1  A    between atoms: N2_4  and  C3_6
REMARK    2  A    between atoms: C3_6  and  C4_7
REMARK    3  A    between atoms: N5_10  and  O1_11
REMARK    4  A    between atoms: C5_13  and  O2_14
REMARK    5  A    between atoms: O2_14  and  C6_15
REMARK    6  A    between atoms: C6_15  and  C7_17
REMARK    7  A    between atoms: C7_17  and  C8_18
REMARK    8  A    between atoms: C8_18  and  O4_19
REMARK    9  A    between atoms: C8_18  and  C9_21
REMARK   10  A    between atoms: C12_26  and  N7_27
REMARK   11  A    between atoms: C13_32  and  N9_33
ROOT
HETATM    1  C8  UNL     1      80.731 -14.373 -49.972  1.00  0.00     0.178 C
ENDROOT
BRANCH   1   2
HETATM    2  C7  UNL     1      81.154 -14.653 -51.375  1.00  0.00     0.149 C
BRANCH   2   3
HETATM    3  C6  UNL     1      81.239 -13.347 -52.084  1.00  0.00     0.265 C
HETATM    4  O3  UNL     1      82.373 -12.994 -52.484  1.00  0.00    -0.265 OA
BRANCH   3   5
HETATM    5  O2  UNL     1      80.177 -12.520 -52.324  1.00  0.00    -0.272 OA
BRANCH   5   6
HETATM    6  C5  UNL     1      79.441 -12.620 -53.525  1.00  0.00     0.397 C
HETATM    7  N5  UNL     1      78.230 -13.369 -53.320  1.00  0.00    -0.038 NA
HETATM    8  N4  UNL     1      77.123 -12.850 -53.944  1.00  0.00    -0.024 NA
HETATM    9  N3  UNL     1      76.961 -11.527 -53.526  1.00  0.00    -0.095 NA
HETATM   10  C4  UNL     1      78.108 -10.736 -53.796  1.00  0.00     0.254 C
HETATM   11  O5  UNL     1      79.257 -11.381 -54.088  1.00  0.00    -0.320 OA
BRANCH   7  12
HETATM   12  O1  UNL     1      78.397 -14.687 -53.452  1.00  0.00    -0.291 OA
ATOM     13  H1  UNL     1      77.652 -15.159 -53.806  1.00  0.00     0.239 HD
ENDBRANCH   7  12
BRANCH  10  14
HETATM   14  C3  UNL     1      77.765  -9.820 -54.979  1.00  0.00     0.171 C
BRANCH  14  15
HETATM   15  N2  UNL     1      78.835  -9.776 -55.926  1.00  0.00    -0.378 N
HETATM   16  C2  UNL     1      78.671  -9.955 -57.204  1.00  0.00     0.085 C
HETATM   17  C1  UNL     1      79.824  -9.894 -58.125  1.00  0.00     0.085 C
HETATM   18  N1  UNL     1      77.348 -10.210 -57.659  1.00  0.00    -0.088 NA
ATOM     19  H2  UNL     1      79.777  -9.593 -55.581  1.00  0.00     0.160 HD
ENDBRANCH  14  15
ENDBRANCH  10  14
ENDBRANCH   5   6
ENDBRANCH   3   5
ENDBRANCH   2   3
ENDBRANCH   1   2
BRANCH   1  20
HETATM   20  O4  UNL     1      80.956 -13.052 -49.594  1.00  0.00    -0.389 OA
ATOM     21  H4  UNL     1      80.433 -12.789 -48.846  1.00  0.00     0.210 HD
ENDBRANCH   1  20
BRANCH   1  22
HETATM   22  C9  UNL     1      79.291 -14.650 -49.736  1.00  0.00     0.056 A
HETATM   23  C10 UNL     1      78.900 -15.654 -48.882  1.00  0.00     0.116 A
HETATM   24  N6  UNL     1      77.588 -15.867 -48.699  1.00  0.00    -0.358 N
HETATM   25  C11 UNL     1      76.681 -15.092 -49.357  1.00  0.00     0.121 A
ATOM     26  H6  UNL     1      77.271 -16.606 -48.071  1.00  0.00     0.165 HD
HETATM   27  C12 UNL     1      75.331 -15.298 -49.178  1.00  0.00     0.145 A
HETATM   28  C14 UNL     1      77.080 -14.089 -50.209  1.00  0.00     0.152 A
HETATM   29  N8  UNL     1      74.451 -14.526 -49.834  1.00  0.00    -0.175 N
HETATM   30  C13 UNL     1      74.843 -13.543 -50.670  1.00  0.00     0.679 A
ATOM     31  H8  UNL     1      73.454 -14.687 -49.695  1.00  0.00     0.186 HD
HETATM   32  N10 UNL     1      76.163 -13.352 -50.835  1.00  0.00    -0.174 N
ATOM     33  H10 UNL     1      76.475 -12.612 -51.465  1.00  0.00     0.186 HD
HETATM   34  N11 UNL     1      78.381 -13.874 -50.395  1.00  0.00    -0.340 N
ATOM     35  H11 UNL     1      78.696 -13.136 -51.024  1.00  0.00     0.167 HD
BRANCH  27  36
HETATM   36  N7  UNL     1      74.888 -16.227 -48.389  1.00  0.00    -0.383 N
ATOM     37  H72 UNL     1      74.986 -17.202 -48.669  1.00  0.00     0.157 HD
ATOM     38  H71 UNL     1      74.447 -16.002 -47.498  1.00  0.00     0.157 HD
ENDBRANCH  27  36
BRANCH  30  39
HETATM   39  N9  UNL     1      73.947 -12.824 -51.280  1.00  0.00    -0.234 N
ATOM     40  H92 UNL     1      73.319 -12.191 -50.785  1.00  0.00     0.174 HD
ATOM     41  H91 UNL     1      73.858 -12.884 -52.294  1.00  0.00     0.174 HD
ENDBRANCH  30  39
ENDBRANCH   1  22
TORSDOF 11
ENDMDL