MODEL 2
REMARK VINA RESULT: -5.170428524      2.353      2.556
REMARK  8 active torsions:
REMARK  status: ('A' for Active; 'I' for Inactive)
REMARK    1  A    between atoms: C5_6  and  N1_7
REMARK       I    between atoms: N1_7  and  C6_9
REMARK       I    between atoms: C6_9  and  N2_10
REMARK       I    between atoms: C6_9  and  N3_14
REMARK    2  A    between atoms: C7_18  and  N4_19
REMARK       I    between atoms: N4_19  and  C8_21
REMARK    3  A    between atoms: C8_21  and  C9_23
REMARK    4  A    between atoms: C9_23  and  N5_25
REMARK    5  A    between atoms: C13_41  and  C14_42
REMARK    6  A    between atoms: C14_42  and  O4_43
REMARK    7  A    between atoms: C14_42  and  N11_45
REMARK    8  A    between atoms: N11_45  and  O5_46
ROOT
HETATM    1  C1  UNL     1      77.622  -6.623 -49.342  1.00  0.00     0.079 C
HETATM    2  C2  UNL     1      78.228  -6.885 -50.693  1.00  0.00     0.078 A
HETATM    3  O1  UNL     1      78.617  -8.041 -51.182  1.00  0.00    -0.294 OA
HETATM    4  C3  UNL     1      79.096  -7.921 -52.374  1.00  0.00     0.179 A
HETATM    5  C4  UNL     1      79.618  -8.954 -53.230  1.00  0.00     0.141 C
HETATM    6  C5  UNL     1      79.638 -10.231 -52.731  1.00  0.00     0.109 C
HETATM    7  C7  UNL     1      79.525 -11.520 -53.301  1.00  0.00     0.141 C
HETATM    8  N6  UNL     1      79.657 -11.988 -54.548  1.00  0.00    -0.292 N
ATOM      9  H6  UNL     1      79.169 -12.870 -54.699  1.00  0.00     0.172 HD
HETATM   10  C11 UNL     1      80.304 -11.539 -55.657  1.00  0.00     0.328 C
HETATM   11  O3  UNL     1      80.666 -12.474 -56.430  1.00  0.00    -0.247 OA
HETATM   12  N7  UNL     1      80.663 -10.344 -56.150  1.00  0.00    -0.277 N
ATOM     13  H7  UNL     1      81.170 -10.386 -57.033  1.00  0.00     0.173 HD
HETATM   14  C12 UNL     1      80.468  -9.100 -55.677  1.00  0.00     0.225 A
HETATM   15  N8  UNL     1      80.373  -7.717 -55.505  1.00  0.00    -0.259 N
ATOM     16  H8  UNL     1      80.483  -6.781 -55.894  1.00  0.00     0.191 HD
HETATM   17  N9  UNL     1      80.030  -8.502 -54.456  1.00  0.00    -0.214 N
HETATM   18  N10 UNL     1      79.025  -6.623 -52.698  1.00  0.00    -0.333 N
ATOM     19  H10 UNL     1      79.330  -6.216 -53.582  1.00  0.00     0.168 HD
HETATM   20  C13 UNL     1      78.487  -5.944 -51.669  1.00  0.00     0.088 A
ENDROOT
BRANCH   6  21
HETATM   21  N1  UNL     1      79.811 -10.243 -51.338  1.00  0.00    -0.336 N
HETATM   22  C6  UNL     1      81.114 -10.506 -50.741  1.00  0.00     0.480 C
HETATM   23  N2  UNL     1      81.074 -10.443 -49.298  1.00  0.00    -0.033 N
HETATM   24  N3  UNL     1      82.162  -9.659 -51.223  1.00  0.00    -0.033 N
ATOM     25  H23 UNL     1      80.694  -9.553 -48.977  1.00  0.00     0.278 HD
ATOM     26  H22 UNL     1      80.361 -11.068 -48.921  1.00  0.00     0.278 HD
ATOM     27  H21 UNL     1      81.986 -10.627 -48.880  1.00  0.00     0.278 HD
ATOM     28  H33 UNL     1      82.219  -9.707 -52.240  1.00  0.00     0.278 HD
ATOM     29  H32 UNL     1      81.908  -8.678 -51.109  1.00  0.00     0.278 HD
ATOM     30  H31 UNL     1      83.073  -9.843 -50.805  1.00  0.00     0.278 HD
ATOM     31  H1  UNL     1      79.010 -10.063 -50.733  1.00  0.00     0.163 HD
ENDBRANCH   6  21
BRANCH   7  32
HETATM   32  N4  UNL     1      79.237 -12.349 -52.383  1.00  0.00    -0.309 N
HETATM   33  C8  UNL     1      78.044 -13.060 -52.347  1.00  0.00     0.253 C
HETATM   34  O2  UNL     1      77.752 -13.872 -53.287  1.00  0.00    -0.271 OA
ATOM     35  H4  UNL     1      79.915 -12.500 -51.635  1.00  0.00     0.170 HD
BRANCH  33  36
HETATM   36  C9  UNL     1      77.039 -12.943 -51.252  1.00  0.00     0.271 C
HETATM   37  C10 UNL     1      75.712 -12.497 -51.800  1.00  0.00     0.050 C
BRANCH  36  38
HETATM   38  N5  UNL     1      76.862 -14.179 -50.531  1.00  0.00    -0.067 N
ATOM     39  H53 UNL     1      76.377 -14.871 -51.102  1.00  0.00     0.275 HD
ATOM     40  H52 UNL     1      77.751 -14.663 -50.408  1.00  0.00     0.275 HD
ATOM     41  H51 UNL     1      76.390 -14.046 -49.637  1.00  0.00     0.275 HD
ENDBRANCH  36  38
ENDBRANCH  33  36
ENDBRANCH   7  32
BRANCH  20  42
HETATM   42  C14 UNL     1      78.208  -4.503 -51.552  1.00  0.00     0.291 C
BRANCH  42  43
HETATM   43  O4  UNL     1      76.999  -4.248 -52.172  1.00  0.00    -0.372 OA
ATOM     44  H4  UNL     1      76.660  -3.428 -51.833  1.00  0.00     0.212 HD
ENDBRANCH  42  43
BRANCH  42  45
HETATM   45  N11 UNL     1      79.269  -3.728 -52.141  1.00  0.00    -0.065 NA
BRANCH  45  46
HETATM   46  O5  UNL     1      79.321  -3.871 -53.483  1.00  0.00    -0.293 OA
ATOM     47  H5  UNL     1      78.964  -3.117 -53.938  1.00  0.00     0.238 HD
ENDBRANCH  45  46
ENDBRANCH  42  45
ENDBRANCH  20  42
TORSDOF 8
ENDMDL