MODEL 1
REMARK VINA RESULT: -6.157326208      0.000      0.000
REMARK  9 active torsions:
REMARK  status: ('A' for Active; 'I' for Inactive)
REMARK    1  A    between atoms: C2_2  and  O1_3
REMARK    2  A    between atoms: C2_2  and  C3_5
REMARK    3  A    between atoms: C3_5  and  C4_6
REMARK    4  A    between atoms: C3_5  and  N10_28
REMARK    5  A    between atoms: C4_6  and  N1_7
REMARK    6  A    between atoms: C4_6  and  C6_12
REMARK       I    between atoms: N1_7  and  C5_9
REMARK    7  A    between atoms: C7_15  and  N5_16
REMARK    8  A    between atoms: C8_21  and  N8_22
REMARK    9  A    between atoms: C11_33  and  N12_34
ROOT
HETATM    1  C4  UNL     1      77.613 -10.954 -52.736  1.00  0.00     0.157 C
ENDROOT
BRANCH   1   2
HETATM    2  C3  UNL     1      78.993 -11.471 -52.823  1.00  0.00     0.147 C
BRANCH   2   3
HETATM    3  C2  UNL     1      79.275 -12.885 -53.173  1.00  0.00     0.139 C
HETATM    4  C1  UNL     1      79.738 -13.826 -52.138  1.00  0.00     0.041 C
BRANCH   3   5
HETATM    5  O1  UNL     1      78.168 -13.490 -53.825  1.00  0.00    -0.394 OA
ATOM      6  H1  UNL     1      77.487 -12.831 -53.890  1.00  0.00     0.210 HD
ENDBRANCH   3   5
ENDBRANCH   2   3
BRANCH   2   7
HETATM    7  N10 UNL     1      79.660 -10.676 -53.887  1.00  0.00    -0.318 N
HETATM    8  C9  UNL     1      80.822 -10.047 -53.707  1.00  0.00     0.185 A
HETATM    9  N11 UNL     1      81.173  -9.401 -54.861  1.00  0.00    -0.346 N
HETATM   10  C10 UNL     1      80.208  -9.647 -55.743  1.00  0.00     0.122 A
ATOM     11  H11 UNL     1      82.011  -8.839 -55.015  1.00  0.00     0.167 HD
HETATM   12  C11 UNL     1      80.036  -9.257 -57.047  1.00  0.00     0.131 A
HETATM   13  C13 UNL     1      79.250 -10.454 -55.126  1.00  0.00     0.141 A
HETATM   14  N13 UNL     1      78.939  -9.668 -57.702  1.00  0.00    -0.337 N
HETATM   15  C12 UNL     1      78.021 -10.458 -57.072  1.00  0.00     0.183 A
ATOM     16  H13 UNL     1      78.791  -9.389 -58.672  1.00  0.00     0.168 HD
HETATM   17  N14 UNL     1      78.176 -10.846 -55.794  1.00  0.00    -0.336 N
ATOM     18  H14 UNL     1      77.475 -11.436 -55.345  1.00  0.00     0.168 HD
BRANCH  12  19
HETATM   19  N12 UNL     1      80.898  -8.513 -57.646  1.00  0.00    -0.383 N
ATOM     20 2H12 UNL     1      81.758  -8.246 -57.168  1.00  0.00     0.157 HD
ATOM     21 1H12 UNL     1      80.744  -8.178 -58.597  1.00  0.00     0.157 HD
ENDBRANCH  12  19
ENDBRANCH   2   7
ENDBRANCH   1   2
BRANCH   1  22
HETATM   22  N1  UNL     1      77.775  -9.727 -51.854  1.00  0.00    -0.335 N
HETATM   23  C5  UNL     1      77.622  -8.436 -52.346  1.00  0.00     0.329 C
HETATM   24  N2  UNL     1      77.807  -7.356 -51.409  1.00  0.00    -0.040 NA
HETATM   25  O2  UNL     1      77.340  -8.083 -53.511  1.00  0.00    -0.251 OA
ATOM     26  H1  UNL     1      78.005  -9.855 -50.868  1.00  0.00     0.164 HD
ENDBRANCH   1  22
BRANCH   1  27
HETATM   27  C6  UNL     1      76.567 -11.704 -52.008  1.00  0.00     0.259 C
HETATM   28  N3  UNL     1      75.727 -12.495 -52.927  1.00  0.00    -0.110 NA
HETATM   29  N4  UNL     1      74.915 -13.197 -52.036  1.00  0.00    -0.089 NA
HETATM   30  C7  UNL     1      75.694 -13.265 -50.806  1.00  0.00     0.378 C
HETATM   31  O3  UNL     1      76.890 -12.615 -51.074  1.00  0.00    -0.323 OA
BRANCH  30  32
HETATM   32  N5  UNL     1      75.875 -14.622 -50.378  1.00  0.00    -0.157 N
HETATM   33  N6  UNL     1      76.487 -15.575 -51.042  1.00  0.00    -0.207 N
HETATM   34  N7  UNL     1      76.468 -16.709 -50.342  1.00  0.00    -0.115 N
ATOM     35  H6  UNL     1      76.914 -15.463 -51.961  1.00  0.00     0.210 HD
HETATM   36  C8  UNL     1      75.814 -16.418 -49.207  1.00  0.00     0.707 A
ATOM     37  H7  UNL     1      76.866 -17.608 -50.613  1.00  0.00     0.207 HD
HETATM   38  N9  UNL     1      75.452 -15.122 -49.239  1.00  0.00    -0.109 N
ATOM     39  H9  UNL     1      74.941 -14.620 -48.513  1.00  0.00     0.207 HD
BRANCH  36  40
HETATM   40  N8  UNL     1      75.565 -17.237 -48.231  1.00  0.00    -0.232 N
ATOM     41  H82 UNL     1      75.998 -17.197 -47.308  1.00  0.00     0.174 HD
ATOM     42  H81 UNL     1      74.912 -18.020 -48.249  1.00  0.00     0.174 HD
ENDBRANCH  36  40
ENDBRANCH  30  32
ENDBRANCH   1  27
TORSDOF 9
ENDMDL