MODEL 3
REMARK VINA RESULT: -6.076920807      3.427      6.918
REMARK  9 active torsions:
REMARK  status: ('A' for Active; 'I' for Inactive)
REMARK    1  A    between atoms: N1_1  and  C1_4
REMARK    2  A    between atoms: C3_7  and  C4_8
REMARK    3  A    between atoms: C4_8  and  N3_9
REMARK    4  A    between atoms: C4_8  and  O1_13
REMARK    5  A    between atoms: N7_22  and  C7_23
REMARK    6  A    between atoms: C7_23  and  C8_24
REMARK    7  A    between atoms: C7_23  and  C14_41
REMARK       I    between atoms: N8_27  and  C11_29
REMARK       I    between atoms: C11_29  and  N9_30
REMARK       I    between atoms: C11_29  and  N10_34
REMARK    8  A    between atoms: C14_41  and  O2_42
REMARK    9  A    between atoms: C14_41  and  C15_44
ROOT
HETATM    1  C7  UNL     1      77.793 -11.320 -53.251  1.00  0.00     0.201 C
ENDROOT
BRANCH   1   2
HETATM    2  N7  UNL     1      78.129 -12.402 -52.368  1.00  0.00    -0.197 N
HETATM    3  N6  UNL     1      79.366 -12.855 -52.258  1.00  0.00    -0.223 N
HETATM    4  N5  UNL     1      79.445 -13.847 -51.395  1.00  0.00    -0.266 N
ATOM      5  H6  UNL     1      80.161 -12.483 -52.778  1.00  0.00     0.210 HD
HETATM    6  C6  UNL     1      78.198 -14.016 -50.950  1.00  0.00     0.171 A
ATOM      7  H5  UNL     1      80.277 -14.370 -51.125  1.00  0.00     0.190 HD
HETATM    8  C5  UNL     1      77.644 -14.897 -50.037  1.00  0.00     0.106 A
HETATM    9  N12 UNL     1      77.382 -13.123 -51.552  1.00  0.00    -0.201 N
HETATM   10  C3  UNL     1      76.304 -14.879 -49.735  1.00  0.00     0.053 A
HETATM   11  N4  UNL     1      78.534 -15.825 -49.420  1.00  0.00    -0.098 NA
HETATM   12  C2  UNL     1      75.514 -13.948 -50.377  1.00  0.00     0.104 A
HETATM   13  C1  UNL     1      76.072 -13.075 -51.284  1.00  0.00     0.149 A
HETATM   14  N2  UNL     1      74.124 -13.919 -50.073  1.00  0.00    -0.098 NA
BRANCH  10  15
HETATM   15  C4  UNL     1      75.771 -15.846 -48.748  1.00  0.00     0.354 C
BRANCH  15  16
HETATM   16  N3  UNL     1      76.405 -15.757 -47.469  1.00  0.00    -0.049 N
ATOM     17  H33 UNL     1      77.223 -16.366 -47.427  1.00  0.00     0.277 HD
ATOM     18  H32 UNL     1      76.862 -14.853 -47.354  1.00  0.00     0.277 HD
ATOM     19  H31 UNL     1      75.772 -15.945 -46.692  1.00  0.00     0.277 HD
ENDBRANCH  15  16
BRANCH  15  20
HETATM   20  O1  UNL     1      75.910 -17.166 -49.197  1.00  0.00    -0.366 OA
ATOM     21  H1  UNL     1      75.070 -17.607 -49.245  1.00  0.00     0.212 HD
ENDBRANCH  15  20
ENDBRANCH  10  15
BRANCH  13  22
HETATM   22  N1  UNL     1      75.339 -12.209 -51.878  1.00  0.00    -0.382 N
ATOM     23  H12 UNL     1      74.343 -12.392 -51.998  1.00  0.00     0.157 HD
ATOM     24  H11 UNL     1      75.750 -11.344 -52.228  1.00  0.00     0.157 HD
ENDBRANCH  13  22
ENDBRANCH   1   2
BRANCH   1  25
HETATM   25  C8  UNL     1      77.911 -10.000 -52.515  1.00  0.00    -0.025 A
HETATM   26  C9  UNL     1      77.395  -8.854 -52.909  1.00  0.00     0.040 A
HETATM   27  C10 UNL     1      77.742  -7.819 -51.907  1.00  0.00     0.056 A
HETATM   28  N8  UNL     1      77.398  -6.579 -51.973  1.00  0.00    -0.339 N
HETATM   29  C12 UNL     1      78.515  -8.524 -50.900  1.00  0.00     0.073 A
HETATM   30  C11 UNL     1      77.719  -5.560 -51.018  1.00  0.00     0.480 C
ATOM     31  H8  UNL     1      76.845  -6.295 -52.782  1.00  0.00     0.163 HD
HETATM   32  N9  UNL     1      76.919  -5.661 -49.809  1.00  0.00    -0.033 N
HETATM   33  N10 UNL     1      77.513  -4.222 -51.571  1.00  0.00    -0.033 N
ATOM     34  H93 UNL     1      75.923  -5.660 -50.027  1.00  0.00     0.278 HD
ATOM     35  H92 UNL     1      76.995  -6.590 -49.395  1.00  0.00     0.278 HD
ATOM     36  H91 UNL     1      77.148  -4.936 -49.130  1.00  0.00     0.278 HD
ATOM     37 3H10 UNL     1      78.030  -4.094 -52.441  1.00  0.00     0.278 HD
ATOM     38 2H10 UNL     1      76.565  -4.109 -51.932  1.00  0.00     0.278 HD
ATOM     39 1H10 UNL     1      77.742  -3.497 -50.892  1.00  0.00     0.278 HD
HETATM   40  N11 UNL     1      79.075  -7.930 -49.721  1.00  0.00    -0.100 NA
HETATM   41  C13 UNL     1      78.608  -9.791 -51.264  1.00  0.00     0.038 A
ENDBRANCH   1  25
BRANCH   1  42
HETATM   42  C14 UNL     1      78.766 -11.338 -54.421  1.00  0.00     0.249 C
BRANCH  42  43
HETATM   43  O2  UNL     1      79.868 -10.568 -54.014  1.00  0.00    -0.382 OA
ATOM     44  H2  UNL     1      79.545  -9.678 -53.934  1.00  0.00     0.210 HD
ENDBRANCH  42  43
BRANCH  42  45
HETATM   45  C15 UNL     1      78.221 -10.930 -55.699  1.00  0.00     0.205 C
HETATM   46  O3  UNL     1      77.009 -10.681 -55.836  1.00  0.00    -0.646 OA
HETATM   47  O4  UNL     1      79.015 -10.802 -56.815  1.00  0.00    -0.646 OA
ENDBRANCH  42  45
ENDBRANCH   1  42
TORSDOF 9
ENDMDL