MODEL 5
REMARK VINA RESULT: -4.906762988      6.449     10.192
REMARK  13 active torsions:
REMARK  status: ('A' for Active; 'I' for Inactive)
REMARK    1  A    between atoms: O1_2  and  C2_3
REMARK    2  A    between atoms: C2_3  and  O2_4
REMARK    3  A    between atoms: C2_3  and  C3_6
REMARK    4  A    between atoms: C6_13  and  C7_14
REMARK    5  A    between atoms: C7_14  and  O3_15
REMARK    6  A    between atoms: C7_14  and  O4_17
REMARK    7  A    between atoms: C9_21  and  N4_22
REMARK    8  A    between atoms: N5_25  and  N6_26
REMARK       I    between atoms: N6_26  and  C10_28
REMARK       I    between atoms: C10_28  and  N8_32
REMARK    9  A    between atoms: N8_32  and  N9_34
REMARK   10  A    between atoms: N9_34  and  C12_36
REMARK   11  A    between atoms: C12_36  and  O5_37
REMARK   12  A    between atoms: C12_36  and  O6_39
REMARK   13  A    between atoms: C12_36  and  N10_41
ROOT
HETATM    1  N10 UNL     1      77.222  -4.443 -48.823  1.00  0.00    -0.252 N
ATOM      2  H10 UNL     1      76.580  -5.189 -48.558  1.00  0.00     0.179 HD
HETATM    3  C13 UNL     1      77.934  -3.811 -47.795  1.00  0.00     0.183 C
HETATM    4  N11 UNL     1      78.511  -3.306 -46.931  1.00  0.00    -0.172 NA
ENDROOT
BRANCH   1   5
HETATM    5  C12 UNL     1      77.324  -4.124 -50.216  1.00  0.00     0.360 C
BRANCH   5   6
HETATM    6  N9  UNL     1      77.498  -5.217 -51.094  1.00  0.00    -0.240 N
HETATM    7  C11 UNL     1      76.639  -6.330 -50.935  1.00  0.00     0.179 C
BRANCH   6   8
HETATM    8  N8  UNL     1      77.843  -4.985 -52.384  1.00  0.00    -0.128 N
HETATM    9  C10 UNL     1      79.183  -5.328 -52.830  1.00  0.00     0.705 C
HETATM   10  N6  UNL     1      79.597  -6.660 -52.780  1.00  0.00    -0.121 N
HETATM   11  N7  UNL     1      79.933  -4.343 -53.226  1.00  0.00    -0.232 N
ATOM     12  H6  UNL     1      80.001  -6.937 -51.886  1.00  0.00     0.206 HD
ATOM     13  H72 UNL     1      80.873  -4.583 -53.539  1.00  0.00     0.174 HD
ATOM     14  H71 UNL     1      79.630  -3.369 -53.263  1.00  0.00     0.174 HD
ATOM     15  H8  UNL     1      77.171  -4.576 -53.032  1.00  0.00     0.205 HD
BRANCH  10  16
HETATM   16  N5  UNL     1      79.559  -7.671 -53.718  1.00  0.00    -0.206 N
HETATM   17  C4  UNL     1      78.685  -8.690 -53.422  1.00  0.00     0.157 A
HETATM   18  N2  UNL     1      77.864  -8.866 -52.398  1.00  0.00    -0.283 N
HETATM   19  C5  UNL     1      78.504  -9.796 -54.253  1.00  0.00     0.053 A
HETATM   20  N1  UNL     1      77.208  -9.988 -52.531  1.00  0.00    -0.297 N
ATOM     21  H2  UNL     1      77.760  -8.219 -51.617  1.00  0.00     0.188 HD
HETATM   22  C3  UNL     1      77.567 -10.635 -53.693  1.00  0.00     0.095 A
ATOM     23  H1  UNL     1      76.521 -10.338 -51.863  1.00  0.00     0.187 HD
HETATM   24  C6  UNL     1      79.222  -9.875 -55.432  1.00  0.00     0.040 A
HETATM   25  C8  UNL     1      80.088  -8.851 -55.714  1.00  0.00     0.103 A
HETATM   26  N3  UNL     1      80.922  -8.815 -56.864  1.00  0.00    -0.098 NA
HETATM   27  C9  UNL     1      80.261  -7.731 -54.849  1.00  0.00     0.148 A
BRANCH  22  28
HETATM   28  C2  UNL     1      77.126 -11.960 -54.144  1.00  0.00     0.309 C
BRANCH  28  29
HETATM   29  O1  UNL     1      77.921 -13.030 -53.873  1.00  0.00    -0.360 OA
HETATM   30  C1  UNL     1      77.776 -13.286 -52.488  1.00  0.00     0.205 C
ENDBRANCH  28  29
BRANCH  28  31
HETATM   31  O2  UNL     1      76.153 -12.274 -53.027  1.00  0.00    -0.366 OA
ATOM     32  H2  UNL     1      75.658 -12.894 -53.549  1.00  0.00     0.213 HD
ENDBRANCH  28  31
ENDBRANCH  22  28
BRANCH  24  33
HETATM   33  C7  UNL     1      79.028 -10.910 -56.456  1.00  0.00     0.291 C
BRANCH  33  34
HETATM   34  O3  UNL     1      78.520 -10.149 -57.595  1.00  0.00    -0.367 OA
ATOM     35  H3  UNL     1      78.523 -10.790 -58.296  1.00  0.00     0.213 HD
ENDBRANCH  33  34
BRANCH  33  36
HETATM   36  O4  UNL     1      80.201 -11.413 -57.007  1.00  0.00    -0.367 OA
ATOM     37  H4  UNL     1      80.089 -11.875 -57.829  1.00  0.00     0.213 HD
ENDBRANCH  33  36
ENDBRANCH  24  33
BRANCH  27  38
HETATM   38  N4  UNL     1      81.050  -6.834 -55.227  1.00  0.00    -0.382 N
ATOM     39  H42 UNL     1      80.935  -5.846 -55.003  1.00  0.00     0.157 HD
ATOM     40  H41 UNL     1      81.830  -7.121 -55.818  1.00  0.00     0.157 HD
ENDBRANCH  27  38
ENDBRANCH  10  16
ENDBRANCH   6   8
ENDBRANCH   5   6
BRANCH   5  41
HETATM   41  O5  UNL     1      78.391  -3.214 -50.359  1.00  0.00    -0.329 OA
ATOM     42  H5  UNL     1      78.154  -2.527 -50.972  1.00  0.00     0.217 HD
ENDBRANCH   5  41
BRANCH   5  43
HETATM   43  O6  UNL     1      76.179  -3.367 -50.592  1.00  0.00    -0.329 OA
ATOM     44  H6  UNL     1      76.395  -2.772 -51.301  1.00  0.00     0.217 HD
ENDBRANCH   5  43
ENDBRANCH   1   5
TORSDOF 13
ENDMDL