MODEL 3
REMARK VINA RESULT: -5.764714103      2.382      6.060
REMARK  10 active torsions:
REMARK  status: ('A' for Active; 'I' for Inactive)
REMARK    1  A    between atoms: N1_2  and  N2_3
REMARK    2  A    between atoms: N2_3  and  C2_5
REMARK    3  A    between atoms: C4_7  and  N3_8
REMARK    4  A    between atoms: N4_11  and  N5_12
REMARK    5  A    between atoms: C5_15  and  N6_16
REMARK    6  A    between atoms: N6_16  and  C6_18
REMARK    7  A    between atoms: C6_18  and  C7_19
REMARK    8  A    between atoms: C6_18  and  N12_35
REMARK    9  A    between atoms: C7_19  and  N7_20
REMARK   10  A    between atoms: C10_25  and  N9_26
ROOT
HETATM    1  C6  UNL     1      78.265 -10.733 -53.679  1.00  0.00     0.242 C
ENDROOT
BRANCH   1   2
HETATM    2  N6  UNL     1      78.683 -10.434 -55.002  1.00  0.00    -0.200 N
ATOM      3  H6  UNL     1      78.187  -9.651 -55.430  1.00  0.00     0.180 HD
BRANCH   2   4
HETATM    4  C5  UNL     1      79.553 -10.958 -55.740  1.00  0.00     0.704 A
HETATM    5  N4  UNL     1      79.596 -10.526 -57.029  1.00  0.00    -0.077 N
HETATM    6  C4  UNL     1      80.485 -11.031 -57.868  1.00  0.00     0.142 A
HETATM    7  C3  UNL     1      81.387 -12.006 -57.447  1.00  0.00     0.100 A
HETATM    8  C2  UNL     1      81.351 -12.446 -56.155  1.00  0.00     0.136 A
HETATM    9  N16 UNL     1      80.421 -11.894 -55.345  1.00  0.00    -0.174 N
ATOM     10  H16 UNL     1      80.379 -12.209 -54.376  1.00  0.00     0.186 HD
BRANCH   5  11
HETATM   11  N5  UNL     1      78.693  -9.540 -57.476  1.00  0.00    -0.322 N
ATOM     12  H52 UNL     1      78.922  -8.966 -58.287  1.00  0.00     0.178 HD
ATOM     13  H51 UNL     1      77.810  -9.402 -56.985  1.00  0.00     0.178 HD
ENDBRANCH   5  11
BRANCH   6  14
HETATM   14  N3  UNL     1      80.523 -10.617 -59.099  1.00  0.00    -0.383 N
ATOM     15  H32 UNL     1      80.983  -9.735 -59.325  1.00  0.00     0.157 HD
ATOM     16  H31 UNL     1      80.092 -11.182 -59.830  1.00  0.00     0.157 HD
ENDBRANCH   6  14
BRANCH   8  17
HETATM   17  N2  UNL     1      82.258 -13.435 -55.703  1.00  0.00    -0.289 N
ATOM     18  H2  UNL     1      83.235 -13.194 -55.538  1.00  0.00     0.184 HD
BRANCH  17  19
HETATM   19  N1  UNL     1      81.819 -14.735 -55.483  1.00  0.00    -0.144 NA
HETATM   20  C1  UNL     1      82.242 -15.557 -56.595  1.00  0.00     0.159 C
ENDBRANCH  17  19
ENDBRANCH   8  17
ENDBRANCH   2   4
ENDBRANCH   1   2
BRANCH   1  21
HETATM   21  C7  UNL     1      77.029 -11.613 -53.636  1.00  0.00     0.179 C
BRANCH  21  22
HETATM   22  N7  UNL     1      77.138 -12.547 -52.556  1.00  0.00    -0.324 N
HETATM   23  C8  UNL     1      78.258 -13.136 -52.115  1.00  0.00     0.185 A
HETATM   24  N8  UNL     1      77.993 -13.952 -51.085  1.00  0.00    -0.346 N
HETATM   25  C9  UNL     1      76.682 -13.905 -50.838  1.00  0.00     0.122 A
ATOM     26  H8  UNL     1      78.676 -14.513 -50.577  1.00  0.00     0.167 HD
HETATM   27  C10 UNL     1      75.905 -14.546 -49.896  1.00  0.00     0.131 A
HETATM   28  C12 UNL     1      76.154 -13.025 -51.760  1.00  0.00     0.140 A
HETATM   29  N10 UNL     1      74.586 -14.298 -49.885  1.00  0.00    -0.337 N
HETATM   30  C11 UNL     1      74.063 -13.439 -50.784  1.00  0.00     0.183 A
ATOM     31  H10 UNL     1      73.983 -14.756 -49.201  1.00  0.00     0.168 HD
HETATM   32  N11 UNL     1      74.827 -12.808 -51.710  1.00  0.00    -0.336 N
ATOM     33  H11 UNL     1      74.394 -12.166 -52.373  1.00  0.00     0.168 HD
BRANCH  27  34
HETATM   34  N9  UNL     1      76.389 -15.365 -49.035  1.00  0.00    -0.383 N
ATOM     35  H92 UNL     1      77.116 -16.017 -49.330  1.00  0.00     0.157 HD
ATOM     36  H91 UNL     1      76.079 -15.395 -48.064  1.00  0.00     0.157 HD
ENDBRANCH  27  34
ENDBRANCH  21  22
ENDBRANCH   1  21
BRANCH   1  37
HETATM   37  N12 UNL     1      78.092  -9.508 -52.964  1.00  0.00    -0.166 N
HETATM   38  C13 UNL     1      77.509  -8.414 -53.468  1.00  0.00     0.157 A
HETATM   39  C14 UNL     1      77.513  -7.430 -52.508  1.00  0.00     0.148 A
HETATM   40  N13 UNL     1      76.997  -6.112 -52.621  1.00  0.00    -0.081 NA
HETATM   41  N14 UNL     1      78.097  -7.928 -51.426  1.00  0.00    -0.178 N
HETATM   42  C15 UNL     1      78.449  -9.196 -51.706  1.00  0.00     0.681 A
ATOM     43  H14 UNL     1      78.251  -7.440 -50.544  1.00  0.00     0.185 HD
HETATM   44  N15 UNL     1      79.045  -9.952 -50.844  1.00  0.00    -0.234 N
ATOM     45 2H15 UNL     1      79.312 -10.914 -51.057  1.00  0.00     0.174 HD
ATOM     46 1H15 UNL     1      79.316  -9.716 -49.890  1.00  0.00     0.174 HD
ENDBRANCH   1  37
TORSDOF 10
ENDMDL