MODEL 5
REMARK VINA RESULT: -5.448293923      1.234      1.977
REMARK  18 active torsions:
REMARK  status: ('A' for Active; 'I' for Inactive)
REMARK    1  A    between atoms: C2_2  and  O1_3
REMARK    2  A    between atoms: C2_2  and  C13_36
REMARK    3  A    between atoms: O1_3  and  C3_4
REMARK    4  A    between atoms: C3_4  and  O2_5
REMARK    5  A    between atoms: C3_4  and  N1_7
REMARK    6  A    between atoms: C5_9  and  O3_10
REMARK    7  A    between atoms: O3_10  and  C6_11
REMARK    8  A    between atoms: C6_11  and  C7_13
REMARK    9  A    between atoms: C7_13  and  O5_14
REMARK   10  A    between atoms: C7_13  and  O6_16
REMARK   11  A    between atoms: C8_18  and  N2_19
REMARK   12  A    between atoms: C10_23  and  N3_24
REMARK   13  A    between atoms: C11_29  and  N5_30
REMARK   14  A    between atoms: C13_36  and  O7_37
REMARK   15  A    between atoms: C13_36  and  C14_39
REMARK   16  A    between atoms: C14_39  and  O8_40
REMARK   17  A    between atoms: C14_39  and  C15_42
REMARK   18  A    between atoms: C15_42  and  O9_43
ROOT
HETATM    1  N1  UNL     1      78.848  -8.650 -52.610  1.00  0.00    -0.264 N
HETATM    2  C4  UNL     1      77.889  -9.485 -52.117  1.00  0.00     0.142 A
HETATM    3  C5  UNL     1      77.243 -10.422 -52.874  1.00  0.00     0.122 A
HETATM    4  C8  UNL     1      77.576 -10.530 -54.204  1.00  0.00     0.079 A
HETATM    5  C9  UNL     1      78.533  -9.708 -54.731  1.00  0.00     0.082 A
HETATM    6  C10 UNL     1      78.852  -9.831 -56.060  1.00  0.00     0.131 A
HETATM    7  N4  UNL     1      79.788  -9.040 -56.611  1.00  0.00    -0.176 N
ATOM      8  H4  UNL     1      80.036  -9.121 -57.597  1.00  0.00     0.186 HD
HETATM    9  C11 UNL     1      80.384  -8.143 -55.818  1.00  0.00     0.679 A
HETATM   10  N6  UNL     1      80.086  -8.000 -54.489  1.00  0.00    -0.175 N
ATOM     11  H6  UNL     1      80.579  -7.295 -53.940  1.00  0.00     0.186 HD
HETATM   12  C12 UNL     1      79.162  -8.763 -53.895  1.00  0.00     0.147 A
ENDROOT
BRANCH   1  13
HETATM   13  C3  UNL     1      79.448  -7.729 -51.755  1.00  0.00     0.271 C
BRANCH  13  14
HETATM   14  O1  UNL     1      80.073  -6.545 -51.949  1.00  0.00    -0.308 OA
BRANCH  14  15
HETATM   15  C2  UNL     1      79.509  -5.271 -51.932  1.00  0.00     0.159 C
HETATM   16  C1  UNL     1      79.821  -4.593 -53.236  1.00  0.00     0.043 C
BRANCH  15  17
HETATM   17  C13 UNL     1      78.030  -5.237 -51.699  1.00  0.00     0.178 C
BRANCH  17  18
HETATM   18  O7  UNL     1      77.426  -4.233 -52.489  1.00  0.00    -0.390 OA
ATOM     19  H7  UNL     1      77.009  -3.580 -51.938  1.00  0.00     0.210 HD
ENDBRANCH  17  18
BRANCH  17  20
HETATM   20  C14 UNL     1      77.632  -5.083 -50.266  1.00  0.00     0.172 C
BRANCH  20  21
HETATM   21  O8  UNL     1      78.608  -5.405 -49.348  1.00  0.00    -0.391 OA
ATOM     22  H8  UNL     1      78.983  -4.668 -48.881  1.00  0.00     0.210 HD
ENDBRANCH  20  21
BRANCH  20  23
HETATM   23  C15 UNL     1      76.405  -5.895 -49.913  1.00  0.00     0.198 C
BRANCH  23  24
HETATM   24  O9  UNL     1      75.886  -6.408 -51.099  1.00  0.00    -0.398 OA
ATOM     25  H9  UNL     1      75.009  -6.059 -51.203  1.00  0.00     0.209 HD
ENDBRANCH  23  24
ENDBRANCH  20  23
ENDBRANCH  17  20
ENDBRANCH  15  17
ENDBRANCH  14  15
ENDBRANCH  13  14
BRANCH  13  26
HETATM   26  O2  UNL     1      79.426  -8.030 -50.489  1.00  0.00    -0.326 OA
ATOM     27  H2  UNL     1      79.699  -8.930 -50.356  1.00  0.00     0.221 HD
ENDBRANCH  13  26
ENDBRANCH   1  13
BRANCH   3  28
HETATM   28  O3  UNL     1      76.267 -11.278 -52.393  1.00  0.00    -0.271 OA
BRANCH  28  29
HETATM   29  C6  UNL     1      76.591 -12.431 -51.726  1.00  0.00     0.319 C
HETATM   30  O4  UNL     1      77.798 -12.651 -51.485  1.00  0.00    -0.259 OA
BRANCH  29  31
HETATM   31  C7  UNL     1      75.498 -13.351 -51.329  1.00  0.00     0.357 C
BRANCH  31  32
HETATM   32  O5  UNL     1      75.917 -14.661 -51.356  1.00  0.00    -0.363 OA
ATOM     33  H5  UNL     1      75.225 -15.248 -51.074  1.00  0.00     0.213 HD
ENDBRANCH  31  32
BRANCH  31  34
HETATM   34  O6  UNL     1      74.490 -13.206 -52.311  1.00  0.00    -0.363 OA
ATOM     35  H6  UNL     1      74.525 -13.994 -52.840  1.00  0.00     0.213 HD
ENDBRANCH  31  34
ENDBRANCH  29  31
ENDBRANCH  28  29
ENDBRANCH   3  28
BRANCH   4  36
HETATM   36  N2  UNL     1      76.998 -11.403 -54.987  1.00  0.00    -0.396 N
ATOM     37  H22 UNL     1      76.480 -12.173 -54.563  1.00  0.00     0.156 HD
ATOM     38  H21 UNL     1      77.054 -11.330 -56.002  1.00  0.00     0.156 HD
ENDBRANCH   4  36
BRANCH   6  39
HETATM   39  N3  UNL     1      78.225 -10.729 -56.767  1.00  0.00    -0.384 N
ATOM     40  H32 UNL     1      78.487 -11.714 -56.724  1.00  0.00     0.157 HD
ATOM     41  H31 UNL     1      77.460 -10.424 -57.370  1.00  0.00     0.157 HD
ENDBRANCH   6  39
BRANCH   9  42
HETATM   42  N5  UNL     1      81.294  -7.356 -56.299  1.00  0.00    -0.234 N
ATOM     43  H52 UNL     1      82.240  -7.732 -56.359  1.00  0.00     0.174 HD
ATOM     44  H51 UNL     1      81.047  -6.412 -56.595  1.00  0.00     0.174 HD
ENDBRANCH   9  42
TORSDOF 18
ENDMDL