MODEL 1
REMARK VINA RESULT: -7.369051433      0.000      0.000
REMARK  13 active torsions:
REMARK  status: ('A' for Active; 'I' for Inactive)
REMARK    1  A    between atoms: N1_1  and  C1_5
REMARK    2  A    between atoms: C1_5  and  C2_6
REMARK    3  A    between atoms: C2_6  and  O1_7
REMARK    4  A    between atoms: C3_10  and  C4_11
REMARK    5  A    between atoms: C4_11  and  O3_12
REMARK    6  A    between atoms: C5_14  and  O4_15
REMARK    7  A    between atoms: C6_17  and  N2_18
REMARK    8  A    between atoms: C8_20  and  C9_21
REMARK    9  A    between atoms: C10_22  and  O5_23
REMARK   10  A    between atoms: N3_25  and  N4_26
REMARK   11  A    between atoms: N4_26  and  S1_28
REMARK   12  A    between atoms: C15_40  and  N7_41
REMARK   13  A    between atoms: N7_41  and  N8_43
ROOT
HETATM    1  N2  UNL     1      77.892 -18.009 -49.132  1.00  0.00    -0.178 N
HETATM    2  C7  UNL     1      77.392 -17.032 -49.906  1.00  0.00     0.128 A
HETATM    3  C8  UNL     1      77.461 -15.726 -49.499  1.00  0.00     0.063 A
HETATM    4  C14 UNL     1      78.048 -15.437 -48.290  1.00  0.00     0.272 A
HETATM    5  O9  UNL     1      78.169 -14.289 -47.812  1.00  0.00    -0.267 OA
HETATM    6  N6  UNL     1      78.541 -16.459 -47.540  1.00  0.00    -0.154 N
ATOM      7  H6  UNL     1      78.979 -16.250 -46.642  1.00  0.00     0.187 HD
HETATM    8  C15 UNL     1      78.467 -17.733 -47.949  1.00  0.00     0.702 A
ENDROOT
BRANCH   1   9
HETATM    9  C6  UNL     1      77.828 -19.395 -49.559  1.00  0.00     0.202 C
HETATM   10  C2  UNL     1      76.638 -20.142 -49.086  1.00  0.00     0.210 C
HETATM   11  O2  UNL     1      75.804 -20.364 -50.172  1.00  0.00    -0.342 OA
HETATM   12  C3  UNL     1      76.500 -20.189 -51.331  1.00  0.00     0.179 C
HETATM   13  C5  UNL     1      77.803 -19.520 -51.062  1.00  0.00     0.178 C
BRANCH  10  14
HETATM   14  C1  UNL     1      77.017 -21.523 -48.535  1.00  0.00     0.299 C
BRANCH  14  15
HETATM   15  N1  UNL     1      75.801 -22.291 -48.347  1.00  0.00    -0.074 N
ATOM     16  H13 UNL     1      75.845 -22.900 -47.530  1.00  0.00     0.274 HD
ATOM     17  H12 UNL     1      75.015 -21.714 -48.050  1.00  0.00     0.274 HD
ATOM     18  H11 UNL     1      75.607 -22.803 -49.207  1.00  0.00     0.274 HD
ENDBRANCH  14  15
ENDBRANCH  10  14
BRANCH  10  19
HETATM   19  O1  UNL     1      75.899 -19.535 -48.092  1.00  0.00    -0.362 OA
ATOM     20  H1  UNL     1      75.665 -18.680 -48.433  1.00  0.00     0.213 HD
ENDBRANCH  10  19
BRANCH  12  21
HETATM   21  C4  UNL     1      76.647 -21.451 -52.156  1.00  0.00     0.198 C
BRANCH  21  22
HETATM   22  O3  UNL     1      75.882 -22.461 -51.573  1.00  0.00    -0.398 OA
ATOM     23  H3  UNL     1      76.206 -23.302 -51.871  1.00  0.00     0.209 HD
ENDBRANCH  21  22
ENDBRANCH  12  21
BRANCH  13  24
HETATM   24  O4  UNL     1      78.851 -20.293 -51.534  1.00  0.00    -0.391 OA
ATOM     25  H4  UNL     1      79.270 -19.868 -52.273  1.00  0.00     0.210 HD
ENDBRANCH  13  24
ENDBRANCH   1   9
BRANCH   8  26
HETATM   26  N7  UNL     1      78.950 -18.706 -47.208  1.00  0.00    -0.138 N
ATOM     27  H7  UNL     1      79.792 -19.209 -47.488  1.00  0.00     0.205 HD
BRANCH  26  28
HETATM   28  N8  UNL     1      78.277 -19.034 -46.027  1.00  0.00    -0.331 N
ATOM     29  H82 UNL     1      78.067 -18.309 -45.342  1.00  0.00     0.177 HD
ATOM     30  H81 UNL     1      78.009 -20.008 -45.879  1.00  0.00     0.177 HD
ENDBRANCH  26  28
ENDBRANCH   8  26
BRANCH   3  31
HETATM   31  C9  UNL     1      76.926 -14.634 -50.294  1.00  0.00     0.035 A
HETATM   32  C10 UNL     1      77.725 -13.915 -51.039  1.00  0.00     0.169 A
HETATM   33  N3  UNL     1      77.214 -12.852 -51.816  1.00  0.00    -0.254 N
HETATM   34  C11 UNL     1      75.818 -12.492 -51.814  1.00  0.00     0.206 A
HETATM   35  C12 UNL     1      75.016 -13.355 -50.950  1.00  0.00     0.045 A
HETATM   36  N5  UNL     1      73.615 -13.113 -50.868  1.00  0.00    -0.105 NA
HETATM   37  C13 UNL     1      75.510 -14.355 -50.236  1.00  0.00     0.040 A
BRANCH  32  38
HETATM   38  O5  UNL     1      79.102 -14.136 -51.124  1.00  0.00    -0.344 OA
ATOM     39  H5  UNL     1      79.742 -13.435 -51.165  1.00  0.00     0.219 HD
ENDBRANCH  32  38
BRANCH  33  40
HETATM   40  N4  UNL     1      78.100 -12.096 -52.637  1.00  0.00    -0.203 N
ATOM     41  H4  UNL     1      78.416 -12.352 -53.572  1.00  0.00     0.203 HD
BRANCH  40  42
HETATM   42  S1  UNL     1      78.548 -10.656 -51.764  1.00  0.00     0.223 S
HETATM   43  O6  UNL     1      79.892 -10.157 -52.203  1.00  0.00    -0.577 OA
HETATM   44  O7  UNL     1      78.566 -10.993 -50.297  1.00  0.00    -0.577 OA
HETATM   45  O8  UNL     1      77.446  -9.425 -52.034  1.00  0.00    -0.577 OA
ENDBRANCH  40  42
ENDBRANCH  33  40
ENDBRANCH   3  31
TORSDOF 13
ENDMDL