MODEL 5
REMARK VINA RESULT: -7.421194546      2.729      4.394
REMARK  16 active torsions:
REMARK  status: ('A' for Active; 'I' for Inactive)
REMARK    1  A    between atoms: C2_2  and  O2_4
REMARK    2  A    between atoms: O2_4  and  C3_5
REMARK    3  A    between atoms: C4_6  and  O3_7
REMARK    4  A    between atoms: C5_9  and  N1_10
REMARK    5  A    between atoms: C8_15  and  N3_16
REMARK    6  A    between atoms: N3_16  and  N4_18
REMARK    7  A    between atoms: C11_28  and  C12_29
REMARK    8  A    between atoms: C12_29  and  O5_30
REMARK    9  A    between atoms: C12_29  and  C13_32
REMARK   10  A    between atoms: C13_32  and  O6_33
REMARK   11  A    between atoms: C13_32  and  C14_35
REMARK   12  A    between atoms: C14_35  and  N7_36
REMARK   13  A    between atoms: C14_35  and  O7_40
REMARK   14  A    between atoms: C15_42  and  N8_43
REMARK       I    between atoms: N8_43  and  C16_45
REMARK   15  A    between atoms: C16_45  and  C17_47
REMARK   16  A    between atoms: C17_47  and  N9_48
ROOT
HETATM    1  C3  UNL     1      76.084 -18.539 -49.111  1.00  0.00     0.190 C
HETATM    2  C4  UNL     1      76.949 -19.193 -48.025  1.00  0.00     0.199 C
HETATM    3  C5  UNL     1      78.406 -19.145 -48.477  1.00  0.00     0.262 C
HETATM    4  O4  UNL     1      78.531 -19.195 -49.830  1.00  0.00    -0.353 OA
HETATM    5  C11 UNL     1      77.969 -18.122 -50.546  1.00  0.00     0.181 C
HETATM    6  C15 UNL     1      77.007 -17.425 -49.678  1.00  0.00     0.148 C
ENDROOT
BRANCH   3   7
HETATM    7  N1  UNL     1      79.032 -20.341 -47.941  1.00  0.00    -0.297 N
HETATM    8  C6  UNL     1      78.431 -21.457 -47.489  1.00  0.00     0.188 A
HETATM    9  N2  UNL     1      79.332 -22.356 -47.067  1.00  0.00    -0.346 N
HETATM   10  C7  UNL     1      80.545 -21.810 -47.249  1.00  0.00     0.124 A
ATOM     11  H2  UNL     1      79.134 -23.279 -46.681  1.00  0.00     0.167 HD
HETATM   12  C8  UNL     1      81.834 -22.220 -47.018  1.00  0.00     0.151 A
HETATM   13  C10 UNL     1      80.351 -20.561 -47.790  1.00  0.00     0.142 A
HETATM   14  N5  UNL     1      82.856 -21.404 -47.323  1.00  0.00    -0.336 N
HETATM   15  C9  UNL     1      82.646 -20.183 -47.854  1.00  0.00     0.183 A
ATOM     16  H5  UNL     1      83.811 -21.715 -47.149  1.00  0.00     0.168 HD
HETATM   17  N6  UNL     1      81.391 -19.760 -48.088  1.00  0.00    -0.336 N
ATOM     18  H6  UNL     1      81.229 -18.836 -48.490  1.00  0.00     0.168 HD
BRANCH  12  19
HETATM   19  N3  UNL     1      82.069 -23.392 -46.508  1.00  0.00    -0.290 N
ATOM     20  H3  UNL     1      81.796 -23.599 -45.548  1.00  0.00     0.188 HD
BRANCH  19  21
HETATM   21  N4  UNL     1      82.700 -24.366 -47.290  1.00  0.00    -0.344 N
ATOM     22  H42 UNL     1      83.511 -24.108 -47.854  1.00  0.00     0.176 HD
ATOM     23  H41 UNL     1      82.340 -25.321 -47.285  1.00  0.00     0.176 HD
ENDBRANCH  19  21
ENDBRANCH  12  19
ENDBRANCH   3   7
BRANCH   2  24
HETATM   24  O3  UNL     1      76.853 -18.412 -46.877  1.00  0.00    -0.388 OA
ATOM     25  H3  UNL     1      75.934 -18.208 -46.741  1.00  0.00     0.210 HD
ENDBRANCH   2  24
BRANCH   1  26
HETATM   26  O2  UNL     1      74.898 -18.024 -48.617  1.00  0.00    -0.311 OA
BRANCH  26  27
HETATM   27  C2  UNL     1      73.847 -18.908 -48.322  1.00  0.00     0.255 C
HETATM   28  C1  UNL     1      73.016 -18.756 -47.093  1.00  0.00     0.126 C
HETATM   29  O1  UNL     1      73.615 -19.850 -49.133  1.00  0.00    -0.266 OA
ENDBRANCH  26  27
ENDBRANCH   1  26
BRANCH   5  30
HETATM   30  C12 UNL     1      79.062 -17.344 -51.187  1.00  0.00     0.182 C
BRANCH  30  31
HETATM   31  O5  UNL     1      78.713 -16.162 -51.789  1.00  0.00    -0.390 OA
ATOM     32  H5  UNL     1      77.862 -16.127 -52.210  1.00  0.00     0.210 HD
ENDBRANCH  30  31
BRANCH  30  33
HETATM   33  C13 UNL     1      80.130 -18.140 -51.869  1.00  0.00     0.205 C
BRANCH  33  34
HETATM   34  O6  UNL     1      80.881 -18.962 -51.085  1.00  0.00    -0.389 OA
ATOM     35  H6  UNL     1      80.793 -18.856 -50.144  1.00  0.00     0.210 HD
ENDBRANCH  33  34
BRANCH  33  36
HETATM   36  C14 UNL     1      79.589 -18.930 -53.050  1.00  0.00     0.347 C
BRANCH  36  37
HETATM   37  N7  UNL     1      79.433 -18.068 -54.197  1.00  0.00    -0.051 N
ATOM     38  H73 UNL     1      78.900 -17.228 -53.973  1.00  0.00     0.277 HD
ATOM     39  H72 UNL     1      80.311 -17.623 -54.462  1.00  0.00     0.277 HD
ATOM     40  H71 UNL     1      79.020 -18.585 -54.973  1.00  0.00     0.277 HD
ENDBRANCH  36  37
BRANCH  36  41
HETATM   41  O7  UNL     1      80.516 -19.939 -53.317  1.00  0.00    -0.368 OA
ATOM     42  H7  UNL     1      80.479 -20.103 -54.251  1.00  0.00     0.212 HD
ENDBRANCH  36  41
ENDBRANCH  33  36
ENDBRANCH  30  33
ENDBRANCH   5  30
BRANCH   6  43
HETATM   43  N8  UNL     1      76.208 -16.383 -50.234  1.00  0.00    -0.350 N
HETATM   44  C16 UNL     1      76.519 -15.008 -49.916  1.00  0.00     0.243 C
HETATM   45  O8  UNL     1      77.483 -14.725 -49.158  1.00  0.00    -0.272 OA
ATOM     46  H8  UNL     1      75.427 -16.606 -50.850  1.00  0.00     0.163 HD
BRANCH  44  47
HETATM   47  C17 UNL     1      75.729 -13.888 -50.460  1.00  0.00     0.332 C
BRANCH  47  48
HETATM   48  N9  UNL     1      74.308 -14.136 -50.386  1.00  0.00    -0.071 N
ATOM     49  H93 UNL     1      73.775 -13.312 -50.662  1.00  0.00     0.274 HD
ATOM     50  H92 UNL     1      74.007 -14.777 -51.120  1.00  0.00     0.274 HD
ATOM     51  H91 UNL     1      74.023 -14.469 -49.465  1.00  0.00     0.274 HD
ENDBRANCH  47  48
ENDBRANCH  44  47
ENDBRANCH   6  43
TORSDOF 16
ENDMDL