MODEL 5
REMARK VINA RESULT: -8.068918085      3.637      7.367
REMARK  15 active torsions:
REMARK  status: ('A' for Active; 'I' for Inactive)
REMARK    1  A    between atoms: N1_1  and  C1_4
REMARK    2  A    between atoms: C2_7  and  N3_8
REMARK    3  A    between atoms: N4_14  and  C5_15
REMARK    4  A    between atoms: C5_15  and  O2_16
REMARK    5  A    between atoms: C5_15  and  C6_18
REMARK    6  A    between atoms: C6_18  and  O4_20
REMARK    7  A    between atoms: O4_20  and  C7_21
REMARK    8  A    between atoms: C7_21  and  C8_22
REMARK    9  A    between atoms: C9_25  and  C10_26
REMARK   10  A    between atoms: C10_26  and  O5_27
REMARK   11  A    between atoms: C10_26  and  N6_29
REMARK   12  A    between atoms: N6_29  and  N7_31
REMARK       I    between atoms: N7_31  and  C11_33
REMARK   13  A    between atoms: C11_33  and  C12_35
REMARK   14  A    between atoms: C12_35  and  O7_36
REMARK   15  A    between atoms: C13_38  and  O8_39
ROOT
HETATM    1  C6  UNL     1      77.336 -14.889 -51.866  1.00  0.00     0.308 C
HETATM    2  O3  UNL     1      77.138 -13.954 -52.676  1.00  0.00    -0.260 OA
ENDROOT
BRANCH   1   3
HETATM    3  C5  UNL     1      77.704 -14.559 -50.443  1.00  0.00     0.330 C
BRANCH   3   4
HETATM    4  N4  UNL     1      76.652 -15.163 -49.619  1.00  0.00    -0.273 N
HETATM    5  C4  UNL     1      76.961 -16.112 -48.702  1.00  0.00     0.268 A
HETATM    6  C3  UNL     1      76.041 -16.730 -47.889  1.00  0.00     0.121 A
HETATM    7  O1  UNL     1      78.172 -16.416 -48.621  1.00  0.00    -0.267 OA
HETATM    8  C2  UNL     1      76.371 -17.694 -46.960  1.00  0.00     0.134 A
HETATM    9  C16 UNL     1      74.721 -16.317 -48.061  1.00  0.00     0.141 A
HETATM   10  N2  UNL     1      75.351 -18.238 -46.204  1.00  0.00    -0.176 N
HETATM   11  C1  UNL     1      74.095 -17.827 -46.386  1.00  0.00     0.679 A
ATOM     12  H2  UNL     1      75.558 -18.953 -45.507  1.00  0.00     0.186 HD
HETATM   13  N10 UNL     1      73.768 -16.888 -47.291  1.00  0.00    -0.176 N
ATOM     14  H10 UNL     1      72.794 -16.603 -47.397  1.00  0.00     0.186 HD
HETATM   15  N9  UNL     1      74.422 -15.378 -48.972  1.00  0.00    -0.337 N
HETATM   16  C15 UNL     1      75.365 -14.806 -49.741  1.00  0.00     0.191 A
ATOM     17  H9  UNL     1      73.451 -15.088 -49.083  1.00  0.00     0.168 HD
BRANCH   8  18
HETATM   18  N3  UNL     1      77.521 -18.105 -46.757  1.00  0.00    -0.384 N
ATOM     19  H32 UNL     1      77.860 -18.450 -45.859  1.00  0.00     0.157 HD
ATOM     20  H31 UNL     1      78.172 -18.098 -47.542  1.00  0.00     0.157 HD
ENDBRANCH   8  18
BRANCH  11  21
HETATM   21  N1  UNL     1      73.165 -18.356 -45.664  1.00  0.00    -0.234 N
ATOM     22  H12 UNL     1      73.389 -18.676 -44.721  1.00  0.00     0.174 HD
ATOM     23  H11 UNL     1      72.229 -18.438 -46.062  1.00  0.00     0.174 HD
ENDBRANCH  11  21
ENDBRANCH   3   4
BRANCH   3  24
HETATM   24  O2  UNL     1      77.741 -13.195 -50.250  1.00  0.00    -0.367 OA
ATOM     25  H2  UNL     1      78.548 -12.944 -49.814  1.00  0.00     0.212 HD
ENDBRANCH   3  24
ENDBRANCH   1   3
BRANCH   1  26
HETATM   26  O4  UNL     1      77.211 -16.189 -52.299  1.00  0.00    -0.316 OA
BRANCH  26  27
HETATM   27  C7  UNL     1      78.223 -17.166 -52.307  1.00  0.00     0.213 C
BRANCH  27  28
HETATM   28  C8  UNL     1      77.716 -18.579 -52.128  1.00  0.00     0.195 C
HETATM   29  N5  UNL     1      76.450 -18.528 -51.459  1.00  0.00    -0.393 N
HETATM   30  C9  UNL     1      75.628 -19.682 -51.590  1.00  0.00     0.203 C
ATOM     31  H5  UNL     1      76.155 -17.713 -50.922  1.00  0.00     0.155 HD
HETATM   32  C13 UNL     1      75.471 -20.211 -52.970  1.00  0.00     0.250 C
HETATM   33  N8  UNL     1      76.756 -20.348 -53.600  1.00  0.00    -0.331 N
HETATM   34  C14 UNL     1      77.717 -19.348 -53.372  1.00  0.00     0.244 C
ATOM     35  H8  UNL     1      76.964 -21.149 -54.197  1.00  0.00     0.165 HD
HETATM   36  O9  UNL     1      78.585 -19.137 -54.282  1.00  0.00    -0.271 OA
BRANCH  30  37
HETATM   37  C10 UNL     1      76.111 -20.767 -50.718  1.00  0.00     0.157 C
BRANCH  37  38
HETATM   38  O5  UNL     1      76.302 -22.023 -51.240  1.00  0.00    -0.347 OA
ATOM     39  H5  UNL     1      76.240 -22.782 -50.672  1.00  0.00     0.219 HD
ENDBRANCH  37  38
BRANCH  37  40
HETATM   40  N6  UNL     1      76.348 -20.542 -49.488  1.00  0.00    -0.279 N
ATOM     41  H6  UNL     1      75.873 -19.773 -49.015  1.00  0.00     0.189 HD
BRANCH  40  42
HETATM   42  N7  UNL     1      77.243 -21.330 -48.789  1.00  0.00    -0.267 N
HETATM   43  C11 UNL     1      78.541 -20.853 -48.516  1.00  0.00     0.259 C
HETATM   44  O6  UNL     1      78.884 -19.706 -48.911  1.00  0.00    -0.269 OA
ATOM     45  H7  UNL     1      76.964 -22.257 -48.470  1.00  0.00     0.190 HD
BRANCH  43  46
HETATM   46  C12 UNL     1      79.494 -21.720 -47.759  1.00  0.00     0.268 C
BRANCH  46  47
HETATM   47  O7  UNL     1      78.748 -22.666 -47.080  1.00  0.00    -0.392 OA
ATOM     48  H7  UNL     1      79.356 -23.277 -46.682  1.00  0.00     0.210 HD
ENDBRANCH  46  47
ENDBRANCH  43  46
ENDBRANCH  40  42
ENDBRANCH  37  40
ENDBRANCH  30  37
BRANCH  32  49
HETATM   49  O8  UNL     1      74.557 -19.503 -53.747  1.00  0.00    -0.374 OA
ATOM     50  H8  UNL     1      74.829 -19.381 -54.648  1.00  0.00     0.212 HD
ENDBRANCH  32  49
ENDBRANCH  27  28
ENDBRANCH  26  27
ENDBRANCH   1  26
TORSDOF 15
ENDMDL