MODEL 4
REMARK VINA RESULT: -8.578939774      1.921      2.184
REMARK  10 active torsions:
REMARK  status: ('A' for Active; 'I' for Inactive)
REMARK       I    between atoms: C2_2  and  N1_4
REMARK    1  A    between atoms: N1_4  and  C3_6
REMARK    2  A    between atoms: C4_7  and  N2_8
REMARK       I    between atoms: N2_8  and  C5_10
REMARK    3  A    between atoms: C5_10  and  C6_12
REMARK    4  A    between atoms: C6_12  and  O3_13
REMARK    5  A    between atoms: C6_12  and  C7_15
REMARK    6  A    between atoms: C9_21  and  N5_22
REMARK    7  A    between atoms: N6_26  and  O5_27
REMARK    8  A    between atoms: C10_30  and  C11_31
REMARK    9  A    between atoms: C12_34  and  C13_35
REMARK   10  A    between atoms: C14_39  and  O12_40
ROOT
HETATM    1  C3  UNL     1      76.988 -21.290 -48.529  1.00  0.00     0.167 C
HETATM    2  C4  UNL     1      78.346 -20.676 -48.846  1.00  0.00     0.250 C
HETATM    3  O6  UNL     1      78.791 -21.011 -50.093  1.00  0.00    -0.342 OA
HETATM    4  C10 UNL     1      78.488 -20.107 -51.092  1.00  0.00     0.298 C
HETATM    5  C12 UNL     1      76.993 -19.869 -51.190  1.00  0.00     0.295 C
HETATM    6  O11 UNL     1      76.536 -18.869 -50.373  1.00  0.00    -0.311 OA
HETATM    7  C14 UNL     1      75.628 -19.412 -49.488  1.00  0.00     0.292 C
HETATM    8  C15 UNL     1      75.950 -20.888 -49.520  1.00  0.00     0.208 C
HETATM    9  O13 UNL     1      76.391 -21.067 -50.807  1.00  0.00    -0.331 OA
ENDROOT
BRANCH   2  10
HETATM   10  N2  UNL     1      79.268 -21.079 -47.794  1.00  0.00    -0.330 N
HETATM   11  C5  UNL     1      80.574 -20.556 -47.633  1.00  0.00     0.252 C
HETATM   12  O2  UNL     1      80.959 -19.675 -48.463  1.00  0.00    -0.270 OA
ATOM     13  H2  UNL     1      78.952 -21.785 -47.128  1.00  0.00     0.165 HD
BRANCH  11  14
HETATM   14  C6  UNL     1      81.469 -20.998 -46.556  1.00  0.00     0.256 C
BRANCH  14  15
HETATM   15  O3  UNL     1      82.733 -20.413 -46.805  1.00  0.00    -0.382 OA
ATOM     16  H3  UNL     1      83.381 -20.959 -46.375  1.00  0.00     0.210 HD
ENDBRANCH  14  15
BRANCH  14  17
HETATM   17  C7  UNL     1      81.621 -22.480 -46.470  1.00  0.00     0.273 C
HETATM   18  O4  UNL     1      82.856 -22.829 -47.116  1.00  0.00    -0.298 OA
HETATM   19  C8  UNL     1      83.479 -24.040 -46.834  1.00  0.00     0.231 C
HETATM   20  N3  UNL     1      84.565 -24.527 -47.605  1.00  0.00    -0.056 NA
HETATM   21  N4  UNL     1      83.084 -24.749 -45.861  1.00  0.00    -0.318 N
HETATM   22  C9  UNL     1      82.003 -24.353 -45.022  1.00  0.00     0.390 C
ATOM     23  H4  UNL     1      83.556 -25.634 -45.672  1.00  0.00     0.166 HD
HETATM   24  N6  UNL     1      81.624 -22.971 -45.106  1.00  0.00    -0.118 NA
BRANCH  22  25
HETATM   25  N5  UNL     1      82.418 -24.576 -43.627  1.00  0.00    -0.043 N
ATOM     26  H53 UNL     1      82.776 -25.517 -43.465  1.00  0.00     0.278 HD
ATOM     27  H52 UNL     1      83.266 -24.067 -43.378  1.00  0.00     0.278 HD
ATOM     28  H51 UNL     1      81.625 -24.344 -43.029  1.00  0.00     0.278 HD
ENDBRANCH  22  25
BRANCH  24  29
HETATM   29  O5  UNL     1      82.377 -22.184 -44.298  1.00  0.00    -0.307 OA
ATOM     30  H5  UNL     1      81.850 -21.780 -43.619  1.00  0.00     0.237 HD
ENDBRANCH  24  29
ENDBRANCH  14  17
ENDBRANCH  11  14
ENDBRANCH   2  10
BRANCH   1  31
HETATM   31  N1  UNL     1      76.632 -20.933 -47.189  1.00  0.00    -0.350 N
HETATM   32  C2  UNL     1      76.310 -21.872 -46.176  1.00  0.00     0.214 C
HETATM   33  C1  UNL     1      75.944 -21.486 -44.799  1.00  0.00     0.117 C
HETATM   34  O1  UNL     1      76.335 -23.088 -46.458  1.00  0.00    -0.274 OA
ATOM     35  H1  UNL     1      76.610 -19.942 -46.948  1.00  0.00     0.163 HD
ENDBRANCH   1  31
BRANCH   4  36
HETATM   36  C11 UNL     1      79.269 -18.862 -50.992  1.00  0.00     0.209 C
HETATM   37  O7  UNL     1      80.361 -18.762 -51.570  1.00  0.00    -0.646 OA
HETATM   38  O8  UNL     1      78.795 -17.772 -50.245  1.00  0.00    -0.646 OA
ENDBRANCH   4  36
BRANCH   7  39
HETATM   39  O12 UNL     1      74.353 -19.265 -50.078  1.00  0.00    -0.368 OA
ATOM     40  H12 UNL     1      73.924 -20.109 -50.008  1.00  0.00     0.212 HD
ENDBRANCH   7  39
BRANCH   5  41
HETATM   41  C13 UNL     1      76.664 -19.523 -52.598  1.00  0.00     0.242 C
HETATM   42  O9  UNL     1      75.672 -18.803 -52.841  1.00  0.00    -0.644 OA
HETATM   43  O10 UNL     1      77.440 -19.987 -53.644  1.00  0.00    -0.644 OA
ENDBRANCH   5  41
TORSDOF 10
ENDMDL