MODEL 4
REMARK VINA RESULT: -7.438651263      2.262      4.909
REMARK  14 active torsions:
REMARK  status: ('A' for Active; 'I' for Inactive)
REMARK    1  A    between atoms: C1_2  and  C2_4
REMARK    2  A    between atoms: C2_4  and  O3_5
REMARK    3  A    between atoms: C2_4  and  C3_7
REMARK    4  A    between atoms: C3_7  and  O4_8
REMARK    5  A    between atoms: C3_7  and  C4_10
REMARK    6  A    between atoms: C4_10  and  O5_11
REMARK    7  A    between atoms: C4_10  and  C5_13
REMARK    8  A    between atoms: C7_17  and  O8_18
REMARK    9  A    between atoms: C10_24  and  O11_25
REMARK   10  A    between atoms: C11_27  and  O12_28
REMARK   11  A    between atoms: C14_33  and  O14_34
REMARK   12  A    between atoms: C14_33  and  C15_36
REMARK   13  A    between atoms: C16_39  and  C17_40
REMARK   14  A    between atoms: C17_40  and  O17_41
ROOT
HETATM    1  C5  UNL     1      77.773 -20.074 -49.712  1.00  0.00     0.182 C
HETATM    2  O6  UNL     1      78.187 -21.072 -50.713  1.00  0.00    -0.309 OA
HETATM    3  C6  UNL     1      77.452 -20.728 -51.878  1.00  0.00     0.303 C
HETATM    4  O7  UNL     1      77.110 -21.594 -52.719  1.00  0.00    -0.261 OA
HETATM    5  C7  UNL     1      77.229 -19.277 -51.840  1.00  0.00     0.230 C
HETATM    6  C8  UNL     1      77.910 -18.537 -52.921  1.00  0.00     0.243 C
HETATM    7  O9  UNL     1      78.580 -19.186 -53.716  1.00  0.00    -0.285 OA
HETATM    8  C9  UNL     1      77.830 -17.093 -53.087  1.00  0.00     0.230 C
HETATM    9  O10 UNL     1      78.266 -16.642 -54.175  1.00  0.00    -0.286 OA
HETATM   10  C10 UNL     1      77.288 -16.111 -52.103  1.00  0.00     0.241 C
HETATM   11  C11 UNL     1      77.814 -16.271 -50.727  1.00  0.00     0.185 C
HETATM   12  C12 UNL     1      77.565 -17.561 -50.043  1.00  0.00     0.003 C
HETATM   13  C13 UNL     1      77.014 -17.269 -48.878  1.00  0.00     0.146 C
HETATM   14  O13 UNL     1      76.859 -15.904 -48.691  1.00  0.00    -0.314 OA
HETATM   15  C14 UNL     1      77.058 -15.236 -49.886  1.00  0.00     0.297 C
HETATM   16  C16 UNL     1      77.899 -18.887 -50.533  1.00  0.00     0.087 C
ENDROOT
BRANCH   1  17
HETATM   17  C4  UNL     1      76.554 -20.628 -49.141  1.00  0.00     0.180 C
BRANCH  17  18
HETATM   18  C3  UNL     1      76.774 -20.612 -47.594  1.00  0.00     0.188 C
BRANCH  18  19
HETATM   19  C2  UNL     1      77.515 -21.830 -47.162  1.00  0.00     0.250 C
BRANCH  19  20
HETATM   20  C1  UNL     1      78.364 -21.529 -45.982  1.00  0.00     0.205 C
HETATM   21  O1  UNL     1      79.351 -22.276 -45.684  1.00  0.00    -0.646 OA
HETATM   22  O2  UNL     1      78.146 -20.441 -45.147  1.00  0.00    -0.646 OA
ENDBRANCH  19  20
BRANCH  19  23
HETATM   23  O3  UNL     1      76.663 -22.874 -46.784  1.00  0.00    -0.382 OA
ATOM     24  H3  UNL     1      75.776 -22.559 -46.909  1.00  0.00     0.210 HD
ENDBRANCH  19  23
ENDBRANCH  18  19
BRANCH  18  25
HETATM   25  O4  UNL     1      75.582 -20.547 -46.921  1.00  0.00    -0.390 OA
ATOM     26  H4  UNL     1      74.890 -20.881 -47.480  1.00  0.00     0.210 HD
ENDBRANCH  18  25
ENDBRANCH  17  18
BRANCH  17  27
HETATM   27  O5  UNL     1      76.339 -21.981 -49.382  1.00  0.00    -0.390 OA
ATOM     28  H5  UNL     1      75.934 -21.962 -50.241  1.00  0.00     0.210 HD
ENDBRANCH  17  27
ENDBRANCH   1  17
BRANCH  16  29
HETATM   29  C17 UNL     1      79.428 -18.870 -50.893  1.00  0.00     0.185 C
BRANCH  29  30
HETATM   30  O17 UNL     1      80.160 -19.269 -49.788  1.00  0.00    -0.400 OA
ATOM     31  H17 UNL     1      80.392 -18.504 -49.275  1.00  0.00     0.209 HD
ENDBRANCH  29  30
ENDBRANCH  16  29
BRANCH   5  32
HETATM   32  O8  UNL     1      75.892 -18.889 -51.905  1.00  0.00    -0.371 OA
ATOM     33  H8  UNL     1      75.642 -18.217 -51.283  1.00  0.00     0.211 HD
ENDBRANCH   5  32
BRANCH  11  34
HETATM   34  O12 UNL     1      79.164 -15.903 -50.639  1.00  0.00    -0.376 OA
ATOM     35  H12 UNL     1      79.488 -15.554 -51.461  1.00  0.00     0.211 HD
ENDBRANCH  11  34
BRANCH  10  36
HETATM   36  O11 UNL     1      77.705 -14.832 -52.537  1.00  0.00    -0.384 OA
ATOM     37  H11 UNL     1      77.117 -14.579 -53.239  1.00  0.00     0.210 HD
ENDBRANCH  10  36
BRANCH  15  38
HETATM   38  O14 UNL     1      75.851 -14.888 -50.508  1.00  0.00    -0.354 OA
ATOM     39  H14 UNL     1      75.114 -15.214 -50.007  1.00  0.00     0.213 HD
ENDBRANCH  15  38
BRANCH  15  40
HETATM   40  C15 UNL     1      77.859 -14.006 -49.768  1.00  0.00     0.243 C
HETATM   41  O15 UNL     1      77.589 -13.030 -50.509  1.00  0.00    -0.644 OA
HETATM   42  O16 UNL     1      78.910 -13.874 -48.867  1.00  0.00    -0.644 OA
ENDBRANCH  15  40
TORSDOF 14
ENDMDL