MODEL 3
REMARK VINA RESULT: -8.331039116      8.145      9.680
REMARK  10 active torsions:
REMARK  status: ('A' for Active; 'I' for Inactive)
REMARK    1  A    between atoms: C2_5  and  C3_6
REMARK    2  A    between atoms: C3_6  and  C4_7
REMARK    3  A    between atoms: C5_8  and  C6_9
REMARK    4  A    between atoms: C7_10  and  O1_11
REMARK    5  A    between atoms: C8_13  and  O2_14
REMARK    6  A    between atoms: C9_16  and  N3_17
REMARK    7  A    between atoms: C10_20  and  C11_21
REMARK       I    between atoms: C11_21  and  N5_23
REMARK    8  A    between atoms: C15_37  and  N11_38
REMARK    9  A    between atoms: N13_44  and  O5_45
REMARK   10  A    between atoms: O5_45  and  O6_46
ROOT
HETATM    1  N1  UNL     1      84.025 -28.664 -37.731  1.00  0.00    -0.172 NA
HETATM    2  C1  UNL     1      83.478 -28.021 -38.526  1.00  0.00     0.181 C
HETATM    3  N2  UNL     1      82.819 -27.258 -39.480  1.00  0.00    -0.308 N
ATOM      4  H2  UNL     1      83.239 -27.080 -40.392  1.00  0.00     0.177 HD
HETATM    5  C2  UNL     1      81.660 -26.783 -39.178  1.00  0.00     0.076 C
ENDROOT
BRANCH   5   6
HETATM    6  C3  UNL     1      80.960 -25.967 -40.206  1.00  0.00     0.072 C
BRANCH   6   7
HETATM    7  C4  UNL     1      81.940 -25.258 -41.068  1.00  0.00    -0.024 C
HETATM    8  C5  UNL     1      81.739 -25.059 -42.361  1.00  0.00    -0.006 C
BRANCH   8   9
HETATM    9  C6  UNL     1      82.767 -24.342 -43.154  1.00  0.00     0.145 C
HETATM   10  C7  UNL     1      83.268 -25.145 -44.330  1.00  0.00     0.174 C
HETATM   11  C8  UNL     1      82.270 -24.825 -45.424  1.00  0.00     0.190 C
HETATM   12  C9  UNL     1      81.542 -23.617 -44.911  1.00  0.00     0.244 C
HETATM   13  N13 UNL     1      82.242 -23.152 -43.754  1.00  0.00    -0.126 NA
BRANCH  10  14
HETATM   14  O1  UNL     1      83.280 -26.512 -44.051  1.00  0.00    -0.391 OA
ATOM     15  H1  UNL     1      82.626 -26.741 -43.401  1.00  0.00     0.210 HD
ENDBRANCH  10  14
BRANCH  11  16
HETATM   16  O2  UNL     1      82.961 -24.615 -46.595  1.00  0.00    -0.389 OA
ATOM     17  H2  UNL     1      82.618 -25.206 -47.255  1.00  0.00     0.210 HD
ENDBRANCH  11  16
BRANCH  12  18
HETATM   18  N3  UNL     1      81.333 -22.601 -45.923  1.00  0.00    -0.251 N
HETATM   19  N4  UNL     1      82.282 -21.851 -46.444  1.00  0.00    -0.289 N
HETATM   20  C10 UNL     1      81.765 -20.993 -47.368  1.00  0.00     0.136 A
ATOM     21  H4  UNL     1      83.268 -21.905 -46.192  1.00  0.00     0.187 HD
HETATM   22  C13 UNL     1      80.423 -21.268 -47.379  1.00  0.00     0.112 A
HETATM   23  C14 UNL     1      79.374 -20.752 -48.084  1.00  0.00     0.276 A
HETATM   24  C16 UNL     1      80.153 -22.280 -46.469  1.00  0.00     0.157 A
HETATM   25  O4  UNL     1      79.580 -19.838 -48.913  1.00  0.00    -0.267 OA
HETATM   26  N10 UNL     1      78.115 -21.232 -47.883  1.00  0.00    -0.155 N
HETATM   27  C15 UNL     1      77.887 -22.212 -46.994  1.00  0.00     0.680 A
ATOM     28  H10 UNL     1      77.336 -20.842 -48.413  1.00  0.00     0.187 HD
HETATM   29  N12 UNL     1      78.885 -22.752 -46.278  1.00  0.00    -0.174 N
ATOM     30  H12 UNL     1      78.701 -23.497 -45.606  1.00  0.00     0.186 HD
BRANCH  20  31
HETATM   31  C11 UNL     1      82.585 -20.050 -48.098  1.00  0.00     0.277 C
HETATM   32  O3  UNL     1      82.351 -19.636 -49.252  1.00  0.00    -0.266 OA
HETATM   33  N5  UNL     1      83.779 -19.505 -47.510  1.00  0.00    -0.291 N
HETATM   34  C12 UNL     1      83.676 -18.528 -46.682  1.00  0.00     0.212 C
ATOM     35  H5  UNL     1      84.694 -19.889 -47.746  1.00  0.00     0.172 HD
HETATM   36  N6  UNL     1      84.724 -17.849 -45.996  1.00  0.00    -0.256 N
HETATM   37  N9  UNL     1      82.474 -17.902 -46.266  1.00  0.00    -0.256 N
HETATM   38  N7  UNL     1      84.138 -16.907 -45.154  1.00  0.00    -0.006 NA
ATOM     39  H6  UNL     1      85.723 -18.022 -46.101  1.00  0.00     0.187 HD
HETATM   40  N8  UNL     1      82.783 -17.246 -45.069  1.00  0.00    -0.006 NA
ATOM     41  H9  UNL     1      81.571 -17.925 -46.740  1.00  0.00     0.187 HD
ENDBRANCH  20  31
BRANCH  27  42
HETATM   42  N11 UNL     1      76.684 -22.680 -46.794  1.00  0.00    -0.234 N
ATOM     43 2H11 UNL     1      76.139 -22.261 -46.040  1.00  0.00     0.174 HD
ATOM     44 1H11 UNL     1      76.307 -23.434 -47.368  1.00  0.00     0.174 HD
ENDBRANCH  27  42
ENDBRANCH  12  18
BRANCH  13  45
HETATM   45  O5  UNL     1      81.460 -22.453 -42.926  1.00  0.00    -0.139 OA
BRANCH  45  46
HETATM   46  O6  UNL     1      81.217 -21.241 -43.359  1.00  0.00    -0.232 OA
ATOM     47  H6  UNL     1      80.498 -20.823 -42.899  1.00  0.00     0.255 HD
ENDBRANCH  45  46
ENDBRANCH  13  45
ENDBRANCH   8   9
ENDBRANCH   6   7
ENDBRANCH   5   6
TORSDOF 10
ENDMDL