MODEL 2
REMARK VINA RESULT: -7.732938646      2.874      5.352
REMARK  11 active torsions:
REMARK  status: ('A' for Active; 'I' for Inactive)
REMARK    1  A    between atoms: N3_5  and  C2_6
REMARK    2  A    between atoms: C3_10  and  C4_11
REMARK    3  A    between atoms: C9_18  and  N6_19
REMARK    4  A    between atoms: N6_19  and  C10_21
REMARK    5  A    between atoms: C11_23  and  O3_24
REMARK    6  A    between atoms: C12_27  and  N7_28
REMARK    7  A    between atoms: C12_27  and  C13_32
REMARK    8  A    between atoms: C14_35  and  N8_36
REMARK    9  A    between atoms: C15_40  and  O7_41
REMARK   10  A    between atoms: C16_43  and  O8_44
REMARK   11  A    between atoms: C17_48  and  O9_49
ROOT
HETATM    1  C2  UNL     1      78.443 -16.247 -51.860  1.00  0.00     0.357 C
HETATM    2  N4  UNL     1      78.816 -16.941 -50.650  1.00  0.00    -0.038 N
ATOM      3  H41 UNL     1      78.560 -16.432 -49.805  1.00  0.00     0.280 HD
ATOM      4  H42 UNL     1      79.825 -16.956 -50.496  1.00  0.00     0.280 HD
HETATM    5  C3  UNL     1      78.215 -18.308 -50.712  1.00  0.00     0.255 C
HETATM    6  C14 UNL     1      79.104 -18.955 -51.714  1.00  0.00     0.249 C
HETATM    7  C15 UNL     1      78.615 -18.454 -53.089  1.00  0.00     0.183 C
HETATM    8  C16 UNL     1      77.986 -17.104 -52.978  1.00  0.00     0.202 C
ENDROOT
BRANCH   5   9
HETATM    9  C4  UNL     1      78.142 -18.906 -49.335  1.00  0.00     0.024 C
HETATM   10  C5  UNL     1      79.453 -19.456 -48.889  1.00  0.00     0.142 C
HETATM   11  O1  UNL     1      79.651 -19.972 -47.699  1.00  0.00    -0.361 OA
HETATM   12  C6  UNL     1      79.824 -21.184 -47.260  1.00  0.00     0.191 C
HETATM   13  C7  UNL     1      78.800 -21.806 -46.285  1.00  0.00     0.147 C
HETATM   14  N5  UNL     1      77.557 -22.073 -46.770  1.00  0.00    -0.189 NA
HETATM   15  C8  UNL     1      77.504 -21.522 -48.095  1.00  0.00     0.160 C
HETATM   16  O4  UNL     1      76.361 -21.860 -46.388  1.00  0.00    -0.268 OA
HETATM   17  C9  UNL     1      76.872 -20.260 -47.761  1.00  0.00     0.145 C
HETATM   18  C11 UNL     1      75.631 -20.999 -47.282  1.00  0.00     0.312 C
HETATM   19  C12 UNL     1      76.839 -19.525 -49.062  1.00  0.00     0.268 C
BRANCH  17  20
HETATM   20  N6  UNL     1      76.964 -19.369 -46.716  1.00  0.00    -0.350 N
ATOM     21  H6  UNL     1      77.913 -18.998 -46.712  1.00  0.00     0.163 HD
BRANCH  20  22
HETATM   22  C10 UNL     1      76.276 -18.773 -45.663  1.00  0.00     0.349 C
HETATM   23  O2  UNL     1      75.529 -17.779 -45.739  1.00  0.00    -0.284 OA
ENDBRANCH  20  22
ENDBRANCH  17  20
BRANCH  18  24
HETATM   24  O3  UNL     1      74.931 -21.671 -48.222  1.00  0.00    -0.367 OA
ATOM     25  H3  UNL     1      74.288 -21.170 -48.710  1.00  0.00     0.212 HD
ENDBRANCH  18  24
BRANCH  19  26
HETATM   26  N7  UNL     1      75.897 -18.408 -48.730  1.00  0.00    -0.053 N
ATOM     27  H73 UNL     1      76.363 -17.591 -48.336  1.00  0.00     0.276 HD
ATOM     28  H72 UNL     1      75.510 -17.948 -49.554  1.00  0.00     0.276 HD
ATOM     29  H71 UNL     1      75.183 -18.802 -48.117  1.00  0.00     0.276 HD
ENDBRANCH  19  26
BRANCH  19  30
HETATM   30  C13 UNL     1      76.158 -20.230 -50.159  1.00  0.00     0.218 C
HETATM   31  O5  UNL     1      74.983 -19.894 -50.574  1.00  0.00    -0.646 OA
HETATM   32  O6  UNL     1      76.639 -21.311 -50.882  1.00  0.00    -0.646 OA
ENDBRANCH  19  30
ENDBRANCH   5   9
BRANCH   6  33
HETATM   33  N8  UNL     1      80.482 -18.447 -51.654  1.00  0.00    -0.070 N
ATOM     34  H83 UNL     1      80.503 -17.431 -51.746  1.00  0.00     0.274 HD
ATOM     35  H82 UNL     1      80.864 -18.533 -50.712  1.00  0.00     0.274 HD
ATOM     36  H81 UNL     1      81.091 -18.891 -52.341  1.00  0.00     0.274 HD
ENDBRANCH   6  33
BRANCH   1  37
HETATM   37  N3  UNL     1      77.430 -15.250 -51.601  1.00  0.00    -0.196 N
HETATM   38  N2  UNL     1      77.410 -14.035 -52.081  1.00  0.00    -0.265 N
HETATM   39  C1  UNL     1      76.327 -13.406 -51.626  1.00  0.00     0.184 A
ATOM     40  H2  UNL     1      78.111 -13.633 -52.704  1.00  0.00     0.190 HD
HETATM   41  N1  UNL     1      75.985 -12.070 -51.945  1.00  0.00    -0.076 NA
HETATM   42  C17 UNL     1      75.655 -14.303 -50.822  1.00  0.00     0.200 A
HETATM   43  N9  UNL     1      76.379 -15.428 -50.838  1.00  0.00    -0.258 N
ATOM     44  H9  UNL     1      76.149 -16.287 -50.338  1.00  0.00     0.191 HD
BRANCH  42  45
HETATM   45  O9  UNL     1      74.470 -14.005 -50.165  1.00  0.00    -0.343 OA
ATOM     46  H9  UNL     1      73.657 -14.474 -50.312  1.00  0.00     0.219 HD
ENDBRANCH  42  45
ENDBRANCH   1  37
BRANCH   7  47
HETATM   47  O7  UNL     1      79.665 -18.508 -54.004  1.00  0.00    -0.391 OA
ATOM     48  H7  UNL     1      79.883 -19.415 -54.183  1.00  0.00     0.210 HD
ENDBRANCH   7  47
BRANCH   8  49
HETATM   49  O8  UNL     1      78.223 -16.397 -54.180  1.00  0.00    -0.389 OA
ATOM     50  H8  UNL     1      78.277 -17.036 -54.881  1.00  0.00     0.210 HD
ENDBRANCH   8  49
TORSDOF 11
ENDMDL