MODEL 3
REMARK VINA RESULT: -8.332152682      2.804      5.139
REMARK  12 active torsions:
REMARK  status: ('A' for Active; 'I' for Inactive)
REMARK    1  A    between atoms: N1_1  and  C1_4
REMARK    2  A    between atoms: N3_8  and  C3_9
REMARK    3  A    between atoms: C3_9  and  C4_10
REMARK       I    between atoms: C4_10  and  N4_12
REMARK    4  A    between atoms: N4_12  and  C5_14
REMARK    5  A    between atoms: C5_14  and  C6_15
REMARK    6  A    between atoms: N5_16  and  C7_18
REMARK    7  A    between atoms: C12_31  and  N10_32
REMARK    8  A    between atoms: N11_35  and  C13_36
REMARK    9  A    between atoms: C14_38  and  C15_39
REMARK   10  A    between atoms: C15_39  and  O4_40
REMARK   11  A    between atoms: C16_42  and  O5_43
REMARK   12  A    between atoms: C17_45  and  O6_46
ROOT
HETATM    1  C7  UNL     1      76.688 -20.341 -50.795  1.00  0.00     0.684 A
HETATM    2  N6  UNL     1      76.700 -18.966 -50.624  1.00  0.00    -0.174 N
ATOM      3  H6  UNL     1      76.256 -18.586 -49.788  1.00  0.00     0.186 HD
HETATM    4  C8  UNL     1      77.247 -18.115 -51.473  1.00  0.00     0.161 A
HETATM    5  C9  UNL     1      77.845 -18.605 -52.599  1.00  0.00     0.119 A
HETATM    6  C10 UNL     1      77.854 -19.947 -52.798  1.00  0.00     0.151 A
HETATM    7  N7  UNL     1      78.467 -20.471 -53.958  1.00  0.00    -0.081 NA
HETATM    8  N8  UNL     1      77.280 -20.811 -51.904  1.00  0.00    -0.177 N
ATOM      9  H8  UNL     1      77.301 -21.814 -52.082  1.00  0.00     0.185 HD
HETATM   10  C11 UNL     1      78.400 -17.717 -53.487  1.00  0.00     0.277 A
HETATM   11  O2  UNL     1      78.952 -18.170 -54.525  1.00  0.00    -0.267 OA
HETATM   12  N9  UNL     1      78.354 -16.396 -53.250  1.00  0.00    -0.155 N
ATOM     13  H9  UNL     1      78.772 -15.751 -53.922  1.00  0.00     0.187 HD
HETATM   14  C12 UNL     1      77.755 -15.898 -52.125  1.00  0.00     0.684 A
HETATM   15  N11 UNL     1      77.216 -16.745 -51.256  1.00  0.00    -0.137 N
ENDROOT
BRANCH   1  16
HETATM   16  N5  UNL     1      76.141 -21.049 -49.930  1.00  0.00    -0.204 N
HETATM   17  C6  UNL     1      76.018 -21.372 -48.615  1.00  0.00     0.098 C
ATOM     18  H5  UNL     1      75.497 -21.660 -50.431  1.00  0.00     0.183 HD
BRANCH  17  19
HETATM   19  C5  UNL     1      76.800 -20.563 -47.616  1.00  0.00     0.167 C
BRANCH  19  20
HETATM   20  N4  UNL     1      78.108 -21.102 -47.318  1.00  0.00    -0.355 N
HETATM   21  C4  UNL     1      79.303 -20.598 -47.867  1.00  0.00     0.237 C
HETATM   22  O1  UNL     1      79.358 -19.630 -48.663  1.00  0.00    -0.272 OA
ATOM     23  H4  UNL     1      78.169 -21.890 -46.673  1.00  0.00     0.162 HD
BRANCH  21  24
HETATM   24  C3  UNL     1      80.607 -21.242 -47.491  1.00  0.00     0.253 C
BRANCH  24  25
HETATM   25  N3  UNL     1      81.617 -20.277 -47.173  1.00  0.00    -0.264 N
HETATM   26  C2  UNL     1      82.847 -20.277 -47.742  1.00  0.00     0.218 A
HETATM   27  N2  UNL     1      83.549 -19.273 -47.244  1.00  0.00    -0.185 N
HETATM   28  C1  UNL     1      82.793 -18.609 -46.351  1.00  0.00     0.691 A
ATOM     29  H2  UNL     1      84.510 -19.039 -47.495  1.00  0.00     0.185 HD
HETATM   30  N12 UNL     1      81.607 -19.249 -46.328  1.00  0.00    -0.129 N
ATOM     31  H12 UNL     1      80.815 -18.982 -45.744  1.00  0.00     0.206 HD
BRANCH  28  32
HETATM   32  N1  UNL     1      83.212 -17.585 -45.706  1.00  0.00    -0.233 N
ATOM     33  H12 UNL     1      84.141 -17.341 -45.364  1.00  0.00     0.174 HD
ATOM     34  H11 UNL     1      82.603 -16.814 -45.429  1.00  0.00     0.174 HD
ENDBRANCH  28  32
ENDBRANCH  24  25
ENDBRANCH  21  24
ENDBRANCH  19  20
ENDBRANCH  17  19
ENDBRANCH   1  16
BRANCH  15  35
HETATM   35  C13 UNL     1      76.576 -16.347 -50.071  1.00  0.00     0.279 C
HETATM   36  O3  UNL     1      77.106 -17.170 -48.992  1.00  0.00    -0.353 OA
HETATM   37  C14 UNL     1      78.182 -16.450 -48.477  1.00  0.00     0.179 C
HETATM   38  C16 UNL     1      77.958 -15.003 -48.747  1.00  0.00     0.182 C
HETATM   39  C17 UNL     1      76.593 -15.067 -49.419  1.00  0.00     0.199 C
BRANCH  37  40
HETATM   40  C15 UNL     1      78.317 -16.650 -46.979  1.00  0.00     0.198 C
BRANCH  40  41
HETATM   41  O4  UNL     1      79.571 -17.214 -46.683  1.00  0.00    -0.398 OA
ATOM     42  H4  UNL     1      80.017 -16.685 -46.032  1.00  0.00     0.209 HD
ENDBRANCH  40  41
ENDBRANCH  37  40
BRANCH  38  43
HETATM   43  O5  UNL     1      78.921 -14.373 -49.482  1.00  0.00    -0.390 OA
ATOM     44  H5  UNL     1      78.866 -14.482 -50.424  1.00  0.00     0.210 HD
ENDBRANCH  38  43
BRANCH  39  45
HETATM   45  O6  UNL     1      76.302 -13.879 -49.952  1.00  0.00    -0.388 OA
ATOM     46  H6  UNL     1      75.486 -13.398 -49.882  1.00  0.00     0.210 HD
ENDBRANCH  39  45
ENDBRANCH  15  35
BRANCH  14  47
HETATM   47  N10 UNL     1      77.738 -14.602 -52.015  1.00  0.00    -0.234 N
ATOM     48 2H10 UNL     1      78.287 -13.958 -52.584  1.00  0.00     0.174 HD
ATOM     49 1H10 UNL     1      77.141 -14.225 -51.280  1.00  0.00     0.174 HD
ENDBRANCH  14  47
TORSDOF 12
ENDMDL