MODEL 2
REMARK VINA RESULT: -8.076641808      6.068     10.714
REMARK  14 active torsions:
REMARK  status: ('A' for Active; 'I' for Inactive)
REMARK    1  A    between atoms: C2_2  and  C3_3
REMARK    2  A    between atoms: C3_3  and  O1_4
REMARK    3  A    between atoms: C4_8  and  S1_9
REMARK    4  A    between atoms: S1_9  and  C5_10
REMARK    5  A    between atoms: C5_10  and  C6_11
REMARK       I    between atoms: C6_11  and  N2_13
REMARK    6  A    between atoms: N2_13  and  N3_15
REMARK       I    between atoms: N3_15  and  C7_17
REMARK       I    between atoms: C7_17  and  N4_19
REMARK    7  A    between atoms: N4_19  and  N5_21
REMARK    8  A    between atoms: C9_23  and  N6_24
REMARK    9  A    between atoms: C10_28  and  S2_29
REMARK   10  A    between atoms: S2_29  and  N7_32
REMARK   11  A    between atoms: N7_32  and  N8_34
REMARK   12  A    between atoms: C11_38  and  O7_39
REMARK   13  A    between atoms: C12_41  and  C13_42
REMARK   14  A    between atoms: C13_42  and  O8_43
ROOT
HETATM    1  N3  UNL     1      82.342 -19.414 -46.323  1.00  0.00    -0.248 N
ATOM      2  H3  UNL     1      82.901 -18.962 -47.047  1.00  0.00     0.192 HD
HETATM    3  C7  UNL     1      81.674 -18.620 -45.345  1.00  0.00     0.353 C
HETATM    4  O3  UNL     1      80.988 -19.202 -44.495  1.00  0.00    -0.244 OA
HETATM    5  N4  UNL     1      81.851 -17.236 -45.419  1.00  0.00    -0.248 N
ATOM      6  H4  UNL     1      82.447 -16.879 -46.167  1.00  0.00     0.191 HD
ENDROOT
BRANCH   1   7
HETATM    7  N2  UNL     1      82.235 -20.797 -46.297  1.00  0.00    -0.265 N
HETATM    8  C6  UNL     1      81.296 -21.394 -47.165  1.00  0.00     0.245 C
HETATM    9  O2  UNL     1      80.576 -20.773 -47.958  1.00  0.00    -0.271 OA
ATOM     10  H2  UNL     1      82.814 -21.361 -45.675  1.00  0.00     0.190 HD
BRANCH   8  11
HETATM   11  C5  UNL     1      81.200 -22.904 -47.073  1.00  0.00     0.185 C
BRANCH  11  12
HETATM   12  S1  UNL     1      82.765 -23.506 -46.471  1.00  0.00    -0.105 SA
BRANCH  12  13
HETATM   13  C4  UNL     1      82.749 -24.094 -44.766  1.00  0.00     0.076 C
HETATM   14  N1  UNL     1      83.751 -24.787 -44.282  1.00  0.00    -0.353 N
HETATM   15  C2  UNL     1      83.474 -25.107 -42.926  1.00  0.00     0.153 C
ATOM     16  H1  UNL     1      84.593 -25.052 -44.795  1.00  0.00     0.163 HD
HETATM   17  C1  UNL     1      84.783 -24.718 -42.178  1.00  0.00     0.073 C
HETATM   18  O9  UNL     1      82.483 -24.220 -42.529  1.00  0.00    -0.345 OA
HETATM   19  C12 UNL     1      81.759 -23.947 -43.696  1.00  0.00     0.204 C
BRANCH  15  20
HETATM   20  C3  UNL     1      83.182 -26.544 -42.683  1.00  0.00     0.224 C
BRANCH  20  21
HETATM   21  O1  UNL     1      83.915 -27.329 -43.538  1.00  0.00    -0.396 OA
ATOM     22  H1  UNL     1      84.250 -28.090 -43.080  1.00  0.00     0.209 HD
ENDBRANCH  20  21
ENDBRANCH  15  20
BRANCH  19  23
HETATM   23  C13 UNL     1      81.022 -22.654 -43.627  1.00  0.00     0.203 C
BRANCH  23  24
HETATM   24  O8  UNL     1      81.978 -21.598 -43.650  1.00  0.00    -0.398 OA
ATOM     25  H8  UNL     1      81.507 -20.774 -43.643  1.00  0.00     0.209 HD
ENDBRANCH  23  24
ENDBRANCH  19  23
ENDBRANCH  12  13
ENDBRANCH  11  12
ENDBRANCH   8  11
ENDBRANCH   1   7
BRANCH   5  26
HETATM   26  N5  UNL     1      81.294 -16.326 -44.580  1.00  0.00    -0.270 N
HETATM   27  C8  UNL     1      79.978 -15.902 -44.908  1.00  0.00     0.184 C
HETATM   28  C9  UNL     1      79.715 -14.439 -44.656  1.00  0.00     0.248 C
HETATM   29  C10 UNL     1      81.040 -13.804 -44.250  1.00  0.00     0.302 C
HETATM   30  O6  UNL     1      81.521 -14.492 -43.138  1.00  0.00    -0.318 OA
HETATM   31  C11 UNL     1      81.951 -15.779 -43.491  1.00  0.00     0.387 C
BRANCH  28  32
HETATM   32  N6  UNL     1      79.148 -13.768 -45.814  1.00  0.00    -0.070 N
ATOM     33  H63 UNL     1      79.496 -12.813 -45.891  1.00  0.00     0.274 HD
ATOM     34  H62 UNL     1      79.526 -14.150 -46.681  1.00  0.00     0.274 HD
ATOM     35  H61 UNL     1      78.129 -13.789 -45.818  1.00  0.00     0.274 HD
ENDBRANCH  28  32
BRANCH  29  36
HETATM   36  S2  UNL     1      80.849 -12.100 -43.789  1.00  0.00     0.273 S
HETATM   37  O4  UNL     1      80.836 -11.295 -45.059  1.00  0.00    -0.202 OA
HETATM   38  O5  UNL     1      81.995 -11.670 -42.887  1.00  0.00    -0.202 OA
BRANCH  36  39
HETATM   39  N7  UNL     1      79.351 -11.927 -42.969  1.00  0.00    -0.231 N
ATOM     40  H7  UNL     1      78.481 -11.588 -43.378  1.00  0.00     0.199 HD
BRANCH  39  41
HETATM   41  N8  UNL     1      79.534 -12.335 -41.626  1.00  0.00    -0.336 N
ATOM     42  H82 UNL     1      78.998 -11.989 -40.830  1.00  0.00     0.177 HD
ATOM     43  H81 UNL     1      80.285 -13.024 -41.603  1.00  0.00     0.177 HD
ENDBRANCH  39  41
ENDBRANCH  36  39
ENDBRANCH  29  36
BRANCH  31  44
HETATM   44  O7  UNL     1      81.865 -16.633 -42.385  1.00  0.00    -0.353 OA
ATOM     45  H7  UNL     1      82.226 -17.486 -42.593  1.00  0.00     0.214 HD
ENDBRANCH  31  44
ENDBRANCH   5  26
TORSDOF 14
ENDMDL