MODEL 4
REMARK VINA RESULT: -7.442958829      6.815     10.352
REMARK  14 active torsions:
REMARK  status: ('A' for Active; 'I' for Inactive)
REMARK    1  A    between atoms: C2_2  and  O1_3
REMARK    2  A    between atoms: C2_2  and  C3_5
REMARK    3  A    between atoms: C4_7  and  O3_8
REMARK    4  A    between atoms: C6_11  and  C7_12
REMARK       I    between atoms: C7_12  and  N1_14
REMARK    5  A    between atoms: C8_16  and  C9_17
REMARK    6  A    between atoms: C9_17  and  N2_18
REMARK    7  A    between atoms: C9_17  and  N3_22
REMARK    8  A    between atoms: N3_22  and  O5_23
REMARK    9  A    between atoms: C10_25  and  O6_26
REMARK   10  A    between atoms: C10_25  and  C11_28
REMARK   11  A    between atoms: C11_28  and  O7_29
REMARK   12  A    between atoms: C12_31  and  O8_32
REMARK   13  A    between atoms: C12_31  and  C13_34
REMARK   14  A    between atoms: C16_42  and  C17_43
ROOT
HETATM    1  C3  UNL     1      81.049 -17.226 -44.239  1.00  0.00     0.186 C
HETATM    2  O2  UNL     1      81.712 -17.293 -43.048  1.00  0.00    -0.349 OA
HETATM    3  C4  UNL     1      81.038 -16.532 -42.112  1.00  0.00     0.280 C
HETATM    4  C5  UNL     1      81.211 -15.093 -42.539  1.00  0.00     0.154 C
HETATM    5  C6  UNL     1      80.297 -14.295 -41.568  1.00  0.00     0.147 C
HETATM    6  C10 UNL     1      79.875 -13.174 -42.426  1.00  0.00     0.149 C
HETATM    7  C12 UNL     1      79.801 -13.800 -43.836  1.00  0.00     0.212 C
HETATM    8  N5  UNL     1      80.745 -14.823 -43.845  1.00  0.00    -0.348 N
HETATM    9  C16 UNL     1      80.763 -15.836 -44.785  1.00  0.00     0.216 C
ENDROOT
BRANCH   5  10
HETATM   10  C7  UNL     1      81.067 -14.037 -40.350  1.00  0.00     0.231 C
HETATM   11  O4  UNL     1      82.334 -14.038 -40.424  1.00  0.00    -0.273 OA
HETATM   12  N1  UNL     1      80.502 -13.796 -39.129  1.00  0.00    -0.337 N
HETATM   13  C8  UNL     1      79.636 -13.035 -38.648  1.00  0.00     0.115 C
ATOM     14  H1  UNL     1      80.896 -14.406 -38.413  1.00  0.00     0.168 HD
BRANCH  13  15
HETATM   15  C9  UNL     1      79.388 -13.203 -37.160  1.00  0.00     0.340 C
BRANCH  15  16
HETATM   16  N2  UNL     1      80.515 -12.812 -36.377  1.00  0.00    -0.054 N
ATOM     17  H23 UNL     1      80.883 -13.599 -35.843  1.00  0.00     0.276 HD
ATOM     18  H22 UNL     1      81.325 -12.622 -36.967  1.00  0.00     0.276 HD
ATOM     19  H21 UNL     1      80.307 -12.019 -35.770  1.00  0.00     0.276 HD
ENDBRANCH  15  16
BRANCH  15  20
HETATM   20  N3  UNL     1      79.010 -14.564 -36.879  1.00  0.00    -0.065 NA
BRANCH  20  21
HETATM   21  O5  UNL     1      78.273 -15.121 -37.884  1.00  0.00    -0.294 OA
ATOM     22  H5  UNL     1      77.561 -15.659 -37.558  1.00  0.00     0.238 HD
ENDBRANCH  20  21
ENDBRANCH  15  20
ENDBRANCH  13  15
ENDBRANCH   5  10
BRANCH   6  23
HETATM   23  O6  UNL     1      78.610 -12.719 -42.042  1.00  0.00    -0.381 OA
ATOM     24  H6  UNL     1      78.688 -11.916 -41.540  1.00  0.00     0.211 HD
ENDBRANCH   6  23
BRANCH   6  25
HETATM   25  C11 UNL     1      80.785 -11.995 -42.409  1.00  0.00     0.208 C
BRANCH  25  26
HETATM   26  O7  UNL     1      79.969 -10.852 -42.637  1.00  0.00    -0.398 OA
ATOM     27  H7  UNL     1      79.531 -10.666 -41.815  1.00  0.00     0.209 HD
ENDBRANCH  25  26
ENDBRANCH   6  25
BRANCH   3  28
HETATM   28  O3  UNL     1      81.566 -16.719 -40.857  1.00  0.00    -0.369 OA
ATOM     29  H3  UNL     1      81.933 -15.909 -40.521  1.00  0.00     0.212 HD
ENDBRANCH   3  28
BRANCH   7  30
HETATM   30  O8  UNL     1      78.473 -14.228 -43.951  1.00  0.00    -0.363 OA
ATOM     31  H8  UNL     1      78.371 -14.421 -44.875  1.00  0.00     0.213 HD
ENDBRANCH   7  30
BRANCH   7  32
HETATM   32  C13 UNL     1      79.981 -12.755 -44.862  1.00  0.00     0.095 A
HETATM   33  C14 UNL     1      78.974 -12.209 -45.618  1.00  0.00     0.177 A
HETATM   34  O9  UNL     1      79.523 -11.323 -46.446  1.00  0.00    -0.271 OA
HETATM   35  C15 UNL     1      80.809 -11.275 -46.267  1.00  0.00     0.369 A
HETATM   36  O10 UNL     1      81.683 -10.554 -46.874  1.00  0.00    -0.238 OA
HETATM   37  N4  UNL     1      81.112 -12.154 -45.290  1.00  0.00    -0.300 N
ATOM     38  H4  UNL     1      82.048 -12.336 -44.931  1.00  0.00     0.171 HD
ENDBRANCH   7  32
BRANCH   9  39
HETATM   39  C17 UNL     1      79.568 -16.009 -45.643  1.00  0.00     0.199 C
HETATM   40  O11 UNL     1      79.381 -15.457 -46.744  1.00  0.00    -0.646 OA
HETATM   41  O12 UNL     1      78.518 -16.857 -45.225  1.00  0.00    -0.646 OA
ENDBRANCH   9  39
BRANCH   1  42
HETATM   42  C2  UNL     1      81.831 -18.044 -45.249  1.00  0.00     0.145 C
HETATM   43  C1  UNL     1      83.164 -17.357 -45.493  1.00  0.00     0.042 C
BRANCH  42  44
HETATM   44  O1  UNL     1      82.011 -19.352 -44.830  1.00  0.00    -0.393 OA
ATOM     45  H1  UNL     1      82.160 -19.932 -45.568  1.00  0.00     0.210 HD
ENDBRANCH  42  44
ENDBRANCH   1  42
TORSDOF 14
ENDMDL