MODEL 1
REMARK VINA RESULT: -9.240461010      0.000      0.000
REMARK  8 active torsions:
REMARK  status: ('A' for Active; 'I' for Inactive)
REMARK    1  A    between atoms: N1_4  and  N2_6
REMARK    2  A    between atoms: N2_6  and  C4_8
REMARK    3  A    between atoms: C7_11  and  N3_12
REMARK    4  A    between atoms: N3_12  and  N4_14
REMARK    5  A    between atoms: N4_14  and  C8_16
REMARK    6  A    between atoms: C8_16  and  O1_17
REMARK    7  A    between atoms: C9_21  and  N6_22
REMARK       I    between atoms: N6_22  and  C10_24
REMARK    8  A    between atoms: C10_24  and  C11_26
ROOT
HETATM    1  C4  UNL     1     -32.149  14.910  15.806  1.00  0.00     0.135 C
HETATM    2  C5  UNL     1     -31.410  14.721  16.954  1.00  0.00     0.054 C
HETATM    3  C6  UNL     1     -30.862  13.508  17.345  1.00  0.00     0.054 C
HETATM    4  C7  UNL     1     -30.999  12.265  16.768  1.00  0.00     0.135 C
HETATM    5  N5  UNL     1     -31.727  11.951  15.682  1.00  0.00    -0.175 N
ATOM      6  H5  UNL     1     -31.897  10.952  15.559  1.00  0.00     0.186 HD
HETATM    7  C9  UNL     1     -32.268  12.730  14.732  1.00  0.00     0.688 C
HETATM    8  N11 UNL     1     -32.406  14.067  14.791  1.00  0.00    -0.175 N
ATOM      9  H11 UNL     1     -32.759  14.505  13.940  1.00  0.00     0.186 HD
ENDROOT
BRANCH   7  10
HETATM   10  N6  UNL     1     -32.706  12.163  13.649  1.00  0.00    -0.153 N
HETATM   11  C10 UNL     1     -32.079  12.300  12.405  1.00  0.00     0.306 C
HETATM   12  O2  UNL     1     -32.098  13.382  11.770  1.00  0.00    -0.263 OA
ATOM     13  H6  UNL     1     -33.548  11.590  13.708  1.00  0.00     0.187 HD
BRANCH  11  14
HETATM   14  C11 UNL     1     -31.379  11.132  11.831  1.00  0.00     0.207 A
HETATM   15  N7  UNL     1     -30.202  10.647  12.243  1.00  0.00    -0.264 N
HETATM   16  N8  UNL     1     -29.926   9.606  11.478  1.00  0.00    -0.226 N
ATOM     17  H7  UNL     1     -29.627  11.013  13.002  1.00  0.00     0.190 HD
HETATM   18  N9  UNL     1     -30.889   9.428  10.607  1.00  0.00    -0.226 N
ATOM     19  H8  UNL     1     -29.089   9.027  11.555  1.00  0.00     0.210 HD
HETATM   20  N10 UNL     1     -31.792  10.361  10.812  1.00  0.00    -0.264 N
ATOM     21  H9  UNL     1     -30.930   8.697   9.896  1.00  0.00     0.210 HD
ATOM     22  H10 UNL     1     -32.659  10.478  10.287  1.00  0.00     0.190 HD
ENDBRANCH  11  14
ENDBRANCH   7  10
BRANCH   4  23
HETATM   23  N3  UNL     1     -30.359  11.302  17.334  1.00  0.00    -0.288 N
ATOM     24  H3  UNL     1     -30.825  10.717  18.028  1.00  0.00     0.188 HD
BRANCH  23  25
HETATM   25  N4  UNL     1     -29.029  11.059  16.996  1.00  0.00    -0.312 N
ATOM     26  H4  UNL     1     -28.301  11.663  17.378  1.00  0.00     0.182 HD
BRANCH  25  27
HETATM   27  C8  UNL     1     -28.653   9.963  16.109  1.00  0.00     0.304 C
BRANCH  27  28
HETATM   28  O1  UNL     1     -29.557   9.830  15.070  1.00  0.00    -0.381 OA
ATOM     29  H1  UNL     1     -30.046   9.020  15.143  1.00  0.00     0.211 HD
ENDBRANCH  27  28
ENDBRANCH  25  27
ENDBRANCH  23  25
ENDBRANCH   4  23
BRANCH   1  30
HETATM   30  N2  UNL     1     -32.668  16.062  15.686  1.00  0.00    -0.285 N
ATOM     31  H2  UNL     1     -32.731  16.459  14.749  1.00  0.00     0.188 HD
BRANCH  30  32
HETATM   32  N1  UNL     1     -33.158  16.823  16.748  1.00  0.00    -0.308 N
HETATM   33  C2  UNL     1     -34.393  16.759  17.030  1.00  0.00    -0.004 C
HETATM   34  C1  UNL     1     -35.295  15.898  16.252  1.00  0.00     0.064 C
HETATM   35  C3  UNL     1     -34.933  17.553  18.146  1.00  0.00     0.064 C
ATOM     36  H1  UNL     1     -32.534  17.422  17.288  1.00  0.00     0.186 HD
ENDBRANCH  30  32
ENDBRANCH   1  30
TORSDOF 8
ENDMDL