MODEL 4
REMARK VINA RESULT: -8.096306566      4.928      7.498
REMARK  7 active torsions:
REMARK  status: ('A' for Active; 'I' for Inactive)
REMARK    1  A    between atoms: C3_5  and  C4_6
REMARK    2  A    between atoms: C4_6  and  N2_7
REMARK    3  A    between atoms: C6_14  and  N4_15
REMARK    4  A    between atoms: C7_20  and  N6_21
REMARK    5  A    between atoms: N6_21  and  C8_23
REMARK    6  A    between atoms: C8_23  and  C9_24
REMARK    7  A    between atoms: C9_24  and  C10_25
ROOT
HETATM    1  C1  UNL     1     -28.024  14.217  12.814  1.00  0.00     0.161 C
HETATM    2  N1  UNL     1     -29.151  13.984  11.911  1.00  0.00    -0.301 N
HETATM    3  C2  UNL     1     -29.134  14.352  10.625  1.00  0.00     0.273 A
HETATM    4  O1  UNL     1     -28.087  14.816  10.136  1.00  0.00    -0.266 OA
HETATM    5  C3  UNL     1     -30.229  14.240   9.805  1.00  0.00     0.104 A
HETATM    6  N3  UNL     1     -31.336  13.735  10.303  1.00  0.00    -0.348 N
ATOM      7  H3  UNL     1     -32.150  13.634   9.697  1.00  0.00     0.166 HD
HETATM    8  C5  UNL     1     -31.428  13.342  11.609  1.00  0.00     0.122 A
HETATM    9  C6  UNL     1     -32.581  12.853  12.167  1.00  0.00     0.145 A
HETATM   10  N5  UNL     1     -32.626  12.546  13.455  1.00  0.00    -0.174 N
ATOM     11  H5  UNL     1     -33.502  12.196  13.845  1.00  0.00     0.186 HD
HETATM   12  C7  UNL     1     -31.540  12.679  14.289  1.00  0.00     0.685 A
HETATM   13  N11 UNL     1     -30.389  13.144  13.723  1.00  0.00    -0.174 N
ATOM     14  H11 UNL     1     -29.562  13.241  14.312  1.00  0.00     0.186 HD
HETATM   15  C11 UNL     1     -30.296  13.483  12.422  1.00  0.00     0.156 A
ENDROOT
BRANCH  12  16
HETATM   16  N6  UNL     1     -31.562  12.651  15.564  1.00  0.00    -0.205 N
ATOM     17  H6  UNL     1     -31.046  11.841  15.906  1.00  0.00     0.183 HD
BRANCH  16  18
HETATM   18  C8  UNL     1     -32.066  13.378  16.627  1.00  0.00     0.086 C
BRANCH  18  19
HETATM   19  C9  UNL     1     -31.874  14.852  16.540  1.00  0.00     0.124 C
BRANCH  19  20
HETATM   20  C10 UNL     1     -33.109  15.599  16.347  1.00  0.00     0.117 A
HETATM   21  N7  UNL     1     -33.498  16.845  16.622  1.00  0.00    -0.272 N
HETATM   22  N8  UNL     1     -34.754  16.959  16.307  1.00  0.00    -0.227 N
ATOM     23  H7  UNL     1     -32.910  17.581  17.012  1.00  0.00     0.190 HD
HETATM   24  N9  UNL     1     -35.247  15.839  15.825  1.00  0.00    -0.227 N
ATOM     25  H8  UNL     1     -35.294  17.817  16.420  1.00  0.00     0.210 HD
HETATM   26  N10 UNL     1     -34.233  14.945  15.844  1.00  0.00    -0.272 N
ATOM     27  H9  UNL     1     -36.201  15.678  15.502  1.00  0.00     0.210 HD
ATOM     28  H10 UNL     1     -34.282  13.971  15.545  1.00  0.00     0.190 HD
ENDBRANCH  19  20
ENDBRANCH  18  19
ENDBRANCH  16  18
ENDBRANCH  12  16
BRANCH   9  29
HETATM   29  N4  UNL     1     -33.598  12.630  11.360  1.00  0.00    -0.383 N
ATOM     30  H42 UNL     1     -33.760  11.718  10.933  1.00  0.00     0.157 HD
ATOM     31  H41 UNL     1     -34.192  13.425  11.122  1.00  0.00     0.157 HD
ENDBRANCH   9  29
BRANCH   5  32
HETATM   32  C4  UNL     1     -30.064  14.619   8.334  1.00  0.00     0.292 C
BRANCH  32  33
HETATM   33  N2  UNL     1     -30.454  16.030   8.228  1.00  0.00    -0.074 N
ATOM     34  H23 UNL     1     -30.901  16.391   9.071  1.00  0.00     0.274 HD
ATOM     35  H22 UNL     1     -29.660  16.670   8.224  1.00  0.00     0.274 HD
ATOM     36  H21 UNL     1     -31.038  16.103   7.395  1.00  0.00     0.274 HD
ENDBRANCH  32  33
ENDBRANCH   5  32
TORSDOF 7
ENDMDL