MODEL 4
REMARK VINA RESULT: -8.240987484      3.206      8.119
REMARK  6 active torsions:
REMARK  status: ('A' for Active; 'I' for Inactive)
REMARK    1  A    between atoms: N1_1  and  C1_4
REMARK    2  A    between atoms: C3_6  and  C4_7
REMARK    3  A    between atoms: C4_7  and  N2_8
REMARK       I    between atoms: N2_8  and  C5_9
REMARK    4  A    between atoms: C5_9  and  C6_11
REMARK    5  A    between atoms: C7_18  and  N6_19
REMARK    6  A    between atoms: C8_26  and  N9_27
ROOT
HETATM    1  C1  UNL     1     -26.789  13.077  10.640  1.00  0.00     0.116 A
HETATM    2  C2  UNL     1     -27.626  12.033  11.026  1.00  0.00     0.081 A
HETATM    3  C3  UNL     1     -28.959  12.036  10.702  1.00  0.00     0.081 A
HETATM    4  N8  UNL     1     -29.440  13.084   9.998  1.00  0.00    -0.189 N
ATOM      5  H8  UNL     1     -30.431  13.097   9.753  1.00  0.00     0.184 HD
HETATM    6  C8  UNL     1     -28.653  14.125   9.601  1.00  0.00     0.682 A
HETATM    7  N10 UNL     1     -27.355  14.081   9.936  1.00  0.00    -0.177 N
ATOM      8  H10 UNL     1     -26.760  14.855   9.642  1.00  0.00     0.185 HD
ENDROOT
BRANCH   3   9
HETATM    9  C4  UNL     1     -29.802  10.886  11.097  1.00  0.00     0.216 C
BRANCH   9  10
HETATM   10  N2  UNL     1     -30.597  10.967  12.213  1.00  0.00    -0.374 NA
HETATM   11  C5  UNL     1     -31.379  11.047  13.311  1.00  0.00     0.361 C
HETATM   12  O1  UNL     1     -32.654  11.136  13.292  1.00  0.00    -0.248 OA
BRANCH  11  13
HETATM   13  C6  UNL     1     -30.853  11.043  14.700  1.00  0.00     0.220 A
HETATM   14  N3  UNL     1     -31.539  11.636  15.682  1.00  0.00    -0.265 N
HETATM   15  N4  UNL     1     -31.059  11.584  16.938  1.00  0.00    -0.227 N
ATOM     16  H3  UNL     1     -32.413  12.121  15.482  1.00  0.00     0.190 HD
HETATM   17  N5  UNL     1     -29.925  10.955  17.186  1.00  0.00    -0.118 N
ATOM     18  H4  UNL     1     -31.572  12.030  17.699  1.00  0.00     0.209 HD
HETATM   19  C7  UNL     1     -29.249  10.366  16.208  1.00  0.00     0.693 A
ATOM     20  H5  UNL     1     -29.564  10.922  18.140  1.00  0.00     0.207 HD
HETATM   21  N7  UNL     1     -29.720  10.411  14.952  1.00  0.00    -0.168 N
ATOM     22  H7  UNL     1     -29.205   9.960  14.196  1.00  0.00     0.186 HD
BRANCH  19  23
HETATM   23  N6  UNL     1     -28.161   9.734  16.446  1.00  0.00    -0.233 N
ATOM     24  H62 UNL     1     -28.168   8.966  17.117  1.00  0.00     0.174 HD
ATOM     25  H61 UNL     1     -27.289   9.999  15.988  1.00  0.00     0.174 HD
ENDBRANCH  19  23
ENDBRANCH  11  13
ENDBRANCH   9  10
ENDBRANCH   3   9
BRANCH   1  26
HETATM   26  N1  UNL     1     -25.542  13.118  10.917  1.00  0.00    -0.385 N
ATOM     27  H12 UNL     1     -25.111  14.000  11.190  1.00  0.00     0.157 HD
ATOM     28  H11 UNL     1     -24.933  12.301  10.881  1.00  0.00     0.157 HD
ENDBRANCH   1  26
BRANCH   6  29
HETATM   29  N9  UNL     1     -29.171  15.224   8.877  1.00  0.00    -0.213 N
HETATM   30  C9  UNL     1     -30.602  15.398   8.762  1.00  0.00     0.167 C
HETATM   31  C10 UNL     1     -30.926  16.322   7.596  1.00  0.00     0.188 C
HETATM   32  O2  UNL     1     -29.985  16.069   6.592  1.00  0.00    -0.388 OA
HETATM   33  C11 UNL     1     -28.743  16.627   6.920  1.00  0.00     0.188 C
HETATM   34  C12 UNL     1     -28.239  16.138   8.244  1.00  0.00     0.167 C
ENDBRANCH   6  29
TORSDOF 6
ENDMDL