MODEL 1
REMARK VINA RESULT: -7.024380387      0.000      0.000
REMARK  7 active torsions:
REMARK  status: ('A' for Active; 'I' for Inactive)
REMARK    1  A    between atoms: N1_2  and  C2_4
REMARK    2  A    between atoms: C4_8  and  N3_9
REMARK    3  A    between atoms: N6_19  and  C9_20
REMARK    4  A    between atoms: C9_20  and  O1_21
REMARK    5  A    between atoms: O1_21  and  C10_22
REMARK    6  A    between atoms: C10_22  and  C11_23
REMARK    7  A    between atoms: C11_23  and  O2_24
ROOT
HETATM    1  C2  UNL     1     -30.951  14.189  17.609  1.00  0.00     0.694 A
HETATM    2  N2  UNL     1     -30.525  12.999  17.174  1.00  0.00    -0.171 N
ATOM      3  H2  UNL     1     -30.021  12.402  17.829  1.00  0.00     0.186 HD
HETATM    4  C3  UNL     1     -30.718  12.545  15.933  1.00  0.00     0.190 A
HETATM    5  C4  UNL     1     -30.259  11.311  15.532  1.00  0.00     0.149 A
HETATM    6  N4  UNL     1     -30.499  10.936  14.265  1.00  0.00    -0.322 N
ATOM      7  H4  UNL     1     -30.168  10.024  13.951  1.00  0.00     0.169 HD
HETATM    8  C6  UNL     1     -31.155  11.712  13.403  1.00  0.00     0.158 A
HETATM    9  C7  UNL     1     -31.616  12.955  13.812  1.00  0.00     0.176 A
HETATM   10  N5  UNL     1     -32.222  13.473  12.730  1.00  0.00    -0.334 N
ATOM     11  H5  UNL     1     -32.667  14.391  12.711  1.00  0.00     0.168 HD
HETATM   12  C8  UNL     1     -32.172  12.645  11.683  1.00  0.00     0.188 A
HETATM   13  N6  UNL     1     -31.502  11.552  12.123  1.00  0.00    -0.304 N
HETATM   14  N7  UNL     1     -31.397  13.370  15.074  1.00  0.00    -0.109 N
HETATM   15  C12 UNL     1     -31.858  14.578  15.432  1.00  0.00     0.700 A
HETATM   16  N8  UNL     1     -32.487  15.403  14.724  1.00  0.00    -0.233 N
ATOM     17  H81 UNL     1     -32.838  16.321  14.996  1.00  0.00     0.174 HD
ATOM     18  H82 UNL     1     -32.673  15.125  13.760  1.00  0.00     0.174 HD
HETATM   19  N9  UNL     1     -31.606  14.955  16.740  1.00  0.00    -0.022 N
ATOM     20  H9  UNL     1     -31.938  15.867  17.054  1.00  0.00     0.203 HD
ENDROOT
BRANCH  13  21
HETATM   21  C9  UNL     1     -31.234  10.407  11.272  1.00  0.00     0.301 C
BRANCH  21  22
HETATM   22  O1  UNL     1     -29.912  10.066  11.491  1.00  0.00    -0.369 OA
BRANCH  22  23
HETATM   23  C10 UNL     1     -28.994  10.644  10.648  1.00  0.00     0.196 C
BRANCH  23  24
HETATM   24  C11 UNL     1     -27.877  11.308  11.408  1.00  0.00     0.190 C
BRANCH  24  25
HETATM   25  O2  UNL     1     -27.884  10.759  12.710  1.00  0.00    -0.399 OA
ATOM     26  H2  UNL     1     -27.304  11.296  13.238  1.00  0.00     0.209 HD
ENDBRANCH  24  25
ENDBRANCH  23  24
ENDBRANCH  22  23
ENDBRANCH  21  22
ENDBRANCH  13  21
BRANCH   5  27
HETATM   27  N3  UNL     1     -29.636  10.539  16.299  1.00  0.00    -0.378 N
HETATM   28  C5  UNL     1     -28.302  10.070  16.302  1.00  0.00     0.148 C
ATOM     29  H3  UNL     1     -30.200  10.179  17.068  1.00  0.00     0.160 HD
ENDBRANCH   5  27
BRANCH   1  30
HETATM   30  N1  UNL     1     -30.729  14.575  18.843  1.00  0.00    -0.230 N
HETATM   31  C1  UNL     1     -31.265  15.863  19.227  1.00  0.00     0.165 C
ATOM     32  H1  UNL     1     -30.204  13.997  19.499  1.00  0.00     0.177 HD
ENDBRANCH   1  30
TORSDOF 7
ENDMDL