MODEL 5
REMARK VINA RESULT: -6.717546613      1.361      1.366
REMARK  9 active torsions:
REMARK  status: ('A' for Active; 'I' for Inactive)
REMARK    1  A    between atoms: N1_2  and  C2_5
REMARK    2  A    between atoms: C2_5  and  O1_6
REMARK    3  A    between atoms: C2_5  and  N2_8
REMARK    4  A    between atoms: N2_8  and  C3_10
REMARK    5  A    between atoms: C5_12  and  N3_13
REMARK    6  A    between atoms: N3_13  and  C6_15
REMARK    7  A    between atoms: C6_15  and  C7_16
REMARK    8  A    between atoms: C7_16  and  N4_17
REMARK    9  A    between atoms: C8_23  and  N6_24
ROOT
HETATM    1  C3  UNL     1     -29.913  13.298  15.660  1.00  0.00     0.140 A
HETATM    2  C4  UNL     1     -31.162  13.923  15.899  1.00  0.00     0.100 A
HETATM    3  C5  UNL     1     -32.285  13.413  15.224  1.00  0.00     0.135 A
HETATM    4  N5  UNL     1     -33.478  13.991  15.439  1.00  0.00    -0.176 N
ATOM      5  H5  UNL     1     -34.300  13.629  14.954  1.00  0.00     0.186 HD
HETATM    6  C8  UNL     1     -33.617  15.037  16.280  1.00  0.00     0.679 A
HETATM    7  N7  UNL     1     -32.542  15.510  16.916  1.00  0.00    -0.173 N
ATOM      8  H7  UNL     1     -32.657  16.300  17.550  1.00  0.00     0.186 HD
HETATM    9  C9  UNL     1     -31.311  14.986  16.753  1.00  0.00     0.178 A
HETATM   10  N8  UNL     1     -30.244  15.479  17.409  1.00  0.00    -0.067 N
HETATM   11  N9  UNL     1     -30.165  16.468  18.254  1.00  0.00    -0.273 N
ATOM     12  H9  UNL     1     -30.936  17.056  18.569  1.00  0.00     0.189 HD
HETATM   13  C10 UNL     1     -28.872  16.570  18.634  1.00  0.00     0.216 A
HETATM   14  N10 UNL     1     -28.201  15.606  17.982  1.00  0.00    -0.184 N
ATOM     15  H10 UNL     1     -27.200  15.430  18.064  1.00  0.00     0.185 HD
HETATM   16  C11 UNL     1     -29.062  14.900  17.195  1.00  0.00     0.709 A
HETATM   17  N11 UNL     1     -28.889  13.842  16.352  1.00  0.00    -0.170 N
HETATM   18  C12 UNL     1     -27.567  13.311  16.219  1.00  0.00     0.177 C
ENDROOT
BRANCH   1  19
HETATM   19  N2  UNL     1     -29.890  12.351  14.860  1.00  0.00    -0.326 N
ATOM     20  H2  UNL     1     -30.513  12.545  14.077  1.00  0.00     0.165 HD
BRANCH  19  21
HETATM   21  C2  UNL     1     -29.295  11.121  14.688  1.00  0.00     0.427 C
BRANCH  21  22
HETATM   22  N1  UNL     1     -29.511  10.219  15.834  1.00  0.00    -0.035 N
HETATM   23  C1  UNL     1     -28.265   9.859  16.465  1.00  0.00     0.272 C
ATOM     24  H12 UNL     1     -30.045   9.394  15.563  1.00  0.00     0.281 HD
ATOM     25  H11 UNL     1     -30.167  10.619  16.504  1.00  0.00     0.281 HD
ENDBRANCH  21  22
BRANCH  21  26
HETATM   26  O1  UNL     1     -29.827  10.375  13.585  1.00  0.00    -0.354 OA
ATOM     27  H1  UNL     1     -30.765  10.481  13.689  1.00  0.00     0.214 HD
ENDBRANCH  21  26
ENDBRANCH  19  21
ENDBRANCH   1  19
BRANCH   3  28
HETATM   28  N3  UNL     1     -32.070  12.432  14.464  1.00  0.00    -0.373 N
ATOM     29  H3  UNL     1     -31.265  11.840  14.667  1.00  0.00     0.161 HD
BRANCH  28  30
HETATM   30  C6  UNL     1     -32.870  12.094  13.346  1.00  0.00     0.148 C
BRANCH  30  31
HETATM   31  C7  UNL     1     -32.282  12.514  12.018  1.00  0.00     0.249 C
BRANCH  31  32
HETATM   32  N4  UNL     1     -33.368  12.826  11.120  1.00  0.00    -0.078 N
ATOM     33  H43 UNL     1     -34.260  12.928  11.603  1.00  0.00     0.274 HD
ATOM     34  H42 UNL     1     -33.307  13.772  10.742  1.00  0.00     0.274 HD
ATOM     35  H41 UNL     1     -33.396  12.113  10.390  1.00  0.00     0.274 HD
ENDBRANCH  31  32
ENDBRANCH  30  31
ENDBRANCH  28  30
ENDBRANCH   3  28
BRANCH   6  36
HETATM   36  N6  UNL     1     -34.797  15.550  16.444  1.00  0.00    -0.234 N
ATOM     37  H62 UNL     1     -35.569  15.018  16.849  1.00  0.00     0.174 HD
ATOM     38  H61 UNL     1     -34.955  16.516  16.157  1.00  0.00     0.174 HD
ENDBRANCH   6  36
TORSDOF 9
ENDMDL