MODEL 3
REMARK VINA RESULT: -8.138437459      6.073      9.101
REMARK  6 active torsions:
REMARK  status: ('A' for Active; 'I' for Inactive)
REMARK    1  A    between atoms: C2_2  and  N1_3
REMARK    2  A    between atoms: C2_2  and  C3_7
REMARK       I    between atoms: C3_7  and  N2_9
REMARK    3  A    between atoms: N2_9  and  N3_11
REMARK    4  A    between atoms: C4_13  and  C5_14
REMARK    5  A    between atoms: C7_18  and  N5_19
REMARK    6  A    between atoms: C9_25  and  N8_26
REMARK       I    between atoms: N8_26  and  C10_28
ROOT
HETATM    1  C5  UNL     1     -29.105  14.658   9.580  1.00  0.00     0.013 A
HETATM    2  C6  UNL     1     -28.604  14.517  10.848  1.00  0.00     0.120 A
HETATM    3  N4  UNL     1     -29.288  13.847  11.787  1.00  0.00    -0.200 N
ATOM      4  H4  UNL     1     -28.896  13.753  12.725  1.00  0.00     0.183 HD
HETATM    5  C7  UNL     1     -30.472  13.300  11.512  1.00  0.00     0.704 A
HETATM    6  N11 UNL     1     -30.972  13.433  10.273  1.00  0.00    -0.200 N
ATOM      7  H11 UNL     1     -31.877  13.014  10.063  1.00  0.00     0.183 HD
HETATM    8  C11 UNL     1     -30.327  14.094   9.299  1.00  0.00     0.120 A
ENDROOT
BRANCH   5   9
HETATM    9  N5  UNL     1     -31.206  12.582  12.518  1.00  0.00     0.029 N
HETATM   10  C8  UNL     1     -32.226  13.085  13.251  1.00  0.00     0.242 A
HETATM   11  N6  UNL     1     -32.645  12.118  14.072  1.00  0.00    -0.280 N
HETATM   12  N7  UNL     1     -31.886  11.044  13.836  1.00  0.00    -0.130 N
ATOM     13  H6  UNL     1     -33.402  12.186  14.752  1.00  0.00     0.188 HD
HETATM   14  C9  UNL     1     -30.996  11.317  12.881  1.00  0.00     0.721 A
ATOM     15  H7  UNL     1     -31.973  10.148  14.316  1.00  0.00     0.205 HD
BRANCH  14  16
HETATM   16  N8  UNL     1     -30.115  10.531  12.404  1.00  0.00    -0.161 N
HETATM   17  C10 UNL     1     -30.077  10.046  11.090  1.00  0.00     0.200 C
HETATM   18  N9  UNL     1     -31.086   9.371  10.651  1.00  0.00    -0.373 N
HETATM   19  N10 UNL     1     -28.986  10.250  10.197  1.00  0.00    -0.063 NA
ATOM     20  H92 UNL     1     -31.867   9.225  11.291  1.00  0.00     0.158 HD
ATOM     21  H91 UNL     1     -31.058   9.018   9.695  1.00  0.00     0.158 HD
ATOM     22  H8  UNL     1     -29.372  10.228  13.033  1.00  0.00     0.187 HD
ENDBRANCH  14  16
ENDBRANCH   5   9
BRANCH   1  23
HETATM   23  C4  UNL     1     -28.377  15.378   8.563  1.00  0.00     0.121 C
HETATM   24  N3  UNL     1     -28.845  16.492   8.108  1.00  0.00    -0.308 N
ATOM     25  H3  UNL     1     -29.728  16.825   8.493  1.00  0.00     0.186 HD
BRANCH  24  26
HETATM   26  N2  UNL     1     -28.239  17.266   7.139  1.00  0.00    -0.269 N
HETATM   27  C3  UNL     1     -28.569  18.628   6.938  1.00  0.00     0.266 C
HETATM   28  O1  UNL     1     -29.443  19.144   7.672  1.00  0.00    -0.269 OA
ATOM     29  H2  UNL     1     -27.528  16.841   6.544  1.00  0.00     0.190 HD
BRANCH  27  30
HETATM   30  C2  UNL     1     -27.890  19.421   5.881  1.00  0.00     0.272 C
HETATM   31  C1  UNL     1     -28.696  20.620   5.449  1.00  0.00     0.050 C
BRANCH  30  32
HETATM   32  N1  UNL     1     -26.564  19.796   6.341  1.00  0.00    -0.067 N
ATOM     33  H13 UNL     1     -26.501  20.800   6.513  1.00  0.00     0.275 HD
ATOM     34  H12 UNL     1     -26.391  19.459   7.288  1.00  0.00     0.275 HD
ATOM     35  H11 UNL     1     -25.836  19.485   5.698  1.00  0.00     0.275 HD
ENDBRANCH  30  32
ENDBRANCH  27  30
ENDBRANCH  24  26
ENDBRANCH   1  23
TORSDOF 6
ENDMDL