MODEL 3
REMARK VINA RESULT: -8.221077526      2.711      5.029
REMARK  5 active torsions:
REMARK  status: ('A' for Active; 'I' for Inactive)
REMARK    1  A    between atoms: N1_1  and  C1_4
REMARK    2  A    between atoms: C2_7  and  N3_8
REMARK    3  A    between atoms: N5_15  and  C5_16
REMARK    4  A    between atoms: C5_16  and  C6_17
REMARK    5  A    between atoms: C6_17  and  N6_18
ROOT
HETATM    1  C1  UNL     1     -33.224  15.757  16.015  1.00  0.00     0.679 A
HETATM    2  N2  UNL     1     -32.954  15.864  17.324  1.00  0.00    -0.175 N
ATOM      3  H2  UNL     1     -33.678  16.207  17.954  1.00  0.00     0.186 HD
HETATM    4  C2  UNL     1     -31.755  15.532  17.826  1.00  0.00     0.145 A
HETATM    5  C3  UNL     1     -30.746  15.064  17.019  1.00  0.00     0.123 A
HETATM    6  N4  UNL     1     -29.487  14.663  17.223  1.00  0.00    -0.346 N
ATOM      7  H4  UNL     1     -29.004  14.636  18.122  1.00  0.00     0.167 HD
HETATM    8  C4  UNL     1     -28.970  14.303  16.040  1.00  0.00     0.185 A
HETATM    9  N5  UNL     1     -29.914  14.478  15.067  1.00  0.00    -0.325 N
HETATM   10  C11 UNL     1     -31.021  14.948  15.652  1.00  0.00     0.155 A
HETATM   11  N12 UNL     1     -32.244  15.299  15.211  1.00  0.00    -0.174 N
ATOM     12  H12 UNL     1     -32.440  15.213  14.214  1.00  0.00     0.186 HD
ENDROOT
BRANCH   9  13
HETATM   13  C5  UNL     1     -29.723  14.203  13.654  1.00  0.00     0.151 C
BRANCH  13  14
HETATM   14  C6  UNL     1     -29.035  12.872  13.535  1.00  0.00     0.145 C
BRANCH  14  15
HETATM   15  N6  UNL     1     -29.902  11.776  13.175  1.00  0.00    -0.359 N
HETATM   16  C7  UNL     1     -29.927  11.246  11.814  1.00  0.00     0.153 C
HETATM   17  C8  UNL     1     -31.301  10.869  11.370  1.00  0.00     0.221 C
HETATM   18  O1  UNL     1     -32.262  10.963  12.403  1.00  0.00    -0.277 OA
HETATM   19  N7  UNL     1     -31.981  10.803  13.715  1.00  0.00    -0.247 N
HETATM   20  C9  UNL     1     -30.791  11.210  14.121  1.00  0.00     0.171 C
ATOM     21  H7  UNL     1     -32.654  10.388  14.360  1.00  0.00     0.196 HD
HETATM   22  C10 UNL     1     -30.428  11.090  15.516  1.00  0.00     0.183 A
HETATM   23  N8  UNL     1     -31.226  11.337  16.582  1.00  0.00    -0.266 N
HETATM   24  N11 UNL     1     -29.271  10.702  16.042  1.00  0.00    -0.266 N
HETATM   25  N9  UNL     1     -30.525  11.090  17.678  1.00  0.00    -0.226 N
ATOM     26  H8  UNL     1     -32.194  11.656  16.548  1.00  0.00     0.190 HD
HETATM   27  N10 UNL     1     -29.308  10.694  17.369  1.00  0.00    -0.226 N
ATOM     28  H9  UNL     1     -30.879  11.193  18.629  1.00  0.00     0.210 HD
ATOM     29  H10 UNL     1     -28.558  10.436  18.010  1.00  0.00     0.210 HD
ATOM     30  H11 UNL     1     -28.452  10.442  15.492  1.00  0.00     0.190 HD
ENDBRANCH  14  15
ENDBRANCH  13  14
ENDBRANCH   9  13
BRANCH   4  31
HETATM   31  N3  UNL     1     -31.501  15.643  19.110  1.00  0.00    -0.383 N
ATOM     32  H32 UNL     1     -31.968  14.992  19.741  1.00  0.00     0.157 HD
ATOM     33  H31 UNL     1     -30.860  16.355  19.462  1.00  0.00     0.157 HD
ENDBRANCH   4  31
BRANCH   1  34
HETATM   34  N1  UNL     1     -34.399  16.086  15.537  1.00  0.00    -0.234 N
ATOM     35  H12 UNL     1     -35.161  16.368  16.153  1.00  0.00     0.174 HD
ATOM     36  H11 UNL     1     -34.583  16.067  14.534  1.00  0.00     0.174 HD
ENDBRANCH   1  34
TORSDOF 5
ENDMDL