MODEL 2
REMARK VINA RESULT: -7.918359710      1.689      2.833
REMARK  6 active torsions:
REMARK  status: ('A' for Active; 'I' for Inactive)
REMARK    1  A    between atoms: N4_8  and  N5_9
REMARK       I    between atoms: N5_9  and  C4_11
REMARK    2  A    between atoms: C4_11  and  C5_13
REMARK    3  A    between atoms: C5_13  and  C6_15
REMARK    4  A    between atoms: C6_15  and  C7_16
REMARK    5  A    between atoms: C9_20  and  N7_21
REMARK    6  A    between atoms: C10_26  and  N9_27
ROOT
HETATM    1  C1  UNL     1     -26.472  15.614   9.095  1.00  0.00     0.163 C
HETATM    2  N1  UNL     1     -27.818  15.075   9.096  1.00  0.00    -0.277 N
HETATM    3  C2  UNL     1     -28.876  15.468   8.370  1.00  0.00     0.210 A
HETATM    4  C3  UNL     1     -28.848  16.545   7.409  1.00  0.00     0.138 C
HETATM    5  N2  UNL     1     -28.822  17.388   6.623  1.00  0.00    -0.188 NA
HETATM    6  N3  UNL     1     -29.896  14.695   8.691  1.00  0.00    -0.250 N
ATOM      7  H3  UNL     1     -30.834  14.763   8.296  1.00  0.00     0.191 HD
HETATM    8  N4  UNL     1     -29.512  13.815   9.609  1.00  0.00    -0.136 N
HETATM    9  C11 UNL     1     -28.216  14.042   9.869  1.00  0.00     0.365 A
HETATM   10  O3  UNL     1     -27.435  13.437  10.680  1.00  0.00    -0.243 OA
ENDROOT
BRANCH   8  11
HETATM   11  N5  UNL     1     -30.294  12.816  10.214  1.00  0.00    -0.237 N
HETATM   12  C4  UNL     1     -31.609  13.187  10.603  1.00  0.00     0.307 C
HETATM   13  O1  UNL     1     -32.027  14.378  10.417  1.00  0.00    -0.263 OA
ATOM     14  H5  UNL     1     -29.935  11.874  10.366  1.00  0.00     0.192 HD
BRANCH  12  15
HETATM   15  C5  UNL     1     -32.466  12.153  11.223  1.00  0.00     0.222 C
HETATM   16  O2  UNL     1     -32.678  11.113  10.578  1.00  0.00    -0.287 OA
BRANCH  15  17
HETATM   17  C6  UNL     1     -32.959  12.507  12.558  1.00  0.00     0.133 C
BRANCH  17  18
HETATM   18  C7  UNL     1     -32.225  12.071  13.725  1.00  0.00     0.009 A
HETATM   19  C8  UNL     1     -31.449  10.946  13.858  1.00  0.00     0.117 A
HETATM   20  N6  UNL     1     -30.857  10.653  15.051  1.00  0.00    -0.202 N
HETATM   21  C9  UNL     1     -30.985  11.419  16.148  1.00  0.00     0.677 A
ATOM     22  H6  UNL     1     -30.288   9.809  15.114  1.00  0.00     0.183 HD
HETATM   23  N8  UNL     1     -31.741  12.527  16.036  1.00  0.00    -0.177 N
HETATM   24  C10 UNL     1     -32.333  12.849  14.899  1.00  0.00     0.122 A
ATOM     25  H8  UNL     1     -31.861  13.132  16.848  1.00  0.00     0.185 HD
BRANCH  21  26
HETATM   26  N7  UNL     1     -30.433  11.114  17.299  1.00  0.00    -0.234 N
ATOM     27  H72 UNL     1     -29.434  10.916  17.350  1.00  0.00     0.174 HD
ATOM     28  H71 UNL     1     -30.957  11.082  18.174  1.00  0.00     0.174 HD
ENDBRANCH  21  26
BRANCH  24  29
HETATM   29  N9  UNL     1     -33.037  13.931  14.886  1.00  0.00    -0.385 N
ATOM     30  H92 UNL     1     -33.793  13.987  14.204  1.00  0.00     0.157 HD
ATOM     31  H91 UNL     1     -32.821  14.681  15.542  1.00  0.00     0.157 HD
ENDBRANCH  24  29
ENDBRANCH  17  18
ENDBRANCH  15  17
ENDBRANCH  12  15
ENDBRANCH   8  11
TORSDOF 6
ENDMDL