MODEL 1
REMARK VINA RESULT: -8.043295238      0.000      0.000
REMARK  7 active torsions:
REMARK  status: ('A' for Active; 'I' for Inactive)
REMARK    1  A    between atoms: C2_2  and  N1_4
REMARK    2  A    between atoms: N1_4  and  N2_6
REMARK       I    between atoms: N2_6  and  C4_8
REMARK       I    between atoms: C4_8  and  N3_9
REMARK       I    between atoms: C4_8  and  N8_26
REMARK    3  A    between atoms: N3_9  and  N4_11
REMARK    4  A    between atoms: N4_11  and  C5_13
REMARK    5  A    between atoms: C6_18  and  S1_19
REMARK    6  A    between atoms: S1_19  and  N7_20
REMARK    7  A    between atoms: N8_26  and  N9_28
ROOT
HETATM    1  N2  UNL     1     -32.780  12.850  12.985  1.00  0.00    -0.129 N
ATOM      2  H2  UNL     1     -33.135  13.622  12.421  1.00  0.00     0.205 HD
HETATM    3  C4  UNL     1     -32.161  11.898  12.373  1.00  0.00     0.730 C
HETATM    4  N3  UNL     1     -31.656  10.811  13.136  1.00  0.00    -0.126 N
ATOM      5  H3  UNL     1     -32.266  10.017  13.332  1.00  0.00     0.206 HD
HETATM    6  N8  UNL     1     -32.022  12.003  10.963  1.00  0.00    -0.069 N
ATOM      7  H8  UNL     1     -32.398  11.254  10.382  1.00  0.00     0.212 HD
ENDROOT
BRANCH   4   8
HETATM    8  N4  UNL     1     -30.336  10.798  13.629  1.00  0.00    -0.249 N
ATOM      9  H4  UNL     1     -29.542  10.793  12.988  1.00  0.00     0.191 HD
BRANCH   8  10
HETATM   10  C5  UNL     1     -30.148  10.793  14.910  1.00  0.00     0.261 A
HETATM   11  N5  UNL     1     -31.067  10.863  15.895  1.00  0.00    -0.261 N
HETATM   12  N6  UNL     1     -30.390  10.822  17.031  1.00  0.00    -0.265 N
ATOM     13  H5  UNL     1     -32.079  10.932  15.786  1.00  0.00     0.190 HD
HETATM   14  C6  UNL     1     -29.069  10.729  16.763  1.00  0.00     0.284 A
ATOM     15  H6  UNL     1     -30.802  10.856  17.963  1.00  0.00     0.190 HD
HETATM   16  O3  UNL     1     -28.961  10.714  15.456  1.00  0.00    -0.247 OA
BRANCH  14  17
HETATM   17  S1  UNL     1     -27.734  10.641  17.889  1.00  0.00     0.297 S
HETATM   18  O1  UNL     1     -28.233  10.079  19.204  1.00  0.00    -0.197 OA
HETATM   19  O2  UNL     1     -27.172  12.006  18.078  1.00  0.00    -0.197 OA
BRANCH  17  20
HETATM   20  N7  UNL     1     -26.577   9.544  17.240  1.00  0.00    -0.321 N
ATOM     21  H72 UNL     1     -26.397   9.394  16.248  1.00  0.00     0.169 HD
ATOM     22  H71 UNL     1     -26.117   9.083  18.024  1.00  0.00     0.169 HD
ENDBRANCH  17  20
ENDBRANCH  14  17
ENDBRANCH   8  10
ENDBRANCH   4   8
BRANCH   1  23
HETATM   23  N1  UNL     1     -33.001  12.902  14.348  1.00  0.00    -0.295 N
ATOM     24  H1  UNL     1     -33.485  12.121  14.790  1.00  0.00     0.186 HD
BRANCH  23  25
HETATM   25  C2  UNL     1     -32.627  13.884  15.086  1.00  0.00    -0.004 C
HETATM   26  C1  UNL     1     -31.312  14.507  14.810  1.00  0.00     0.064 C
HETATM   27  C3  UNL     1     -33.488  14.378  16.181  1.00  0.00     0.064 C
ENDBRANCH  23  25
ENDBRANCH   1  23
BRANCH   6  28
HETATM   28  N9  UNL     1     -31.397  13.077  10.334  1.00  0.00    -0.024 N
HETATM   29  O4  UNL     1     -30.203  12.989  10.007  1.00  0.00    -0.516 OA
HETATM   30  O5  UNL     1     -32.101  14.215  10.082  1.00  0.00    -0.516 OA
ENDBRANCH   6  28
TORSDOF 7
ENDMDL