MODEL 4
REMARK VINA RESULT: -8.348987205      2.606      6.106
REMARK  8 active torsions:
REMARK  status: ('A' for Active; 'I' for Inactive)
REMARK    1  A    between atoms: N1_1  and  C1_4
REMARK    2  A    between atoms: C2_7  and  S1_8
REMARK    3  A    between atoms: S1_8  and  C3_9
REMARK    4  A    between atoms: N6_16  and  O1_17
REMARK    5  A    between atoms: C4_21  and  N8_22
REMARK    6  A    between atoms: N8_22  and  C5_24
REMARK    7  A    between atoms: C8_27  and  C9_28
REMARK    8  A    between atoms: C9_28  and  N9_29
ROOT
HETATM    1  C1  UNL     1     -32.811  13.883  15.793  1.00  0.00     0.692 A
HETATM    2  N2  UNL     1     -32.592  13.861  14.468  1.00  0.00    -0.169 N
ATOM      3  H2  UNL     1     -33.059  14.537  13.862  1.00  0.00     0.186 HD
HETATM    4  C2  UNL     1     -31.754  12.944  13.938  1.00  0.00     0.182 A
HETATM    5  N7  UNL     1     -31.157  12.076  14.742  1.00  0.00    -0.169 N
ATOM      6  H7  UNL     1     -30.526  11.390  14.327  1.00  0.00     0.186 HD
HETATM    7  C4  UNL     1     -31.340  12.047  16.102  1.00  0.00     0.695 A
HETATM    8  N10 UNL     1     -32.177  12.972  16.581  1.00  0.00    -0.023 N
ATOM      9  H10 UNL     1     -32.350  12.997  17.586  1.00  0.00     0.203 HD
ENDROOT
BRANCH   7  10
HETATM   10  N8  UNL     1     -30.734  11.197  16.752  1.00  0.00    -0.221 N
ATOM     11  H8  UNL     1     -31.418  10.657  17.282  1.00  0.00     0.178 HD
BRANCH  10  12
HETATM   12  C5  UNL     1     -29.486  10.700  17.035  1.00  0.00     0.100 C
HETATM   13  C6  UNL     1     -28.734  10.080  15.878  1.00  0.00     0.026 C
HETATM   14  C7  UNL     1     -27.359   9.849  16.443  1.00  0.00     0.008 C
HETATM   15  C8  UNL     1     -27.235  10.659  17.685  1.00  0.00     0.013 C
HETATM   16  C10 UNL     1     -28.454  11.579  17.657  1.00  0.00     0.032 C
BRANCH  15  17
HETATM   17  C9  UNL     1     -27.273   9.867  18.954  1.00  0.00     0.234 C
BRANCH  17  18
HETATM   18  N9  UNL     1     -25.970   9.338  19.298  1.00  0.00    -0.079 N
ATOM     19  H93 UNL     1     -25.688   9.626  20.235  1.00  0.00     0.274 HD
ATOM     20  H92 UNL     1     -26.007   8.329  19.444  1.00  0.00     0.274 HD
ATOM     21  H91 UNL     1     -25.264   9.586  18.605  1.00  0.00     0.274 HD
ENDBRANCH  17  18
ENDBRANCH  15  17
ENDBRANCH  10  12
ENDBRANCH   7  10
BRANCH   4  22
HETATM   22  S1  UNL     1     -31.518  12.982  12.167  1.00  0.00    -0.011 SA
BRANCH  22  23
HETATM   23  C3  UNL     1     -31.156  11.334  11.564  1.00  0.00     0.214 A
HETATM   24  N3  UNL     1     -31.894  10.554  10.766  1.00  0.00    -0.261 N
HETATM   25  N4  UNL     1     -31.218   9.434  10.599  1.00  0.00    -0.224 N
ATOM     26  H3  UNL     1     -32.803  10.781  10.365  1.00  0.00     0.191 HD
HETATM   27  N5  UNL     1     -30.081   9.461  11.252  1.00  0.00    -0.199 N
ATOM     28  H4  UNL     1     -31.538   8.647  10.034  1.00  0.00     0.210 HD
HETATM   29  N6  UNL     1     -30.051  10.650  11.852  1.00  0.00    -0.122 N
ATOM     30  H5  UNL     1     -29.372   8.728  11.293  1.00  0.00     0.212 HD
BRANCH  29  31
HETATM   31  O1  UNL     1     -29.000  11.067  12.648  1.00  0.00    -0.265 OA
ATOM     32  H1  UNL     1     -28.108  11.239  12.371  1.00  0.00     0.247 HD
ENDBRANCH  29  31
ENDBRANCH  22  23
ENDBRANCH   4  22
BRANCH   1  33
HETATM   33  N1  UNL     1     -33.613  14.758  16.301  1.00  0.00    -0.234 N
ATOM     34  H12 UNL     1     -33.375  15.255  17.158  1.00  0.00     0.174 HD
ATOM     35  H11 UNL     1     -34.501  14.961  15.842  1.00  0.00     0.174 HD
ENDBRANCH   1  33
TORSDOF 8
ENDMDL