MODEL 3
REMARK VINA RESULT: -4.706843610      3.046      4.793
REMARK  5 active torsions:
REMARK  status: ('A' for Active; 'I' for Inactive)
REMARK    1  A    between atoms: C2_2  and  C3_3
REMARK    2  A    between atoms: C3_3  and  C4_4
REMARK    3  A    between atoms: C4_4  and  O1_5
REMARK    4  A    between atoms: C4_4  and  C5_7
REMARK    5  A    between atoms: C8_11  and  O2_12
ROOT
HETATM    1  C5  UNL     1      14.134   3.409  -2.005  1.00  0.00     0.106 C
HETATM    2  C6  UNL     1      14.270   2.142  -2.755  1.00  0.00     0.291 C
HETATM    3  N1  UNL     1      13.211   1.909  -3.627  1.00  0.00     0.109 N
HETATM    4  C7  UNL     1      13.117   2.630  -4.850  1.00  0.00     0.308 A
HETATM    5  C8  UNL     1      11.766   3.149  -4.405  1.00  0.00     0.190 A
HETATM    6  C9  UNL     1      11.961   2.331  -3.154  1.00  0.00     0.315 A
HETATM    7  S1  UNL     1      12.312   3.438  -1.750  1.00  0.00    -0.122 SA
ENDROOT
BRANCH   1   8
HETATM    8  C4  UNL     1      14.748   3.391  -0.627  1.00  0.00     0.133 C
BRANCH   8   9
HETATM    9  C3  UNL     1      13.934   4.321   0.238  1.00  0.00     0.032 C
BRANCH   9  10
HETATM   10  C2  UNL     1      14.590   5.654   0.447  1.00  0.00    -0.002 C
HETATM   11  C1  UNL     1      13.794   6.702  -0.290  1.00  0.00     0.005 C
ENDBRANCH   9  10
ENDBRANCH   8   9
BRANCH   8  12
HETATM   12  O1  UNL     1      16.089   3.664  -0.652  1.00  0.00    -0.394 OA
ATOM     13  H1  UNL     1      16.422   4.084   0.133  1.00  0.00     0.210 HD
ENDBRANCH   8  12
ENDBRANCH   1   8
BRANCH   5  14
HETATM   14  O2  UNL     1      10.687   2.666  -5.127  1.00  0.00    -0.391 OA
ATOM     15  H2  UNL     1      10.119   2.072  -4.649  1.00  0.00     0.210 HD
ENDBRANCH   5  14
TORSDOF 5
ENDMDL