MODEL 1
REMARK VINA RESULT: -5.513889992      0.000      0.000
REMARK  4 active torsions:
REMARK  status: ('A' for Active; 'I' for Inactive)
REMARK    1  A    between atoms: O1_1  and  C1_3
REMARK    2  A    between atoms: C1_3  and  C2_4
REMARK    3  A    between atoms: C5_10  and  C6_11
REMARK    4  A    between atoms: C6_11  and  N2_12
ROOT
HETATM    1  C2  UNL     1      12.576   6.545  -0.202  1.00  0.00     0.035 C
HETATM    2  C3  UNL     1      14.050   6.752  -0.042  1.00  0.00     0.239 C
HETATM    3  N1  UNL     1      14.734   5.665   0.591  1.00  0.00    -0.074 N
ATOM      4  H11 UNL     1      14.378   5.500   1.532  1.00  0.00     0.277 HD
ATOM      5  H12 UNL     1      15.694   5.917   0.826  1.00  0.00     0.277 HD
HETATM    6  C4  UNL     1      14.684   4.449  -0.218  1.00  0.00     0.238 C
HETATM    7  C5  UNL     1      13.428   4.352  -1.012  1.00  0.00     0.030 C
HETATM    8  C10 UNL     1      12.318   5.047  -0.227  1.00  0.00     0.016 C
ENDROOT
BRANCH   7   9
HETATM    9  C6  UNL     1      12.975   2.956  -1.279  1.00  0.00     0.135 C
BRANCH   9  10
HETATM   10  N2  UNL     1      13.388   2.444  -2.557  1.00  0.00    -0.351 N
HETATM   11  C7  UNL     1      14.576   1.854  -2.775  1.00  0.00     0.108 A
HETATM   12  C8  UNL     1      14.588   1.507  -4.110  1.00  0.00     0.106 A
HETATM   13  N3  UNL     1      13.411   1.896  -4.661  1.00  0.00    -0.361 N
HETATM   14  C9  UNL     1      12.677   2.474  -3.693  1.00  0.00     0.182 A
ATOM     15  H3  UNL     1      13.132   1.773  -5.634  1.00  0.00     0.166 HD
ENDBRANCH   9  10
ENDBRANCH   7   9
BRANCH   1  16
HETATM   16  C1  UNL     1      11.878   7.093   1.026  1.00  0.00     0.170 C
BRANCH  16  17
HETATM   17  O1  UNL     1      12.071   6.202   2.097  1.00  0.00    -0.400 OA
ATOM     18  H1  UNL     1      11.363   6.312   2.721  1.00  0.00     0.209 HD
ENDBRANCH  16  17
ENDBRANCH   1  16
TORSDOF 4
ENDMDL