MODEL 5
REMARK VINA RESULT: -4.484278804      5.243      6.507
REMARK  5 active torsions:
REMARK  status: ('A' for Active; 'I' for Inactive)
REMARK    1  A    between atoms: C2_2  and  C3_3
REMARK    2  A    between atoms: C3_3  and  O1_4
REMARK    3  A    between atoms: O1_4  and  C4_5
REMARK    4  A    between atoms: C7_9  and  O2_10
REMARK    5  A    between atoms: C8_12  and  O3_13
ROOT
HETATM    1  C4  UNL     1      13.427   3.073  -1.174  1.00  0.00     0.214 C
HETATM    2  S1  UNL     1      14.386   3.668   0.278  1.00  0.00    -0.135 SA
HETATM    3  C5  UNL     1      14.464   5.491   0.177  1.00  0.00     0.079 C
HETATM    4  C6  UNL     1      13.286   5.969  -0.655  1.00  0.00     0.045 C
HETATM    5  C7  UNL     1      12.085   5.071  -0.444  1.00  0.00     0.150 C
HETATM    6  C8  UNL     1      12.182   3.873  -1.356  1.00  0.00     0.185 C
ENDROOT
BRANCH   1   7
HETATM    7  O1  UNL     1      14.226   3.259  -2.295  1.00  0.00    -0.369 OA
BRANCH   7   8
HETATM    8  C3  UNL     1      14.257   2.114  -3.042  1.00  0.00     0.196 C
BRANCH   8   9
HETATM    9  C2  UNL     1      13.664   2.339  -4.374  1.00  0.00    -0.011 C
HETATM   10  C1  UNL     1      12.389   2.034  -4.570  1.00  0.00     0.009 C
ENDBRANCH   8   9
ENDBRANCH   7   8
ENDBRANCH   1   7
BRANCH   6  11
HETATM   11  O3  UNL     1      11.037   3.052  -1.188  1.00  0.00    -0.390 OA
ATOM     12  H3  UNL     1      11.133   2.502  -0.419  1.00  0.00     0.210 HD
ENDBRANCH   6  11
BRANCH   5  13
HETATM   13  O2  UNL     1      10.952   5.803  -0.866  1.00  0.00    -0.393 OA
ATOM     14  H2  UNL     1      11.114   6.711  -0.639  1.00  0.00     0.210 HD
ENDBRANCH   5  13
TORSDOF 5
ENDMDL