MODEL 5
REMARK VINA RESULT: -4.311117359      5.801      7.378
REMARK  3 active torsions:
REMARK  status: ('A' for Active; 'I' for Inactive)
REMARK    1  A    between atoms: C2_2  and  C3_3
REMARK    2  A    between atoms: C3_3  and  C4_4
REMARK    3  A    between atoms: C4_4  and  N1_5
ROOT
HETATM    1  N1  UNL     1      12.638   6.643   2.051  1.00  0.00    -0.217 NA
HETATM    2  C5  UNL     1      12.198   7.466   0.980  1.00  0.00     0.148 C
HETATM    3  C6  UNL     1      12.487   6.793  -0.317  1.00  0.00     0.171 C
HETATM    4  N2  UNL     1      13.932   6.531  -0.321  1.00  0.00    -0.128 NA
HETATM    5  N3  UNL     1      14.175   5.586   0.630  1.00  0.00    -0.132 NA
HETATM    6  C7  UNL     1      14.266   4.286  -0.035  1.00  0.00     0.146 C
HETATM    7  C8  UNL     1      13.094   4.029  -0.944  1.00  0.00     0.093 C
HETATM    8  S1  UNL     1      11.736   5.117  -0.361  1.00  0.00    -0.144 SA
HETATM    9  N4  UNL     1      13.459   5.605   1.758  1.00  0.00    -0.266 N
ATOM     10  H4  UNL     1      13.532   4.825   2.411  1.00  0.00     0.197 HD
ENDROOT
BRANCH   1  11
HETATM   11  C4  UNL     1      11.577   6.144   2.910  1.00  0.00     0.114 C
BRANCH  11  12
HETATM   12  C3  UNL     1      10.273   6.852   2.749  1.00  0.00     0.016 C
BRANCH  12  13
HETATM   13  C2  UNL     1       9.122   5.943   2.447  1.00  0.00    -0.003 C
HETATM   14  C1  UNL     1       8.414   6.442   1.218  1.00  0.00     0.005 C
ENDBRANCH  12  13
ENDBRANCH  11  12
ENDBRANCH   1  11
TORSDOF 3
ENDMDL