MODEL 4
REMARK VINA RESULT: -3.985374105      5.276      6.907
REMARK  5 active torsions:
REMARK  status: ('A' for Active; 'I' for Inactive)
REMARK    1  A    between atoms: N1_2  and  C2_3
REMARK    2  A    between atoms: N2_4  and  O1_6
REMARK    3  A    between atoms: C4_10  and  C5_11
REMARK    4  A    between atoms: C5_11  and  C6_12
REMARK    5  A    between atoms: C6_12  and  O2_13
ROOT
HETATM    1  C1  UNL     1       6.633   9.535  -2.082  1.00  0.00     0.281 C
HETATM    2  N1  UNL     1       6.126   8.387  -1.342  1.00  0.00    -0.026 N
HETATM    3  C3  UNL     1       6.472   8.426   0.027  1.00  0.00     0.318 C
HETATM    4  S1  UNL     1       7.936   7.323   0.131  1.00  0.00    -0.134 SA
HETATM    5  C4  UNL     1       7.738   6.606  -1.543  1.00  0.00     0.077 C
HETATM    6  C7  UNL     1       6.491   7.208  -1.993  1.00  0.00     0.260 C
ENDROOT
BRANCH   2   7
HETATM    7  C2  UNL     1       4.687   8.494  -1.413  1.00  0.00     0.316 C
HETATM    8  N2  UNL     1       4.099   8.248  -2.529  1.00  0.00    -0.258 N
ATOM      9  H2  UNL     1       3.082   8.330  -2.555  1.00  0.00     0.194 HD
BRANCH   8  10
HETATM   10  O1  UNL     1       4.734   7.885  -3.686  1.00  0.00    -0.289 OA
ATOM     11  H1  UNL     1       5.159   7.048  -3.833  1.00  0.00     0.244 HD
ENDBRANCH   8  10
ENDBRANCH   2   7
BRANCH   5  12
HETATM   12  C5  UNL     1       8.969   6.882  -2.324  1.00  0.00     0.043 C
BRANCH  12  13
HETATM   13  C6  UNL     1       8.546   7.100  -3.783  1.00  0.00     0.165 C
BRANCH  13  14
HETATM   14  O2  UNL     1       8.611   5.873  -4.471  1.00  0.00    -0.401 OA
ATOM     15  H2  UNL     1       9.519   5.604  -4.543  1.00  0.00     0.209 HD
ENDBRANCH  13  14
ENDBRANCH  12  13
ENDBRANCH   5  12
TORSDOF 5
ENDMDL