MODEL 4
REMARK VINA RESULT: -5.094210061      1.677      2.589
REMARK  4 active torsions:
REMARK  status: ('A' for Active; 'I' for Inactive)
REMARK    1  A    between atoms: N1_1  and  C1_5
REMARK    2  A    between atoms: C1_5  and  C2_6
REMARK    3  A    between atoms: C5_9  and  C6_10
REMARK    4  A    between atoms: C6_10  and  N2_11
ROOT
HETATM    1  C2  UNL     1      13.020   2.473  -3.930  1.00  0.00     0.211 C
HETATM    2  C3  UNL     1      14.001   1.427  -3.428  1.00  0.00     0.037 C
HETATM    3  C4  UNL     1      14.546   2.032  -2.160  1.00  0.00     0.037 C
HETATM    4  C5  UNL     1      13.778   3.298  -2.007  1.00  0.00     0.204 C
HETATM    5  N3  UNL     1      12.544   3.079  -2.696  1.00  0.00    -0.064 N
ATOM      6  H31 UNL     1      11.845   2.541  -2.184  1.00  0.00     0.278 HD
ATOM      7  H32 UNL     1      11.955   3.904  -2.812  1.00  0.00     0.278 HD
ENDROOT
BRANCH   4   8
HETATM    8  C6  UNL     1      13.625   3.563  -0.524  1.00  0.00     0.149 C
BRANCH   8   9
HETATM    9  N2  UNL     1      13.511   4.965  -0.355  1.00  0.00    -0.406 N
HETATM   10  C7  UNL     1      12.210   5.533  -0.355  1.00  0.00     0.143 C
HETATM   11  C8  UNL     1      11.761   5.959   1.033  1.00  0.00     0.187 C
HETATM   12  O1  UNL     1      12.774   6.604   1.714  1.00  0.00    -0.388 OA
HETATM   13  C9  UNL     1      13.946   5.902   1.806  1.00  0.00     0.187 C
HETATM   14  C10 UNL     1      14.485   5.626   0.424  1.00  0.00     0.143 C
ENDBRANCH   8   9
ENDBRANCH   4   8
BRANCH   1  15
HETATM   15  C1  UNL     1      11.943   1.832  -4.727  1.00  0.00     0.262 C
BRANCH  15  16
HETATM   16  N1  UNL     1      10.830   2.661  -5.040  1.00  0.00    -0.077 N
ATOM     17  H13 UNL     1      11.143   3.620  -5.196  1.00  0.00     0.274 HD
ATOM     18  H12 UNL     1      10.475   2.431  -5.968  1.00  0.00     0.274 HD
ATOM     19  H11 UNL     1      10.066   2.651  -4.364  1.00  0.00     0.274 HD
ENDBRANCH  15  16
ENDBRANCH   1  15
TORSDOF 4
ENDMDL