MODEL 5
REMARK VINA RESULT: -6.575169710      0.859      1.470
REMARK  3 active torsions:
REMARK  status: ('A' for Active; 'I' for Inactive)
REMARK    1  A    between atoms: C7_7  and  N1_8
REMARK    2  A    between atoms: N1_8  and  C8_11
REMARK    3  A    between atoms: C8_11  and  C9_12
ROOT
HETATM    1  N1  UNL     1      12.734   3.765  -0.857  1.00  0.00    -0.064 N
ATOM      2  H11 UNL     1      11.815   3.860  -1.289  1.00  0.00     0.278 HD
ATOM      3  H12 UNL     1      12.465   3.313   0.017  1.00  0.00     0.278 HD
ENDROOT
BRANCH   1   4
HETATM    4  C7  UNL     1      13.311   5.045  -0.608  1.00  0.00     0.190 C
HETATM    5  C2  UNL     1      12.272   6.037  -0.221  1.00  0.00     0.012 C
HETATM    6  C1  UNL     1      10.930   5.795  -0.859  1.00  0.00     0.012 C
HETATM    7  C3  UNL     1      12.149   6.037   1.298  1.00  0.00     0.006 C
HETATM    8  C4  UNL     1      13.338   6.824   1.838  1.00  0.00     0.000 C
HETATM    9  C5  UNL     1      14.571   6.335   1.114  1.00  0.00     0.002 C
HETATM   10  C6  UNL     1      14.308   4.957   0.527  1.00  0.00     0.033 C
ENDBRANCH   1   4
BRANCH   1  11
HETATM   11  C8  UNL     1      13.584   2.897  -1.644  1.00  0.00     0.311 C
BRANCH  11  12
HETATM   12  C9  UNL     1      12.965   2.559  -2.950  1.00  0.00     0.136 A
HETATM   13  N2  UNL     1      11.708   2.864  -3.365  1.00  0.00    -0.269 N
HETATM   14  N3  UNL     1      11.537   2.388  -4.591  1.00  0.00    -0.005 NA
ATOM     15  H2  UNL     1      11.011   3.376  -2.823  1.00  0.00     0.185 HD
HETATM   16  N4  UNL     1      12.647   1.784  -4.979  1.00  0.00    -0.225 N
HETATM   17  N5  UNL     1      13.506   1.888  -3.991  1.00  0.00    -0.274 N
ATOM     18  H4  UNL     1      12.806   1.326  -5.876  1.00  0.00     0.205 HD
ATOM     19  H5  UNL     1      14.453   1.512  -4.007  1.00  0.00     0.189 HD
ENDBRANCH  11  12
ENDBRANCH   1  11
TORSDOF 3
ENDMDL