MODEL 3
REMARK VINA RESULT: -5.985290292      3.742      5.717
REMARK  3 active torsions:
REMARK  status: ('A' for Active; 'I' for Inactive)
REMARK    1  A    between atoms: C2_2  and  C3_3
REMARK    2  A    between atoms: C3_3  and  C4_4
REMARK    3  A    between atoms: C4_4  and  C6_7
ROOT
HETATM    1  C4  UNL     1      10.853   5.585  -0.617  1.00  0.00     0.151 C
HETATM    2  C5  UNL     1      11.998   6.432  -0.372  1.00  0.00     0.070 C
HETATM    3  N1  UNL     1      12.908   7.109  -0.155  1.00  0.00    -0.197 NA
ENDROOT
BRANCH   1   4
HETATM    4  C3  UNL     1      11.318   4.260  -1.229  1.00  0.00     0.052 C
BRANCH   4   5
HETATM    5  C2  UNL     1      12.691   3.923  -0.845  1.00  0.00    -0.035 C
HETATM    6  C1  UNL     1      13.320   2.933  -1.441  1.00  0.00     0.007 C
ENDBRANCH   4   5
ENDBRANCH   1   4
BRANCH   1   7
HETATM    7  C6  UNL     1       9.737   6.205  -1.291  1.00  0.00     0.093 C
HETATM    8  N2  UNL     1       9.825   6.218  -2.609  1.00  0.00    -0.266 N
HETATM    9  O1  UNL     1       8.926   6.736  -3.544  1.00  0.00    -0.279 OA
ATOM     10  H2  UNL     1      10.666   5.792  -2.997  1.00  0.00     0.194 HD
HETATM   11  C7  UNL     1       8.195   7.946  -3.422  1.00  0.00     0.220 C
HETATM   12  C8  UNL     1       7.137   7.883  -2.371  1.00  0.00     0.150 C
HETATM   13  N3  UNL     1       7.638   7.736  -1.030  1.00  0.00    -0.373 N
HETATM   14  C9  UNL     1       8.609   6.766  -0.574  1.00  0.00     0.121 C
ATOM     15  H3  UNL     1       7.272   8.382  -0.331  1.00  0.00     0.161 HD
HETATM   16  N4  UNL     1       8.460   6.352   0.588  1.00  0.00    -0.384 N
ATOM     17  H42 UNL     1       9.144   5.668   0.910  1.00  0.00     0.157 HD
ATOM     18  H41 UNL     1       7.667   6.747   1.093  1.00  0.00     0.157 HD
ENDBRANCH   1   7
TORSDOF 3
ENDMDL