MODEL 1
REMARK VINA RESULT: -9.251708954      0.000      0.000
REMARK  5 active torsions:
REMARK  status: ('A' for Active; 'I' for Inactive)
REMARK    1  A    between atoms: C3_7  and  C4_8
REMARK    2  A    between atoms: C3_7  and  C9_18
REMARK    3  A    between atoms: C6_10  and  C7_11
REMARK    4  A    between atoms: N3_26  and  C16_27
REMARK    5  A    between atoms: C16_27  and  C17_28
ROOT
HETATM    1  O1  UNL     1     -43.076  -0.853   6.520  1.00  0.00    -0.246 OA
HETATM    2  C1  UNL     1     -42.264  -1.195   5.596  1.00  0.00     0.331 C
HETATM    3  N1  UNL     1     -40.930  -0.629   5.616  1.00  0.00    -0.277 N
ATOM      4  H1  UNL     1     -40.662   0.022   6.355  1.00  0.00     0.173 HD
HETATM    5  C2  UNL     1     -40.022  -0.971   4.633  1.00  0.00     0.250 C
HETATM    6  O2  UNL     1     -39.085  -0.213   4.295  1.00  0.00    -0.271 OA
HETATM    7  C3  UNL     1     -40.172  -2.301   3.941  1.00  0.00     0.168 C
HETATM    8  C15 UNL     1     -41.592  -2.493   3.593  1.00  0.00     0.252 C
HETATM    9  O3  UNL     1     -41.957  -2.982   2.510  1.00  0.00    -0.271 OA
HETATM   10  N3  UNL     1     -42.571  -2.111   4.553  1.00  0.00    -0.268 N
ENDROOT
BRANCH   7  11
HETATM   11  C4  UNL     1     -39.997  -3.246   5.140  1.00  0.00     0.037 A
HETATM   12  C5  UNL     1     -39.148  -3.127   6.193  1.00  0.00     0.044 A
HETATM   13  C6  UNL     1     -39.278  -4.276   6.970  1.00  0.00     0.065 A
HETATM   14  C8  UNL     1     -40.208  -5.062   6.367  1.00  0.00     0.104 A
HETATM   15  N2  UNL     1     -40.640  -4.419   5.238  1.00  0.00    -0.367 N
ATOM     16  H2  UNL     1     -41.335  -4.773   4.581  1.00  0.00     0.165 HD
BRANCH  13  17
HETATM   17  C7  UNL     1     -38.484  -4.641   8.180  1.00  0.00     0.418 C
HETATM   18  F1  UNL     1     -37.379  -5.362   7.806  1.00  0.00    -0.166 F
HETATM   19  F2  UNL     1     -39.283  -5.367   9.041  1.00  0.00    -0.166 F
HETATM   20  F3  UNL     1     -38.059  -3.515   8.853  1.00  0.00    -0.166 F
ENDBRANCH  13  17
ENDBRANCH   7  11
BRANCH   7  21
HETATM   21  C9  UNL     1     -39.170  -2.439   2.886  1.00  0.00     0.019 C
HETATM   22  C10 UNL     1     -39.664  -2.523   1.449  1.00  0.00     0.007 C
HETATM   23  C11 UNL     1     -38.450  -2.174   0.564  1.00  0.00     0.000 C
HETATM   24  C12 UNL     1     -37.301  -3.078   0.780  1.00  0.00     0.000 C
HETATM   25  C13 UNL     1     -37.548  -4.099   1.853  1.00  0.00     0.000 C
HETATM   26  C14 UNL     1     -38.185  -3.563   3.098  1.00  0.00     0.007 C
ENDBRANCH   7  21
BRANCH  10  27
HETATM   27  C16 UNL     1     -43.951  -2.588   4.446  1.00  0.00     0.141 C
BRANCH  27  28
HETATM   28  C17 UNL     1     -44.877  -1.713   3.652  1.00  0.00     0.004 C
HETATM   29  C18 UNL     1     -46.021  -1.090   4.363  1.00  0.00     0.006 C
HETATM   30  C19 UNL     1     -46.705  -0.041   3.464  1.00  0.00     0.000 C
HETATM   31  C20 UNL     1     -46.176  -0.028   2.072  1.00  0.00     0.000 C
HETATM   32  C21 UNL     1     -46.118  -1.428   1.514  1.00  0.00     0.000 C
HETATM   33  C22 UNL     1     -45.347  -2.382   2.367  1.00  0.00     0.006 C
ENDBRANCH  27  28
ENDBRANCH  10  27
TORSDOF 5
ENDMDL