MODEL 5
REMARK VINA RESULT: -7.678992618      2.465      4.549
REMARK  5 active torsions:
REMARK  status: ('A' for Active; 'I' for Inactive)
REMARK    1  A    between atoms: C2_2  and  O1_4
REMARK    2  A    between atoms: O1_4  and  C4_5
REMARK    3  A    between atoms: C4_5  and  C5_7
REMARK    4  A    between atoms: C6_8  and  C7_9
REMARK    5  A    between atoms: C7_9  and  C8_10
ROOT
HETATM    1  C5  UNL     1     -41.354  -1.870   2.047  1.00  0.00     0.075 A
HETATM    2  C6  UNL     1     -42.535  -1.388   2.560  1.00  0.00     0.037 A
HETATM    3  N1  UNL     1     -43.479  -1.401   1.573  1.00  0.00    -0.356 N
ATOM      4  H1  UNL     1     -44.445  -1.095   1.686  1.00  0.00     0.166 HD
HETATM    5  C9  UNL     1     -42.951  -1.877   0.431  1.00  0.00     0.061 A
HETATM    6  C10 UNL     1     -43.461  -2.096  -0.842  1.00  0.00     0.039 A
HETATM    7 BR1  UNL     1     -45.270  -1.676  -1.173  1.00  0.00    -0.049 Br
HETATM    8  C11 UNL     1     -42.639  -2.615  -1.841  1.00  0.00     0.040 A
HETATM    9  C12 UNL     1     -41.322  -2.914  -1.581  1.00  0.00     0.013 A
HETATM   10 BR2  UNL     1     -40.129  -3.620  -2.865  1.00  0.00    -0.051 Br
HETATM   11  C13 UNL     1     -40.831  -2.686  -0.291  1.00  0.00     0.034 A
HETATM   12  C14 UNL     1     -41.631  -2.173   0.708  1.00  0.00     0.011 A
ENDROOT
BRANCH   1  13
HETATM   13  C4  UNL     1     -40.061  -2.061   2.686  1.00  0.00     0.296 C
HETATM   14  O2  UNL     1     -39.508  -1.167   3.362  1.00  0.00    -0.259 OA
BRANCH  13  15
HETATM   15  O1  UNL     1     -39.380  -3.256   2.568  1.00  0.00    -0.313 OA
BRANCH  15  16
HETATM   16  C2  UNL     1     -38.010  -3.286   2.456  1.00  0.00     0.124 C
HETATM   17  C1  UNL     1     -37.463  -4.605   2.979  1.00  0.00     0.040 C
HETATM   18  C3  UNL     1     -37.467  -3.104   1.065  1.00  0.00     0.040 C
ENDBRANCH  15  16
ENDBRANCH  13  15
ENDBRANCH   1  13
BRANCH   2  19
HETATM   19  C7  UNL     1     -42.766  -0.923   3.944  1.00  0.00     0.171 C
BRANCH  19  20
HETATM   20  C8  UNL     1     -44.142  -1.198   4.411  1.00  0.00     0.178 C
HETATM   21  O3  UNL     1     -44.744  -0.334   5.096  1.00  0.00    -0.648 OA
HETATM   22  O4  UNL     1     -44.800  -2.378   4.121  1.00  0.00    -0.648 OA
ENDBRANCH  19  20
ENDBRANCH   2  19
TORSDOF 5
ENDMDL