MODEL 1
REMARK VINA RESULT: -7.234293822      0.000      0.000
REMARK  5 active torsions:
REMARK  status: ('A' for Active; 'I' for Inactive)
REMARK    1  A    between atoms: C2_2  and  C3_5
REMARK       I    between atoms: C3_5  and  N1_7
REMARK    2  A    between atoms: N1_7  and  C4_9
REMARK    3  A    between atoms: C4_9  and  C5_10
REMARK       I    between atoms: C5_10  and  N2_12
REMARK    4  A    between atoms: N2_12  and  C6_14
REMARK    5  A    between atoms: C6_14  and  C7_15
ROOT
HETATM    1  C5  UNL     1     -42.280  -3.699   4.666  1.00  0.00     0.236 C
HETATM    2  O2  UNL     1     -41.959  -4.823   4.224  1.00  0.00    -0.272 OA
HETATM    3  N2  UNL     1     -41.335  -2.891   5.339  1.00  0.00    -0.346 N
ATOM      4  H2  UNL     1     -41.653  -1.983   5.678  1.00  0.00     0.163 HD
ENDROOT
BRANCH   3   5
HETATM    5  C6  UNL     1     -39.962  -3.244   5.586  1.00  0.00     0.066 C
HETATM    6  C11 UNL     1     -39.877  -4.616   6.246  1.00  0.00     0.036 C
HETATM    7  C12 UNL     1     -39.167  -4.564   7.578  1.00  0.00     0.003 C
HETATM    8  C13 UNL     1     -39.809  -3.579   8.507  1.00  0.00     0.000 C
HETATM    9  C14 UNL     1     -40.086  -2.280   7.804  1.00  0.00     0.003 C
HETATM   10  C15 UNL     1     -39.314  -2.264   6.502  1.00  0.00     0.036 C
BRANCH   5  11
HETATM   11  C7  UNL     1     -39.170  -3.375   4.309  1.00  0.00     0.012 A
HETATM   12  C8  UNL     1     -38.256  -4.328   3.964  1.00  0.00     0.019 A
HETATM   13  C9  UNL     1     -37.683  -4.217   2.748  1.00  0.00     0.028 A
HETATM   14  C10 UNL     1     -38.066  -3.163   1.971  1.00  0.00     0.051 A
HETATM   15 BR1  UNL     1     -37.461  -2.709   0.196  1.00  0.00    -0.043 Br
HETATM   16  S1  UNL     1     -39.209  -2.357   2.945  1.00  0.00    -0.085 SA
ENDBRANCH   5  11
ENDBRANCH   3   5
BRANCH   1  17
HETATM   17  C4  UNL     1     -43.658  -3.208   4.481  1.00  0.00     0.225 C
BRANCH  17  18
HETATM   18  N1  UNL     1     -43.809  -2.243   3.423  1.00  0.00    -0.350 N
HETATM   19  C3  UNL     1     -45.117  -2.096   2.865  1.00  0.00     0.256 C
HETATM   20  O1  UNL     1     -46.083  -2.800   3.306  1.00  0.00    -0.270 OA
ATOM     21  H1  UNL     1     -43.021  -1.691   3.087  1.00  0.00     0.163 HD
BRANCH  19  22
HETATM   22  C2  UNL     1     -45.405  -1.141   1.777  1.00  0.00     0.189 C
HETATM   23  C1  UNL     1     -46.070  -1.844   0.619  1.00  0.00     0.061 C
HETATM   24 CL1  UNL     1     -43.856  -0.460   1.156  1.00  0.00    -0.091 Cl
HETATM   25 CL2  UNL     1     -46.475   0.181   2.318  1.00  0.00    -0.091 Cl
ENDBRANCH  19  22
ENDBRANCH  17  18
ENDBRANCH   1  17
TORSDOF 5
ENDMDL