MODEL 3
REMARK VINA RESULT: -6.907597689      2.782      4.865
REMARK  10 active torsions:
REMARK  status: ('A' for Active; 'I' for Inactive)
REMARK    1  A    between atoms: C2_2  and  C3_3
REMARK    2  A    between atoms: C3_3  and  N1_4
REMARK       I    between atoms: N1_4  and  C4_5
REMARK    3  A    between atoms: N1_4  and  C18_30
REMARK       I    between atoms: C4_5  and  N2_7
REMARK    4  A    between atoms: N2_7  and  C5_9
REMARK    5  A    between atoms: C9_13  and  C10_14
REMARK    6  A    between atoms: N3_18  and  C14_19
REMARK    7  A    between atoms: C14_19  and  O2_20
REMARK    8  A    between atoms: C14_19  and  C15_22
REMARK    9  A    between atoms: C15_22  and  O3_24
REMARK   10  A    between atoms: C15_22  and  C17_26
ROOT
HETATM    1  C5  UNL     1     -38.972  -3.610   5.162  1.00  0.00     0.093 C
HETATM    2  C6  UNL     1     -38.813  -5.131   5.134  1.00  0.00     0.077 C
HETATM    3  C7  UNL     1     -37.708  -5.495   6.106  1.00  0.00     0.013 C
HETATM    4  C8  UNL     1     -37.690  -4.832   7.415  1.00  0.00     0.054 C
HETATM    5  C9  UNL     1     -38.039  -3.340   7.311  1.00  0.00     0.005 C
HETATM    6  N3  UNL     1     -39.250  -3.219   6.525  1.00  0.00    -0.289 N
ENDROOT
BRANCH   1   7
HETATM    7  N2  UNL     1     -39.493  -2.984   4.053  1.00  0.00    -0.298 N
HETATM    8  C4  UNL     1     -38.870  -3.079   2.727  1.00  0.00     0.324 C
HETATM    9  N1  UNL     1     -39.374  -2.458   1.576  1.00  0.00    -0.326 N
HETATM   10  O1  UNL     1     -37.807  -3.771   2.630  1.00  0.00    -0.247 OA
ATOM     11  H2  UNL     1     -40.346  -2.432   4.156  1.00  0.00     0.172 HD
BRANCH   9  12
HETATM   12  C3  UNL     1     -40.560  -1.689   1.672  1.00  0.00     0.128 C
BRANCH  12  13
HETATM   13  C2  UNL     1     -41.836  -2.435   1.852  1.00  0.00     0.015 C
HETATM   14  C1  UNL     1     -42.547  -2.420   0.494  1.00  0.00     0.006 C
ENDBRANCH  12  13
ENDBRANCH   9  12
BRANCH   9  15
HETATM   15  C18 UNL     1     -38.635  -2.656   0.327  1.00  0.00     0.026 C
HETATM   16  C19 UNL     1     -38.907  -4.057  -0.234  1.00  0.00     0.037 C
HETATM   17  C20 UNL     1     -37.151  -2.551   0.483  1.00  0.00     0.037 C
HETATM   18  C21 UNL     1     -39.197  -1.685  -0.707  1.00  0.00     0.037 C
ENDBRANCH   9  15
ENDBRANCH   1   7
BRANCH   6  19
HETATM   19  C14 UNL     1     -40.527  -2.949   6.974  1.00  0.00     0.168 C
BRANCH  19  20
HETATM   20  O2  UNL     1     -41.026  -3.861   7.774  1.00  0.00    -0.346 OA
ATOM     21  H2  UNL     1     -41.800  -3.585   8.252  1.00  0.00     0.219 HD
ENDBRANCH  19  20
BRANCH  19  22
HETATM   22  C15 UNL     1     -41.484  -1.878   6.766  1.00  0.00     0.217 C
HETATM   23  C16 UNL     1     -42.207  -1.444   8.021  1.00  0.00     0.065 C
BRANCH  22  24
HETATM   24  O3  UNL     1     -41.101  -0.750   6.107  1.00  0.00    -0.374 OA
ATOM     25  H3  UNL     1     -41.665   0.014   6.116  1.00  0.00     0.211 HD
ENDBRANCH  22  24
BRANCH  22  26
HETATM   26  C17 UNL     1     -42.613  -2.451   5.870  1.00  0.00     0.425 C
HETATM   27  F1  UNL     1     -42.988  -1.420   5.037  1.00  0.00    -0.167 F
HETATM   28  F2  UNL     1     -43.717  -2.713   6.690  1.00  0.00    -0.167 F
HETATM   29  F3  UNL     1     -42.208  -3.566   5.206  1.00  0.00    -0.167 F
ENDBRANCH  22  26
ENDBRANCH  19  22
ENDBRANCH   6  19
BRANCH   5  30
HETATM   30  C10 UNL     1     -37.748  -2.578   8.510  1.00  0.00    -0.012 C
HETATM   31  C11 UNL     1     -36.196  -2.792   8.697  1.00  0.00     0.021 C
HETATM   32  C12 UNL     1     -37.839  -1.087   8.297  1.00  0.00     0.021 C
HETATM   33  C13 UNL     1     -38.289  -3.048   9.825  1.00  0.00     0.021 C
ENDBRANCH   5  30
TORSDOF 10
ENDMDL