MODEL 3
REMARK VINA RESULT: -7.042067916      4.991      6.265
REMARK  5 active torsions:
REMARK  status: ('A' for Active; 'I' for Inactive)
REMARK    1  A    between atoms: C7_7  and  C9_9
REMARK       I    between atoms: C9_9  and  N1_11
REMARK    2  A    between atoms: N1_11  and  C10_13
REMARK    3  A    between atoms: N2_16  and  C13_17
REMARK    4  A    between atoms: C13_17  and  C14_18
REMARK    5  A    between atoms: C13_17  and  C15_21
ROOT
HETATM    1  C10 UNL     1     -39.460  -2.478   3.308  1.00  0.00     0.087 C
HETATM    2  C11 UNL     1     -39.475  -3.908   3.809  1.00  0.00     0.044 C
HETATM    3  C12 UNL     1     -40.246  -4.073   5.083  1.00  0.00     0.120 C
HETATM    4  N2  UNL     1     -40.021  -3.065   6.058  1.00  0.00    -0.396 N
HETATM    5  C16 UNL     1     -39.744  -1.778   5.608  1.00  0.00     0.120 C
HETATM    6  C17 UNL     1     -40.348  -1.636   4.199  1.00  0.00     0.044 C
ENDROOT
BRANCH   1   7
HETATM    7  N1  UNL     1     -39.998  -2.388   1.968  1.00  0.00    -0.356 N
HETATM    8  C9  UNL     1     -39.200  -2.467   0.823  1.00  0.00     0.226 C
HETATM    9  O1  UNL     1     -37.950  -2.622   0.943  1.00  0.00    -0.273 OA
ATOM     10  H1  UNL     1     -41.003  -2.262   1.853  1.00  0.00     0.162 HD
BRANCH   8  11
HETATM   11  C7  UNL     1     -39.786  -2.370  -0.565  1.00  0.00     0.038 C
HETATM   12  C6  UNL     1     -39.495  -3.680  -1.228  1.00  0.00     0.019 C
HETATM   13  C5  UNL     1     -40.089  -3.808  -2.591  1.00  0.00     0.002 C
HETATM   14  C4  UNL     1     -41.339  -3.043  -2.825  1.00  0.00     0.009 C
HETATM   15  C2  UNL     1     -42.064  -2.561  -1.621  1.00  0.00    -0.047 C
HETATM   16  C1  UNL     1     -43.102  -3.601  -1.208  1.00  0.00     0.015 C
HETATM   17  C3  UNL     1     -42.876  -1.339  -2.062  1.00  0.00     0.015 C
HETATM   18  C18 UNL     1     -41.238  -2.143  -0.452  1.00  0.00     0.027 C
HETATM   19  C8  UNL     1     -39.047  -1.225  -1.227  1.00  0.00     0.025 C
ENDBRANCH   8  11
ENDBRANCH   1   7
BRANCH   4  20
HETATM   20  C13 UNL     1     -40.167  -3.383   7.411  1.00  0.00     0.235 C
BRANCH  20  21
HETATM   21  C14 UNL     1     -38.881  -3.317   8.143  1.00  0.00     0.201 C
HETATM   22  O2  UNL     1     -38.733  -4.108   9.146  1.00  0.00    -0.646 OA
HETATM   23  O3  UNL     1     -37.830  -2.474   7.835  1.00  0.00    -0.646 OA
ENDBRANCH  20  21
BRANCH  20  24
HETATM   24  C15 UNL     1     -41.199  -2.511   8.149  1.00  0.00     0.218 C
HETATM   25 CL1  UNL     1     -41.897  -3.378   9.543  1.00  0.00    -0.081 Cl
HETATM   26 CL2  UNL     1     -42.571  -2.118   7.073  1.00  0.00    -0.081 Cl
HETATM   27 CL3  UNL     1     -40.483  -1.000   8.723  1.00  0.00    -0.081 Cl
ENDBRANCH  20  24
ENDBRANCH   4  20
TORSDOF 5
ENDMDL