MODEL 2
REMARK VINA RESULT: -8.205396488      2.433      3.965
REMARK  5 active torsions:
REMARK  status: ('A' for Active; 'I' for Inactive)
REMARK    1  A    between atoms: C4_4  and  N1_5
REMARK       I    between atoms: N1_5  and  C5_7
REMARK    2  A    between atoms: C5_7  and  C6_9
REMARK    3  A    between atoms: C6_9  and  N2_10
REMARK    4  A    between atoms: C6_9  and  C14_20
REMARK       I    between atoms: N2_10  and  C7_12
REMARK    5  A    between atoms: C7_12  and  C8_14
ROOT
HETATM    1  C6  UNL     1     -40.027  -1.412   6.301  1.00  0.00     0.231 C
ENDROOT
BRANCH   1   2
HETATM    2  C5  UNL     1     -41.476  -1.635   6.264  1.00  0.00     0.245 C
HETATM    3  N1  UNL     1     -42.481  -0.655   6.318  1.00  0.00    -0.354 N
ATOM      4  H1  UNL     1     -42.197   0.322   6.389  1.00  0.00     0.162 HD
HETATM    5  O1  UNL     1     -41.876  -2.851   6.168  1.00  0.00    -0.271 OA
BRANCH   3   6
HETATM    6  C4  UNL     1     -43.899  -0.954   6.279  1.00  0.00     0.087 C
HETATM    7  C3  UNL     1     -44.603   0.165   7.018  1.00  0.00     0.040 C
HETATM    8  C2  UNL     1     -45.979  -0.228   7.443  1.00  0.00     0.046 C
HETATM    9  C1  UNL     1     -46.005  -0.954   8.772  1.00  0.00     0.021 C
HETATM   10  S1  UNL     1     -46.691  -1.301   6.196  1.00  0.00    -0.155 SA
HETATM   11  C16 UNL     1     -45.771  -1.302   4.643  1.00  0.00     0.003 C
HETATM   12  C15 UNL     1     -44.309  -1.012   4.830  1.00  0.00     0.045 C
HETATM   13  C17 UNL     1     -46.335  -0.275   3.683  1.00  0.00     0.026 C
HETATM   14  C18 UNL     1     -45.967  -2.669   4.007  1.00  0.00     0.026 C
ENDBRANCH   3   6
ENDBRANCH   1   2
BRANCH   1  15
HETATM   15  N2  UNL     1     -39.376  -2.084   5.164  1.00  0.00    -0.344 N
HETATM   16  C7  UNL     1     -39.610  -1.584   3.863  1.00  0.00     0.222 C
HETATM   17  O2  UNL     1     -40.358  -0.589   3.706  1.00  0.00    -0.273 OA
ATOM     18  H2  UNL     1     -38.771  -2.892   5.312  1.00  0.00     0.163 HD
BRANCH  16  19
HETATM   19  C8  UNL     1     -39.013  -2.177   2.645  1.00  0.00     0.078 C
HETATM   20  C9  UNL     1     -38.215  -3.405   2.920  1.00  0.00     0.014 C
HETATM   21  C10 UNL     1     -38.211  -4.246   1.651  1.00  0.00     0.001 C
HETATM   22  C11 UNL     1     -38.039  -3.373   0.434  1.00  0.00     0.000 C
HETATM   23  C12 UNL     1     -39.313  -2.563   0.236  1.00  0.00     0.001 C
HETATM   24  C13 UNL     1     -40.045  -2.484   1.581  1.00  0.00     0.014 C
ENDBRANCH  16  19
ENDBRANCH   1  15
BRANCH   1  25
HETATM   25  C14 UNL     1     -39.450  -2.140   7.526  1.00  0.00     0.217 C
HETATM   26 CL1  UNL     1     -38.974  -3.772   7.083  1.00  0.00    -0.081 Cl
HETATM   27 CL2  UNL     1     -38.044  -1.170   8.043  1.00  0.00    -0.081 Cl
HETATM   28 CL3  UNL     1     -40.576  -2.191   8.885  1.00  0.00    -0.081 Cl
ENDBRANCH   1  25
TORSDOF 5
ENDMDL