MODEL 5
REMARK VINA RESULT: -7.777177761      3.779      7.529
REMARK  5 active torsions:
REMARK  status: ('A' for Active; 'I' for Inactive)
REMARK    1  A    between atoms: C2_2  and  O1_3
REMARK    2  A    between atoms: C5_8  and  O2_9
REMARK    3  A    between atoms: O2_9  and  C6_10
REMARK    4  A    between atoms: C6_10  and  C7_11
REMARK    5  A    between atoms: C7_11  and  N1_12
ROOT
HETATM    1  C1  UNL     1     -40.430  -2.770   7.764  1.00  0.00     0.055 C
HETATM    2  C2  UNL     1     -39.110  -3.257   7.298  1.00  0.00     0.119 C
HETATM    3  C3  UNL     1     -38.904  -3.552   5.910  1.00  0.00     0.012 A
HETATM    4  C4  UNL     1     -39.519  -2.990   4.885  1.00  0.00     0.055 A
HETATM    5 BR1  UNL     1     -40.873  -1.681   5.236  1.00  0.00    -0.047 Br
HETATM    6  C5  UNL     1     -39.290  -3.344   3.519  1.00  0.00     0.095 A
HETATM    7  C12 UNL     1     -38.384  -4.339   3.286  1.00  0.00     0.069 A
HETATM    8  C13 UNL     1     -37.699  -4.992   4.324  1.00  0.00     0.046 A
HETATM    9  N2  UNL     1     -36.784  -5.986   4.413  1.00  0.00    -0.365 N
ATOM     10  H2  UNL     1     -36.379  -6.500   3.630  1.00  0.00     0.165 HD
HETATM   11  C14 UNL     1     -36.496  -6.182   5.737  1.00  0.00     0.096 A
HETATM   12  C15 UNL     1     -37.230  -5.306   6.497  1.00  0.00    -0.026 A
HETATM   13  C16 UNL     1     -37.964  -4.591   5.601  1.00  0.00     0.009 A
HETATM   14  C17 UNL     1     -37.376  -4.990   7.933  1.00  0.00     0.086 C
HETATM   15  C18 UNL     1     -38.715  -4.387   8.211  1.00  0.00     0.152 C
HETATM   16 CL1  UNL     1     -38.785  -3.915   9.928  1.00  0.00    -0.098 Cl
HETATM   17 CL2  UNL     1     -39.934  -5.691   7.969  1.00  0.00    -0.098 Cl
ENDROOT
BRANCH   6  18
HETATM   18  O2  UNL     1     -40.013  -2.602   2.707  1.00  0.00    -0.320 OA
BRANCH  18  19
HETATM   19  C6  UNL     1     -40.700  -1.892   1.923  1.00  0.00     0.154 C
BRANCH  19  20
HETATM   20  C7  UNL     1     -41.241  -2.296   0.602  1.00  0.00     0.084 C
BRANCH  20  21
HETATM   21  N1  UNL     1     -40.842  -1.702  -0.590  1.00  0.00    -0.291 NA
HETATM   22  C8  UNL     1     -41.962  -1.840  -1.535  1.00  0.00     0.095 C
HETATM   23  C9  UNL     1     -41.624  -3.010  -2.405  1.00  0.00     0.016 C
HETATM   24  C10 UNL     1     -40.179  -3.335  -2.086  1.00  0.00     0.016 C
HETATM   25  C11 UNL     1     -39.715  -2.129  -1.298  1.00  0.00     0.095 C
ENDBRANCH  20  21
ENDBRANCH  19  20
ENDBRANCH  18  19
ENDBRANCH   6  18
BRANCH   2  26
HETATM   26  O1  UNL     1     -38.228  -2.174   7.591  1.00  0.00    -0.382 OA
ATOM     27  H1  UNL     1     -38.215  -1.670   6.786  1.00  0.00     0.211 HD
ENDBRANCH   2  26
TORSDOF 5
ENDMDL