MODEL 3
REMARK VINA RESULT: -8.166019966      0.130      1.689
REMARK  5 active torsions:
REMARK  status: ('A' for Active; 'I' for Inactive)
REMARK    1  A    between atoms: C2_2  and  C4_5
REMARK    2  A    between atoms: C6_12  and  C7_13
REMARK    3  A    between atoms: C7_13  and  C8_14
REMARK    4  A    between atoms: C8_14  and  C9_15
REMARK       I    between atoms: C9_15  and  N3_17
REMARK    5  A    between atoms: N4_20  and  C12_21
ROOT
HETATM    1  C9  UNL     1     -45.333  -0.884   3.028  1.00  0.00     0.220 C
HETATM    2  O2  UNL     1     -46.071  -0.986   2.008  1.00  0.00    -0.273 OA
HETATM    3  N3  UNL     1     -44.020  -1.421   3.050  1.00  0.00    -0.349 N
HETATM    4  C10 UNL     1     -43.544  -2.092   1.849  1.00  0.00     0.145 C
HETATM    5  C11 UNL     1     -42.030  -2.095   1.787  1.00  0.00     0.143 C
HETATM    6  N4  UNL     1     -41.474  -2.641   3.033  1.00  0.00    -0.378 N
HETATM    7  C18 UNL     1     -42.308  -2.632   4.201  1.00  0.00     0.143 C
HETATM    8  C19 UNL     1     -43.141  -1.342   4.176  1.00  0.00     0.145 C
ENDROOT
BRANCH   1   9
HETATM    9  C8  UNL     1     -45.877  -0.172   4.247  1.00  0.00     0.108 C
BRANCH   9  10
HETATM   10  C7  UNL     1     -46.739  -1.109   5.020  1.00  0.00     0.056 C
BRANCH  10  11
HETATM   11  C6  UNL     1     -46.121  -1.827   6.131  1.00  0.00     0.037 A
HETATM   12  C4  UNL     1     -45.833  -1.339   7.376  1.00  0.00     0.060 A
HETATM   13  N1  UNL     1     -45.212  -2.382   8.020  1.00  0.00    -0.299 N
HETATM   14  N2  UNL     1     -45.130  -3.431   7.229  1.00  0.00    -0.266 N
ATOM     15  H1  UNL     1     -44.864  -2.348   8.978  1.00  0.00     0.186 HD
HETATM   16  C5  UNL     1     -45.670  -3.152   6.058  1.00  0.00     0.268 A
ATOM     17  H2  UNL     1     -44.711  -4.325   7.483  1.00  0.00     0.190 HD
HETATM   18  O1  UNL     1     -45.796  -3.880   5.021  1.00  0.00    -0.266 OA
BRANCH  12  19
HETATM   19  C2  UNL     1     -46.100  -0.068   8.050  1.00  0.00     0.074 C
HETATM   20  C1  UNL     1     -44.995   0.921   7.684  1.00  0.00     0.039 C
HETATM   21  C3  UNL     1     -45.879  -0.332   9.550  1.00  0.00     0.039 C
HETATM   22 CL1  UNL     1     -47.679   0.635   7.860  1.00  0.00    -0.113 Cl
ENDBRANCH  12  19
ENDBRANCH  10  11
ENDBRANCH   9  10
ENDBRANCH   1   9
BRANCH   6  23
HETATM   23  C12 UNL     1     -40.150  -3.128   2.963  1.00  0.00     0.033 A
HETATM   24  C13 UNL     1     -39.602  -3.959   3.901  1.00  0.00     0.053 A
HETATM   25  C14 UNL     1     -38.300  -4.425   3.825  1.00  0.00     0.037 A
HETATM   26 CL2  UNL     1     -37.631  -5.486   5.042  1.00  0.00    -0.084 Cl
HETATM   27  C15 UNL     1     -37.494  -4.054   2.770  1.00  0.00     0.048 A
HETATM   28  C16 UNL     1     -38.028  -3.212   1.806  1.00  0.00     0.037 A
HETATM   29 CL3  UNL     1     -36.994  -2.758   0.484  1.00  0.00    -0.084 Cl
HETATM   30  C17 UNL     1     -39.350  -2.756   1.909  1.00  0.00     0.053 A
ENDBRANCH   6  23
TORSDOF 5
ENDMDL