MODEL 5
REMARK VINA RESULT: -7.451904066      1.220      1.593
REMARK  5 active torsions:
REMARK  status: ('A' for Active; 'I' for Inactive)
REMARK       I    between atoms: N2_6  and  C5_7
REMARK       I    between atoms: C5_7  and  N5_20
REMARK    1  A    between atoms: N3_8  and  C6_10
REMARK    2  A    between atoms: C7_12  and  S1_13
REMARK    3  A    between atoms: S1_13  and  C8_14
REMARK    4  A    between atoms: N5_20  and  C14_22
REMARK    5  A    between atoms: C14_22  and  C15_23
ROOT
HETATM    1  N1  UNL     1     -46.481  -1.211   9.315  1.00  0.00    -0.197 NA
HETATM    2  C1  UNL     1     -46.766  -1.229   8.201  1.00  0.00     0.064 C
HETATM    3  C2  UNL     1     -47.117  -1.267   6.754  1.00  0.00     0.096 C
HETATM    4  C3  UNL     1     -46.256  -0.278   6.053  1.00  0.00     0.039 C
HETATM    5  C4  UNL     1     -46.482  -0.501   4.542  1.00  0.00     0.142 C
HETATM    6  N2  UNL     1     -45.883  -1.786   4.312  1.00  0.00    -0.218 N
HETATM    7  C5  UNL     1     -44.836  -1.909   3.327  1.00  0.00     0.677 C
HETATM    8  N3  UNL     1     -45.185  -1.731   2.155  1.00  0.00    -0.179 N
ATOM      9  H3  UNL     1     -46.184  -1.528   2.129  1.00  0.00     0.185 HD
HETATM   10  N5  UNL     1     -43.528  -2.197   3.858  1.00  0.00    -0.222 N
ATOM     11  H5  UNL     1     -43.310  -3.114   4.246  1.00  0.00     0.177 HD
HETATM   12  C16 UNL     1     -46.282  -2.948   5.047  1.00  0.00     0.142 C
HETATM   13  C17 UNL     1     -47.144  -2.643   6.227  1.00  0.00     0.039 C
ENDROOT
BRANCH   8  14
HETATM   14  C6  UNL     1     -44.715  -1.716   0.949  1.00  0.00     0.138 C
HETATM   15  N4  UNL     1     -46.288  -1.463   0.432  1.00  0.00    -0.082 NA
HETATM   16  C7  UNL     1     -44.209  -1.699  -0.360  1.00  0.00     0.091 C
BRANCH  16  17
HETATM   17  S1  UNL     1     -42.614  -2.652  -0.385  1.00  0.00    -0.133 SA
BRANCH  17  18
HETATM   18  C8  UNL     1     -41.685  -1.966  -1.808  1.00  0.00     0.052 C
HETATM   19  C9  UNL     1     -41.207  -3.113  -2.665  1.00  0.00     0.015 C
HETATM   20  C10 UNL     1     -40.046  -3.806  -1.961  1.00  0.00     0.001 C
HETATM   21  C11 UNL     1     -38.934  -2.746  -1.927  1.00  0.00     0.000 C
HETATM   22  C12 UNL     1     -39.352  -1.729  -0.898  1.00  0.00     0.001 C
HETATM   23  C13 UNL     1     -40.627  -1.061  -1.307  1.00  0.00     0.015 C
ENDBRANCH  17  18
ENDBRANCH  16  17
ENDBRANCH   8  14
BRANCH  10  24
HETATM   24  C14 UNL     1     -42.534  -1.152   3.825  1.00  0.00     0.197 C
BRANCH  24  25
HETATM   25  C15 UNL     1     -41.128  -1.629   4.012  1.00  0.00     0.204 C
HETATM   26 CL1  UNL     1     -41.192  -3.214   4.856  1.00  0.00    -0.082 Cl
HETATM   27 CL2  UNL     1     -40.300  -1.887   2.453  1.00  0.00    -0.082 Cl
HETATM   28 CL3  UNL     1     -40.139  -0.519   4.965  1.00  0.00    -0.082 Cl
ENDBRANCH  24  25
ENDBRANCH  10  24
TORSDOF 5
ENDMDL