MODEL 1
REMARK VINA RESULT: -10.571793799      0.000      0.000
REMARK  4 active torsions:
REMARK  status: ('A' for Active; 'I' for Inactive)
REMARK    1  A    between atoms: C2_3  and  C3_4
REMARK    2  A    between atoms: N1_5  and  C4_7
REMARK    3  A    between atoms: N3_14  and  C8_16
REMARK    4  A    between atoms: C8_16  and  C9_17
ROOT
HETATM    1  C4  UNL     1     -37.625  -4.612   3.104  1.00  0.00     0.683 A
HETATM    2  N2  UNL     1     -38.176  -4.495   4.342  1.00  0.00    -0.200 N
ATOM      3  H2  UNL     1     -39.039  -3.966   4.462  1.00  0.00     0.183 HD
HETATM    4  C5  UNL     1     -37.594  -5.072   5.413  1.00  0.00     0.133 A
HETATM    5  C6  UNL     1     -36.422  -5.804   5.287  1.00  0.00     0.094 A
HETATM    6 CL2  UNL     1     -35.681  -6.498   6.717  1.00  0.00    -0.079 Cl
HETATM    7  C7  UNL     1     -35.858  -5.938   4.044  1.00  0.00     0.144 A
HETATM    8  N3  UNL     1     -34.664  -6.285   3.790  1.00  0.00    -0.348 N
ATOM      9  H3  UNL     1     -34.414  -6.351   2.804  1.00  0.00     0.167 HD
HETATM   10  N4  UNL     1     -36.476  -5.340   2.968  1.00  0.00    -0.175 N
ATOM     11  H4  UNL     1     -36.062  -5.443   2.041  1.00  0.00     0.186 HD
ENDROOT
BRANCH   1  12
HETATM   12  N1  UNL     1     -37.973  -3.841   2.250  1.00  0.00    -0.201 N
HETATM   13  C3  UNL     1     -37.900  -2.860   1.305  1.00  0.00     0.119 C
ATOM     14  H1  UNL     1     -38.967  -4.065   2.199  1.00  0.00     0.183 HD
BRANCH  13  15
HETATM   15  C2  UNL     1     -39.302  -2.727   0.756  1.00  0.00     0.004 A
HETATM   16  C1  UNL     1     -40.292  -2.078   1.515  1.00  0.00     0.068 A
HETATM   17 CL1  UNL     1     -39.849  -1.580   3.109  1.00  0.00    -0.082 Cl
HETATM   18  C17 UNL     1     -41.585  -1.890   0.978  1.00  0.00     0.063 A
HETATM   19  C16 UNL     1     -41.848  -2.342  -0.277  1.00  0.00    -0.028 A
HETATM   20 CL3  UNL     1     -42.824  -1.138   1.987  1.00  0.00    -0.082 Cl
HETATM   21  C15 UNL     1     -40.885  -2.962  -1.032  1.00  0.00    -0.049 A
HETATM   22  C18 UNL     1     -43.146  -2.413  -1.067  1.00  0.00     0.041 C
HETATM   23  C14 UNL     1     -39.644  -3.131  -0.478  1.00  0.00     0.022 A
HETATM   24  C20 UNL     1     -41.393  -3.222  -2.432  1.00  0.00     0.039 C
HETATM   25  C19 UNL     1     -42.610  -2.265  -2.468  1.00  0.00     0.009 C
ENDBRANCH  13  15
ENDBRANCH   1  12
BRANCH   8  26
HETATM   26  C8  UNL     1     -33.650  -6.587   4.709  1.00  0.00     0.122 C
BRANCH  26  27
HETATM   27  C9  UNL     1     -32.448  -5.708   4.362  1.00  0.00     0.061 C
HETATM   28  C10 UNL     1     -31.405  -5.566   5.386  1.00  0.00     0.066 C
HETATM   29  C11 UNL     1     -30.078  -6.035   4.740  1.00  0.00     0.009 C
HETATM   30  C12 UNL     1     -30.468  -7.231   3.943  1.00  0.00     0.027 C
HETATM   31  C13 UNL     1     -31.240  -6.773   2.725  1.00  0.00     0.175 C
HETATM   32  O1  UNL     1     -32.140  -5.735   3.033  1.00  0.00    -0.354 OA
ENDBRANCH  26  27
ENDBRANCH   8  26
TORSDOF 4
ENDMDL