MODEL 5
REMARK VINA RESULT: -8.226624608      3.734      8.564
REMARK  5 active torsions:
REMARK  status: ('A' for Active; 'I' for Inactive)
REMARK    1  A    between atoms: C1_2  and  C2_3
REMARK       I    between atoms: C1_2  and  N3_22
REMARK    2  A    between atoms: C2_3  and  C3_4
REMARK    3  A    between atoms: C3_4  and  C4_5
REMARK       I    between atoms: N1_8  and  C7_9
REMARK       I    between atoms: C7_9  and  N2_11
REMARK    4  A    between atoms: N2_11  and  C8_13
REMARK    5  A    between atoms: C17_24  and  N4_25
ROOT
HETATM    1  C3  UNL     1      -6.947  11.383   1.198  1.00  0.00     0.014 C
ENDROOT
BRANCH   1   2
HETATM    2  C2  UNL     1      -8.421  11.345   1.403  1.00  0.00     0.103 C
BRANCH   2   3
HETATM    3  C1  UNL     1      -8.920  10.092   0.771  1.00  0.00     0.219 C
HETATM    4  O1  UNL     1      -9.028   9.976  -0.496  1.00  0.00    -0.273 OA
HETATM    5  N3  UNL     1      -9.303   8.952   1.519  1.00  0.00    -0.348 N
HETATM    6  C16 UNL     1      -9.804   7.620   1.325  1.00  0.00     0.153 C
HETATM    7  C25 UNL     1      -9.337   8.677   2.961  1.00  0.00     0.153 C
HETATM    8  C17 UNL     1      -9.280   7.201   2.695  1.00  0.00     0.127 C
BRANCH   8   9
HETATM    9  N4  UNL     1     -10.231   6.435   3.475  1.00  0.00    -0.333 N
HETATM   10  C18 UNL     1     -11.525   6.235   3.202  1.00  0.00     0.184 A
HETATM   11  N5  UNL     1     -12.088   5.479   4.146  1.00  0.00    -0.350 N
HETATM   12  C19 UNL     1     -11.130   5.192   5.040  1.00  0.00     0.060 A
ATOM     13  H5  UNL     1     -13.062   5.176   4.181  1.00  0.00     0.166 HD
HETATM   14  C20 UNL     1     -11.120   4.458   6.211  1.00  0.00     0.032 A
HETATM   15  C24 UNL     1      -9.966   5.790   4.623  1.00  0.00     0.062 A
HETATM   16  C21 UNL     1      -9.975   4.317   6.959  1.00  0.00     0.002 A
HETATM   17  C22 UNL     1      -8.813   4.920   6.531  1.00  0.00     0.002 A
HETATM   18  C23 UNL     1      -8.809   5.649   5.375  1.00  0.00     0.032 A
ENDBRANCH   8   9
ENDBRANCH   2   3
ENDBRANCH   1   2
BRANCH   1  19
HETATM   19  C4  UNL     1      -6.108  10.589   2.113  1.00  0.00    -0.008 C
HETATM   20  C5  UNL     1      -6.645  10.385   3.502  1.00  0.00     0.025 C
HETATM   21  C6  UNL     1      -5.912   9.188   4.072  1.00  0.00     0.131 C
HETATM   22  N1  UNL     1      -4.507   9.537   4.142  1.00  0.00    -0.303 N
HETATM   23  C7  UNL     1      -3.862   9.503   5.394  1.00  0.00     0.320 C
HETATM   24  C14 UNL     1      -3.848   9.902   2.912  1.00  0.00     0.275 C
HETATM   25  O2  UNL     1      -4.549   9.180   6.428  1.00  0.00    -0.247 OA
HETATM   26  N2  UNL     1      -2.492   9.796   5.623  1.00  0.00    -0.338 N
ATOM     27  H2  UNL     1      -1.914  10.057   4.824  1.00  0.00     0.164 HD
HETATM   28  F1  UNL     1      -3.870   8.833   2.002  1.00  0.00    -0.227 F
HETATM   29  C15 UNL     1      -4.662  10.996   2.214  1.00  0.00     0.064 C
BRANCH  26  30
HETATM   30  C8  UNL     1      -1.878   9.747   6.919  1.00  0.00     0.086 C
HETATM   31  C9  UNL     1      -0.569   8.960   6.882  1.00  0.00     0.025 C
HETATM   32  C10 UNL     1       0.438   9.800   6.147  1.00  0.00     0.002 C
HETATM   33  C11 UNL     1       0.820  10.986   6.986  1.00  0.00     0.000 C
HETATM   34  C12 UNL     1      -0.258  11.353   7.940  1.00  0.00     0.002 C
HETATM   35  C13 UNL     1      -1.658  11.132   7.421  1.00  0.00     0.025 C
ENDBRANCH  26  30
ENDBRANCH   1  19
TORSDOF 5
ENDMDL