MODEL 4
REMARK VINA RESULT: -8.208422617      4.298      6.219
REMARK  8 active torsions:
REMARK  status: ('A' for Active; 'I' for Inactive)
REMARK    1  A    between atoms: O1_1  and  C1_3
REMARK    2  A    between atoms: C1_3  and  C2_4
REMARK    3  A    between atoms: C1_3  and  N2_27
REMARK    4  A    between atoms: C6_8  and  O2_9
REMARK    5  A    between atoms: O2_9  and  C7_10
REMARK    6  A    between atoms: C7_10  and  C8_11
REMARK       I    between atoms: N1_14  and  C11_15
REMARK    7  A    between atoms: C11_15  and  C12_17
REMARK    8  A    between atoms: C23_30  and  O4_31
ROOT
HETATM    1  C2  UNL     1      -9.011   8.222   3.210  1.00  0.00     0.017 A
HETATM    2  C3  UNL     1     -10.136   8.983   3.294  1.00  0.00     0.016 A
HETATM    3  C4  UNL     1     -10.532   9.861   2.273  1.00  0.00     0.004 A
HETATM    4  C5  UNL     1      -9.774   9.979   1.131  1.00  0.00     0.037 A
HETATM    5  C6  UNL     1      -8.629   9.225   1.012  1.00  0.00     0.069 A
HETATM    6  C20 UNL     1      -8.276   8.385   2.019  1.00  0.00     0.052 A
ENDROOT
BRANCH   5   7
HETATM    7  O2  UNL     1      -7.896   9.377  -0.156  1.00  0.00    -0.351 OA
BRANCH   7   8
HETATM    8  C7  UNL     1      -7.017  10.486  -0.234  1.00  0.00     0.181 C
BRANCH   8   9
HETATM    9  C8  UNL     1      -7.333  11.202  -1.531  1.00  0.00     0.031 C
HETATM   10  C9  UNL     1      -7.906  10.227  -2.516  1.00  0.00     0.028 C
HETATM   11  C10 UNL     1      -8.408  11.088  -3.694  1.00  0.00     0.126 C
HETATM   12  N1  UNL     1      -9.574  11.763  -3.211  1.00  0.00    -0.350 N
HETATM   13  C11 UNL     1     -10.694  11.985  -4.020  1.00  0.00     0.224 C
HETATM   14  C18 UNL     1      -9.600  12.231  -1.841  1.00  0.00     0.146 C
HETATM   15  O3  UNL     1     -11.740  12.581  -3.567  1.00  0.00    -0.273 OA
HETATM   16  C19 UNL     1      -8.225  12.367  -1.245  1.00  0.00     0.106 C
HETATM   17 CL1  UNL     1      -7.504  13.890  -1.817  1.00  0.00    -0.123 Cl
BRANCH  13  18
HETATM   18  C12 UNL     1     -10.724  11.548  -5.425  1.00  0.00     0.078 C
HETATM   19  C13 UNL     1     -10.066  12.594  -6.278  1.00  0.00     0.014 C
HETATM   20  C14 UNL     1     -11.071  13.676  -6.683  1.00  0.00     0.001 C
HETATM   21  C15 UNL     1     -12.111  13.087  -7.580  1.00  0.00     0.000 C
HETATM   22  C16 UNL     1     -12.310  11.605  -7.344  1.00  0.00     0.001 C
HETATM   23  C17 UNL     1     -12.155  11.280  -5.859  1.00  0.00     0.014 C
ENDBRANCH  13  18
ENDBRANCH   8   9
ENDBRANCH   7   8
ENDBRANCH   5   7
BRANCH   1  24
HETATM   24  C1  UNL     1      -8.530   7.283   4.197  1.00  0.00     0.148 C
BRANCH  24  25
HETATM   25  O1  UNL     1      -7.327   7.536   4.685  1.00  0.00    -0.346 OA
ATOM     26  H1  UNL     1      -6.668   6.874   4.511  1.00  0.00     0.219 HD
ENDBRANCH  24  25
BRANCH  24  27
HETATM   27  N2  UNL     1      -9.093   6.140   4.746  1.00  0.00    -0.361 N
HETATM   28  C21 UNL     1      -9.915   5.303   3.849  1.00  0.00     0.127 C
HETATM   29  C22 UNL     1     -11.296   5.199   4.432  1.00  0.00     0.051 C
HETATM   30  C23 UNL     1     -11.242   4.844   5.880  1.00  0.00     0.121 C
HETATM   31  C24 UNL     1      -9.856   4.482   6.310  1.00  0.00     0.051 C
HETATM   32  C25 UNL     1      -8.959   5.724   6.098  1.00  0.00     0.127 C
BRANCH  30  33
HETATM   33  O4  UNL     1     -12.085   3.735   6.133  1.00  0.00    -0.395 OA
ATOM     34  H4  UNL     1     -11.595   3.053   6.577  1.00  0.00     0.210 HD
ENDBRANCH  30  33
ENDBRANCH  24  27
ENDBRANCH   1  24
TORSDOF 8
ENDMDL