MODEL 2
REMARK VINA RESULT: -8.590903173      1.461      2.233
REMARK  5 active torsions:
REMARK  status: ('A' for Active; 'I' for Inactive)
REMARK    1  A    between atoms: C5_5  and  C6_6
REMARK    2  A    between atoms: C6_6  and  N1_7
REMARK       I    between atoms: N1_7  and  C7_9
REMARK    3  A    between atoms: C7_9  and  C8_11
REMARK    4  A    between atoms: C11_14  and  C12_15
REMARK    5  A    between atoms: C12_15  and  N2_16
ROOT
HETATM    1  C6  UNL     1      -8.046  10.871   0.041  1.00  0.00     0.161 C
ENDROOT
BRANCH   1   2
HETATM    2  C5  UNL     1      -8.787  11.118  -1.232  1.00  0.00    -0.040 A
HETATM    3  C4  UNL     1      -9.821  11.999  -1.294  1.00  0.00     0.019 A
HETATM    4  C3  UNL     1     -10.483  12.193  -2.489  1.00  0.00    -0.017 A
HETATM    5  C2  UNL     1     -11.601  13.200  -2.399  1.00  0.00     0.057 C
HETATM    6  C21 UNL     1     -10.141  11.523  -3.648  1.00  0.00     0.075 A
HETATM    7  C1  UNL     1     -11.105  14.567  -2.689  1.00  0.00     0.018 C
HETATM    8  C26 UNL     1     -12.788  12.752  -3.157  1.00  0.00     0.116 C
HETATM    9  C23 UNL     1     -12.799  12.900  -4.611  1.00  0.00     0.011 C
HETATM   10  C27 UNL     1     -14.000  13.489  -2.565  1.00  0.00     0.053 C
HETATM   11  F1  UNL     1     -13.006  11.408  -2.810  1.00  0.00    -0.242 F
HETATM   12  C22 UNL     1     -11.481  12.764  -5.325  1.00  0.00     0.187 C
HETATM   13  C24 UNL     1     -13.442  14.175  -5.127  1.00  0.00     0.020 C
HETATM   14  C25 UNL     1     -13.660  11.753  -5.179  1.00  0.00     0.020 C
HETATM   15  O3  UNL     1     -10.733  11.630  -4.921  1.00  0.00    -0.350 OA
HETATM   16  C20 UNL     1      -9.100  10.632  -3.595  1.00  0.00     0.038 A
HETATM   17  C19 UNL     1      -8.436  10.436  -2.403  1.00  0.00     0.011 A
ENDBRANCH   1   2
BRANCH   1  18
HETATM   18  N1  UNL     1      -8.879  10.291   1.049  1.00  0.00    -0.356 N
HETATM   19  C7  UNL     1      -8.404   9.444   2.084  1.00  0.00     0.222 C
HETATM   20  O1  UNL     1      -7.186   9.189   2.114  1.00  0.00    -0.273 OA
ATOM     21  H1  UNL     1      -9.877  10.501   1.022  1.00  0.00     0.162 HD
BRANCH  19  22
HETATM   22  C8  UNL     1      -9.301   8.860   3.117  1.00  0.00     0.078 C
HETATM   23  C9  UNL     1     -10.455   8.255   2.415  1.00  0.00     0.014 C
HETATM   24  C10 UNL     1     -10.496   6.788   2.269  1.00  0.00     0.007 C
HETATM   25  C11 UNL     1      -9.818   5.982   3.322  1.00  0.00     0.014 C
HETATM   26  C17 UNL     1      -8.506   6.531   3.740  1.00  0.00     0.007 C
HETATM   27  C18 UNL     1      -8.476   7.998   3.985  1.00  0.00     0.014 C
BRANCH  25  28
HETATM   28  C12 UNL     1     -10.733   5.710   4.513  1.00  0.00     0.277 C
BRANCH  28  29
HETATM   29  N2  UNL     1      -9.987   5.432   5.705  1.00  0.00     0.092 N
HETATM   30  C13 UNL     1      -9.758   4.028   5.917  1.00  0.00     0.298 C
HETATM   31  C14 UNL     1      -9.100   3.889   7.283  1.00  0.00     0.198 C
HETATM   32  O2  UNL     1      -8.715   5.136   7.790  1.00  0.00    -0.388 OA
HETATM   33  C15 UNL     1      -9.811   5.963   8.039  1.00  0.00     0.198 C
HETATM   34  C16 UNL     1     -10.747   5.908   6.849  1.00  0.00     0.298 C
ENDBRANCH  28  29
ENDBRANCH  25  28
ENDBRANCH  19  22
ENDBRANCH   1  18
TORSDOF 5
ENDMDL