MODEL 5
REMARK VINA RESULT: -7.214524799      2.797      4.787
REMARK  8 active torsions:
REMARK  status: ('A' for Active; 'I' for Inactive)
REMARK    1  A    between atoms: C7_7  and  N1_8
REMARK       I    between atoms: N1_8  and  C8_10
REMARK    2  A    between atoms: C8_10  and  C9_12
REMARK    3  A    between atoms: C9_12  and  O2_13
REMARK    4  A    between atoms: O2_13  and  C10_14
REMARK    5  A    between atoms: C11_15  and  S1_16
REMARK    6  A    between atoms: C14_23  and  C15_24
REMARK    7  A    between atoms: C16_25  and  C17_26
REMARK    8  A    between atoms: C20_29  and  C21_30
ROOT
HETATM    1  C10 UNL     1      -7.262   9.994   2.239  1.00  0.00     0.101 A
HETATM    2  C11 UNL     1      -5.998  10.159   2.787  1.00  0.00     0.103 A
HETATM    3  C13 UNL     1      -5.615   9.300   3.782  1.00  0.00     0.126 A
HETATM    4 CL1  UNL     1      -4.007   9.521   4.470  1.00  0.00    -0.063 Cl
HETATM    5  N2  UNL     1      -6.439   8.344   4.197  1.00  0.00    -0.338 N
ATOM      6  H2  UNL     1      -6.121   7.723   4.942  1.00  0.00     0.167 HD
HETATM    7  C14 UNL     1      -7.706   8.145   3.675  1.00  0.00     0.097 A
HETATM    8  C20 UNL     1      -8.143   8.964   2.685  1.00  0.00     0.020 A
ENDROOT
BRANCH   1   9
HETATM    9  O2  UNL     1      -7.578  10.869   1.257  1.00  0.00    -0.340 OA
BRANCH   9  10
HETATM   10  C9  UNL     1      -7.357  10.735  -0.111  1.00  0.00     0.278 C
BRANCH  10  11
HETATM   11  C8  UNL     1      -7.846  11.940  -0.870  1.00  0.00     0.242 C
HETATM   12  N1  UNL     1      -9.092  11.913  -1.504  1.00  0.00    -0.354 N
ATOM     13  H1  UNL     1      -9.641  11.057  -1.430  1.00  0.00     0.162 HD
HETATM   14  O1  UNL     1      -7.096  12.935  -0.900  1.00  0.00    -0.271 OA
BRANCH  12  15
HETATM   15  C7  UNL     1      -9.657  13.010  -2.256  1.00  0.00     0.088 C
HETATM   16  C2  UNL     1      -9.762  12.682  -3.732  1.00  0.00     0.004 C
HETATM   17  C1  UNL     1      -8.400  12.681  -4.405  1.00  0.00     0.012 C
HETATM   18  C3  UNL     1     -10.593  13.744  -4.415  1.00  0.00     0.006 C
HETATM   19  C4  UNL     1     -12.040  13.566  -4.002  1.00  0.00     0.001 C
HETATM   20  C5  UNL     1     -12.142  13.024  -2.597  1.00  0.00     0.002 C
HETATM   21  C6  UNL     1     -10.972  13.477  -1.739  1.00  0.00     0.025 C
ENDBRANCH  12  15
ENDBRANCH  10  11
ENDBRANCH   9  10
ENDBRANCH   1   9
BRANCH   2  22
HETATM   22  S1  UNL     1      -4.900  11.420   2.213  1.00  0.00     0.051 S
HETATM   23  C12 UNL     1      -5.759  12.976   2.128  1.00  0.00     0.133 C
HETATM   24  O3  UNL     1      -4.428  10.969   0.650  1.00  0.00    -0.253 OA
ENDBRANCH   2  22
BRANCH   8  25
HETATM   25  C21 UNL     1      -9.419   8.796   2.030  1.00  0.00    -0.018 C
HETATM   26  C22 UNL     1      -9.454   8.980   0.550  1.00  0.00     0.019 C
HETATM   27  C23 UNL     1     -10.471   9.771   2.654  1.00  0.00     0.019 C
HETATM   28  C24 UNL     1     -10.067   7.407   2.223  1.00  0.00     0.019 C
ENDBRANCH   8  25
BRANCH   7  29
HETATM   29  C15 UNL     1      -8.398   7.056   4.310  1.00  0.00    -0.048 C
HETATM   30  C16 UNL     1      -8.914   6.141   4.854  1.00  0.00    -0.095 C
BRANCH  30  31
HETATM   31  C17 UNL     1      -9.574   5.019   5.517  1.00  0.00     0.065 A
HETATM   32  C18 UNL     1     -10.466   5.386   6.653  1.00  0.00     0.018 A
HETATM   33  C19 UNL     1      -9.162   4.669   6.939  1.00  0.00     0.018 A
ENDBRANCH  30  31
ENDBRANCH   7  29
TORSDOF 8
ENDMDL