MODEL 2
REMARK VINA RESULT: -8.617775859      6.058     10.161
REMARK  5 active torsions:
REMARK  status: ('A' for Active; 'I' for Inactive)
REMARK    1  A    between atoms: C1_4  and  C2_5
REMARK       I    between atoms: C2_5  and  N2_7
REMARK    2  A    between atoms: N3_13  and  C8_14
REMARK    3  A    between atoms: C11_17  and  C12_18
REMARK    4  A    between atoms: C12_18  and  C13_19
REMARK    5  A    between atoms: N4_22  and  C16_23
ROOT
HETATM    1  C8  UNL     1      -5.056   9.382   4.616  1.00  0.00     0.076 A
HETATM    2  C9  UNL     1      -5.330   9.270   5.960  1.00  0.00     0.033 A
HETATM    3  C10 UNL     1      -4.451   9.610   6.963  1.00  0.00     0.009 A
HETATM    4  C11 UNL     1      -3.206  10.098   6.664  1.00  0.00    -0.055 A
HETATM    5  C24 UNL     1      -2.897  10.223   5.303  1.00  0.00     0.051 A
HETATM    6  C25 UNL     1      -3.779   9.881   4.315  1.00  0.00     0.143 A
HETATM    7  F1  UNL     1      -3.376  10.035   3.026  1.00  0.00    -0.204 F
ENDROOT
BRANCH   1   8
HETATM    8  N3  UNL     1      -5.945   9.057   3.573  1.00  0.00    -0.313 N
HETATM    9  C7  UNL     1      -5.790   9.232   2.107  1.00  0.00     0.139 C
HETATM   10  C6  UNL     1      -7.230   9.512   1.788  1.00  0.00     0.036 C
HETATM   11  C5  UNL     1      -7.680   9.475   0.397  1.00  0.00     0.010 C
HETATM   12  C27 UNL     1      -7.814   8.231   2.485  1.00  0.00     0.185 C
HETATM   13  C4  UNL     1      -9.170   9.907   0.428  1.00  0.00     0.020 C
HETATM   14  C3  UNL     1      -9.749   9.583   1.801  1.00  0.00     0.127 C
HETATM   15  N2  UNL     1      -9.193   8.302   2.276  1.00  0.00    -0.334 N
HETATM   16  C2  UNL     1     -10.096   7.252   2.477  1.00  0.00     0.259 C
HETATM   17  O1  UNL     1     -11.359   7.472   2.293  1.00  0.00    -0.267 OA
HETATM   18  C26 UNL     1      -7.254   8.481   3.811  1.00  0.00     0.247 C
HETATM   19  O2  UNL     1      -7.730   8.275   4.945  1.00  0.00    -0.271 OA
BRANCH  16  20
HETATM   20  C1  UNL     1      -9.723   5.916   2.876  1.00  0.00     0.155 C
HETATM   21  N1  UNL     1      -9.418   5.516   4.054  1.00  0.00    -0.404 N
ATOM     22  H12 UNL     1      -9.446   6.234   4.777  1.00  0.00     0.155 HD
ATOM     23  H11 UNL     1      -9.154   4.572   4.336  1.00  0.00     0.155 HD
ENDBRANCH  16  20
ENDBRANCH   1   8
BRANCH   4  24
HETATM   24  C12 UNL     1      -2.217  10.507   7.678  1.00  0.00     0.043 C
BRANCH  24  25
HETATM   25  C13 UNL     1      -0.817  10.391   7.207  1.00  0.00    -0.007 C
HETATM   26  C14 UNL     1      -0.276   8.988   7.122  1.00  0.00     0.024 C
HETATM   27  C15 UNL     1       1.224   9.064   6.889  1.00  0.00     0.117 C
HETATM   28  N4  UNL     1       1.639  10.284   6.291  1.00  0.00    -0.408 N
HETATM   29  C22 UNL     1       1.326  11.485   6.980  1.00  0.00     0.117 C
HETATM   30  C23 UNL     1       0.172  11.240   7.965  1.00  0.00     0.024 C
BRANCH  28  31
HETATM   31  C16 UNL     1       1.629  10.320   4.869  1.00  0.00     0.079 C
HETATM   32  C17 UNL     1       1.069  11.596   4.286  1.00  0.00     0.025 C
HETATM   33  C18 UNL     1       1.687  11.918   2.929  1.00  0.00     0.002 C
HETATM   34  C19 UNL     1       2.014  10.692   2.134  1.00  0.00     0.000 C
HETATM   35  C20 UNL     1       2.942   9.752   2.862  1.00  0.00     0.002 C
HETATM   36  C21 UNL     1       3.051  10.176   4.323  1.00  0.00     0.025 C
ENDBRANCH  28  31
ENDBRANCH  24  25
ENDBRANCH   4  24
TORSDOF 5
ENDMDL