MODEL 3
REMARK VINA RESULT: -8.605205827      1.608      1.985
REMARK  5 active torsions:
REMARK  status: ('A' for Active; 'I' for Inactive)
REMARK    1  A    between atoms: C2_2  and  N1_4
REMARK    2  A    between atoms: C6_7  and  O1_8
REMARK    3  A    between atoms: O1_8  and  C7_9
REMARK    4  A    between atoms: C12_15  and  C13_16
REMARK    5  A    between atoms: C16_19  and  N2_20
REMARK       I    between atoms: N2_20  and  C17_22
REMARK       I    between atoms: C17_22  and  N3_24
ROOT
HETATM    1  C7  UNL     1      -6.812   9.612   3.762  1.00  0.00     0.101 A
HETATM    2  C8  UNL     1      -6.014   9.290   4.862  1.00  0.00     0.068 A
HETATM    3 CL1  UNL     1      -6.711   8.737   6.344  1.00  0.00    -0.081 Cl
HETATM    4  C9  UNL     1      -4.652   9.386   4.785  1.00  0.00     0.027 A
HETATM    5  C10 UNL     1      -4.084   9.800   3.615  1.00  0.00     0.003 A
HETATM    6  C11 UNL     1      -4.871  10.105   2.553  1.00  0.00     0.014 A
HETATM    7  C12 UNL     1      -6.292  10.018   2.584  1.00  0.00     0.001 A
ENDROOT
BRANCH   7   8
HETATM    8  C13 UNL     1      -6.933  10.153   1.309  1.00  0.00    -0.067 C
HETATM    9  C14 UNL     1      -8.445  10.322   1.365  1.00  0.00     0.037 C
HETATM   10  C15 UNL     1      -9.165   9.645   0.256  1.00  0.00     0.029 C
HETATM   11  C16 UNL     1      -8.650   9.824  -1.121  1.00  0.00     0.086 C
HETATM   12  C22 UNL     1      -7.211  10.276  -1.087  1.00  0.00     0.029 C
HETATM   13  C23 UNL     1      -6.584   9.462   0.085  1.00  0.00     0.037 C
BRANCH  11  14
HETATM   14  N2  UNL     1      -9.498  10.656  -1.955  1.00  0.00    -0.338 N
HETATM   15  C17 UNL     1      -9.491  12.046  -1.889  1.00  0.00     0.318 C
HETATM   16  O2  UNL     1      -8.701  12.604  -1.045  1.00  0.00    -0.247 OA
HETATM   17  N3  UNL     1     -10.271  12.906  -2.663  1.00  0.00    -0.330 N
HETATM   18  C18 UNL     1     -10.234  14.364  -2.519  1.00  0.00     0.153 C
HETATM   19  C21 UNL     1     -11.167  12.409  -3.676  1.00  0.00     0.153 C
HETATM   20  C19 UNL     1     -11.686  14.813  -2.600  1.00  0.00     0.187 C
HETATM   21  O3  UNL     1     -12.536  13.760  -2.225  1.00  0.00    -0.388 OA
HETATM   22  C20 UNL     1     -12.579  12.761  -3.217  1.00  0.00     0.187 C
ATOM     23  H2  UNL     1     -10.126  10.202  -2.618  1.00  0.00     0.164 HD
ENDBRANCH  11  14
ENDBRANCH   7   8
BRANCH   1  24
HETATM   24  O1  UNL     1      -8.178   9.492   3.956  1.00  0.00    -0.343 OA
BRANCH  24  25
HETATM   25  C6  UNL     1      -8.682   8.178   4.053  1.00  0.00     0.132 C
HETATM   26  C5  UNL     1      -7.842   7.141   3.338  1.00  0.00     0.052 C
HETATM   27  C4  UNL     1      -8.287   5.764   3.839  1.00  0.00     0.119 C
HETATM   28  N1  UNL     1      -9.500   5.819   4.556  1.00  0.00    -0.409 N
HETATM   29  C25 UNL     1     -10.552   6.568   3.985  1.00  0.00     0.119 C
HETATM   30  C24 UNL     1     -10.092   7.928   3.598  1.00  0.00     0.052 C
BRANCH  28  31
HETATM   31  C2  UNL     1      -9.804   4.776   5.437  1.00  0.00     0.070 C
HETATM   32  C1  UNL     1      -9.230   4.907   6.826  1.00  0.00     0.031 C
HETATM   33  C3  UNL     1     -11.306   4.557   5.625  1.00  0.00     0.031 C
ENDBRANCH  28  31
ENDBRANCH  24  25
ENDBRANCH   1  24
TORSDOF 5
ENDMDL