MODEL 2
REMARK VINA RESULT: -7.950931423      1.959      4.499
REMARK  7 active torsions:
REMARK  status: ('A' for Active; 'I' for Inactive)
REMARK    1  A    between atoms: C4_4  and  S1_5
REMARK    2  A    between atoms: S1_5  and  C5_6
REMARK    3  A    between atoms: N1_12  and  C11_13
REMARK    4  A    between atoms: C11_13  and  O1_14
REMARK    5  A    between atoms: C11_13  and  C12_16
REMARK    6  A    between atoms: C12_16  and  N2_18
REMARK    7  A    between atoms: C15_21  and  N3_22
ROOT
HETATM    1  C1  UNL     1      -3.952   9.012   0.514  1.00  0.00     0.012 C
HETATM    2  C2  UNL     1      -4.749   9.164   1.744  1.00  0.00     0.013 C
HETATM    3  C3  UNL     1      -4.366  10.351   2.660  1.00  0.00     0.035 C
HETATM    4  C4  UNL     1      -5.398  10.356   3.768  1.00  0.00     0.159 C
HETATM    5  N1  UNL     1      -6.603  10.036   2.952  1.00  0.00    -0.343 N
HETATM    6  C22 UNL     1      -6.032  10.007   1.629  1.00  0.00     0.100 C
HETATM    7  C23 UNL     1      -5.098  11.161   1.663  1.00  0.00    -0.013 A
HETATM    8  C24 UNL     1      -4.642  12.035   0.658  1.00  0.00     0.013 A
HETATM    9  C25 UNL     1      -5.473  12.568   1.842  1.00  0.00     0.013 A
ENDROOT
BRANCH   5  10
HETATM   10  C11 UNL     1      -7.870   9.861   3.493  1.00  0.00     0.164 C
BRANCH  10  11
HETATM   11  O1  UNL     1      -7.969  10.295   4.731  1.00  0.00    -0.347 OA
ATOM     12  H1  UNL     1      -8.861  10.509   4.983  1.00  0.00     0.219 HD
ENDBRANCH  10  11
BRANCH  10  13
HETATM   13  C12 UNL     1      -9.106   9.307   2.991  1.00  0.00     0.392 C
HETATM   14 CL1  UNL     1      -9.574  10.168   1.474  1.00  0.00    -0.083 Cl
BRANCH  13  15
HETATM   15  N2  UNL     1      -9.223   7.891   2.819  1.00  0.00     0.115 N
HETATM   16  C13 UNL     1     -10.507   7.396   3.237  1.00  0.00     0.277 C
HETATM   17  C14 UNL     1     -10.695   5.916   3.187  1.00  0.00     0.066 C
HETATM   18  C15 UNL     1      -9.642   5.273   4.046  1.00  0.00     0.226 C
HETATM   19  C20 UNL     1      -8.310   5.696   3.532  1.00  0.00     0.066 C
HETATM   20  C21 UNL     1      -8.121   7.158   3.368  1.00  0.00     0.277 C
BRANCH  18  21
HETATM   21  N3  UNL     1      -9.912   5.523   5.401  1.00  0.00     0.093 N
HETATM   22  C16 UNL     1     -10.438   4.351   6.048  1.00  0.00     0.273 C
HETATM   23  C17 UNL     1      -9.592   4.080   7.246  1.00  0.00     0.032 C
HETATM   24  C18 UNL     1      -8.814   5.329   7.485  1.00  0.00     0.032 C
HETATM   25  C19 UNL     1      -8.866   6.064   6.189  1.00  0.00     0.273 C
ENDBRANCH  18  21
ENDBRANCH  13  15
ENDBRANCH  10  13
ENDBRANCH   5  10
BRANCH   4  26
HETATM   26  S1  UNL     1      -5.129   9.134   5.038  1.00  0.00    -0.104 SA
BRANCH  26  27
HETATM   27  C5  UNL     1      -3.912   9.666   6.202  1.00  0.00     0.002 A
HETATM   28  C6  UNL     1      -4.299  10.112   7.445  1.00  0.00     0.018 A
HETATM   29  C7  UNL     1      -3.304  10.564   8.327  1.00  0.00     0.001 A
HETATM   30  C8  UNL     1      -1.981  10.550   7.931  1.00  0.00     0.000 A
HETATM   31  C9  UNL     1      -1.603  10.100   6.680  1.00  0.00     0.001 A
HETATM   32  C10 UNL     1      -2.574   9.655   5.812  1.00  0.00     0.018 A
ENDBRANCH  26  27
ENDBRANCH   4  26
TORSDOF 7
ENDMDL