MODEL 3
REMARK VINA RESULT: -8.421485548      1.955      2.850
REMARK  5 active torsions:
REMARK  status: ('A' for Active; 'I' for Inactive)
REMARK    1  A    between atoms: C2_3  and  C3_4
REMARK       I    between atoms: C3_4  and  N2_6
REMARK    2  A    between atoms: N2_6  and  C4_8
REMARK    3  A    between atoms: C7_11  and  C8_12
REMARK    4  A    between atoms: C8_12  and  C9_13
REMARK    5  A    between atoms: C9_13  and  N3_14
ROOT
HETATM    1  N1  UNL     1     -11.051  15.729  -4.928  1.00  0.00    -0.196 NA
HETATM    2  C1  UNL     1     -10.781  15.506  -3.823  1.00  0.00     0.079 C
HETATM    3  C2  UNL     1     -10.433  15.238  -2.420  1.00  0.00     0.129 C
HETATM    4  C19 UNL     1      -9.032  15.695  -2.134  1.00  0.00     0.034 C
HETATM    5  C20 UNL     1      -8.833  17.130  -2.525  1.00  0.00     0.002 C
HETATM    6  C21 UNL     1      -9.767  17.975  -1.685  1.00  0.00     0.000 C
HETATM    7  C22 UNL     1     -11.190  17.507  -1.799  1.00  0.00     0.002 C
HETATM    8  C23 UNL     1     -11.359  16.048  -1.523  1.00  0.00     0.034 C
ENDROOT
BRANCH   3   9
HETATM    9  C3  UNL     1     -10.554  13.803  -2.099  1.00  0.00     0.240 C
HETATM   10  O1  UNL     1     -11.690  13.312  -1.926  1.00  0.00    -0.272 OA
HETATM   11  N2  UNL     1      -9.393  12.956  -1.981  1.00  0.00    -0.355 N
ATOM     12  H2  UNL     1      -8.473  13.372  -2.124  1.00  0.00     0.162 HD
BRANCH  11  13
HETATM   13  C4  UNL     1      -9.470  11.559  -1.671  1.00  0.00     0.084 C
HETATM   14  C5  UNL     1      -8.270  10.800  -2.237  1.00  0.00     0.025 C
HETATM   15  C6  UNL     1      -7.778   9.785  -1.223  1.00  0.00     0.007 C
HETATM   16  C7  UNL     1      -7.222  10.535  -0.060  1.00  0.00    -0.013 C
HETATM   17  C17 UNL     1      -8.258  11.437   0.525  1.00  0.00     0.007 C
HETATM   18  C18 UNL     1      -9.591  11.334  -0.181  1.00  0.00     0.025 C
BRANCH  16  19
HETATM   19  C8  UNL     1      -6.568   9.652   0.975  1.00  0.00     0.020 C
BRANCH  19  20
HETATM   20  C9  UNL     1      -7.293   9.659   2.289  1.00  0.00     0.108 C
BRANCH  20  21
HETATM   21  N3  UNL     1      -7.832   8.341   2.514  1.00  0.00    -0.202 NA
HETATM   22  C10 UNL     1      -7.758   7.958   3.907  1.00  0.00     0.147 C
HETATM   23  C11 UNL     1      -8.794   6.982   4.216  1.00  0.00    -0.020 A
HETATM   24  C12 UNL     1      -8.794   5.995   5.197  1.00  0.00     0.033 A
HETATM   25  C16 UNL     1      -9.917   7.063   3.438  1.00  0.00     0.082 A
HETATM   26  C13 UNL     1      -9.844   5.157   5.377  1.00  0.00     0.034 A
HETATM   27 CL1  UNL     1      -9.863   3.899   6.615  1.00  0.00    -0.084 Cl
HETATM   28  C14 UNL     1     -10.957   5.277   4.566  1.00  0.00     0.025 A
HETATM   29  C15 UNL     1     -10.993   6.245   3.582  1.00  0.00     0.027 A
HETATM   30  S1  UNL     1      -9.580   8.370   2.327  1.00  0.00     0.244 S
HETATM   31  O2  UNL     1      -9.973   8.061   0.936  1.00  0.00    -0.206 OA
HETATM   32  O3  UNL     1     -10.148   9.631   2.864  1.00  0.00    -0.206 OA
ENDBRANCH  20  21
ENDBRANCH  19  20
ENDBRANCH  16  19
ENDBRANCH  11  13
ENDBRANCH   3   9
TORSDOF 5
ENDMDL