MODEL 3
REMARK VINA RESULT: -6.929450067      2.468      5.053
REMARK  6 active torsions:
REMARK  status: ('A' for Active; 'I' for Inactive)
REMARK    1  A    between atoms: C3_3  and  C4_4
REMARK    2  A    between atoms: N1_9  and  C9_10
REMARK    3  A    between atoms: C9_10  and  C10_11
REMARK    4  A    between atoms: C10_11  and  C11_12
REMARK    5  A    between atoms: C21_24  and  C22_25
REMARK    6  A    between atoms: C26_30  and  C27_31
ROOT
HETATM    1  C11 UNL     1      -9.750  14.229  -2.770  1.00  0.00     0.053 C
HETATM    2  C12 UNL     1      -8.699  14.998  -2.144  1.00  0.00     0.069 C
HETATM    3  N2  UNL     1      -7.865  15.599  -1.627  1.00  0.00    -0.196 NA
HETATM    4  C13 UNL     1     -10.825  13.654  -1.925  1.00  0.00     0.025 C
HETATM    5  C14 UNL     1     -11.851  14.266  -2.892  1.00  0.00     0.004 C
HETATM    6  C15 UNL     1     -10.758  15.179  -3.400  1.00  0.00     0.025 C
ENDROOT
BRANCH   1   7
HETATM    7  C10 UNL     1      -9.215  13.330  -3.897  1.00  0.00     0.069 C
BRANCH   7   8
HETATM    8  C9  UNL     1      -8.212  12.400  -3.226  1.00  0.00     0.060 C
BRANCH   8   9
HETATM    9  N1  UNL     1      -8.736  11.109  -3.128  1.00  0.00    -0.383 N
HETATM   10  C4  UNL     1      -8.107  10.108  -2.363  1.00  0.00     0.136 C
HETATM   11  C5  UNL     1      -6.861   9.702  -3.124  1.00  0.00    -0.044 C
HETATM   12  C6  UNL     1      -7.334   8.822  -4.263  1.00  0.00     0.039 C
HETATM   13  C16 UNL     1      -5.663   9.322  -2.451  1.00  0.00    -0.024 A
HETATM   14  C7  UNL     1      -8.208   9.739  -5.134  1.00  0.00     0.024 C
HETATM   15  C8  UNL     1      -9.219  10.485  -4.331  1.00  0.00     0.123 C
HETATM   16  C17 UNL     1      -4.623   9.306  -3.379  1.00  0.00     0.015 A
HETATM   17  C21 UNL     1      -5.298   8.990  -1.162  1.00  0.00    -0.036 A
HETATM   18  C18 UNL     1      -3.337   8.986  -3.038  1.00  0.00     0.043 A
HETATM   19  C19 UNL     1      -3.007   8.664  -1.761  1.00  0.00     0.117 A
HETATM   20  F1  UNL     1      -1.736   8.342  -1.377  1.00  0.00    -0.206 F
HETATM   21  C20 UNL     1      -4.009   8.666  -0.805  1.00  0.00     0.051 A
BRANCH  10  22
HETATM   22  C3  UNL     1      -7.783  10.205  -0.978  1.00  0.00     0.115 C
HETATM   23  C2  UNL     1      -9.092  10.117  -0.209  1.00  0.00     0.019 C
HETATM   24  C1  UNL     1      -9.617  11.313   0.435  1.00  0.00     0.013 C
HETATM   25  C22 UNL     1      -8.821   8.936   0.684  1.00  0.00    -0.009 C
HETATM   26  C23 UNL     1      -9.904   8.843   1.728  1.00  0.00     0.021 C
HETATM   27  C24 UNL     1      -7.470   9.187   1.269  1.00  0.00     0.034 C
HETATM   28  C25 UNL     1      -6.867  10.545   1.051  1.00  0.00     0.124 C
HETATM   29  N3  UNL     1      -7.053  11.117  -0.249  1.00  0.00    -0.377 N
HETATM   30  C26 UNL     1      -6.650  12.329  -0.610  1.00  0.00     0.171 C
BRANCH  30  31
HETATM   31  C27 UNL     1      -5.798  13.091   0.323  1.00  0.00     0.214 C
HETATM   32  O1  UNL     1      -4.522  12.990   0.183  1.00  0.00    -0.644 OA
HETATM   33  O2  UNL     1      -6.183  13.908   1.345  1.00  0.00    -0.644 OA
ENDBRANCH  30  31
ENDBRANCH  10  22
ENDBRANCH   8   9
ENDBRANCH   7   8
ENDBRANCH   1   7
TORSDOF 6
ENDMDL