MODEL 3
REMARK VINA RESULT: -8.379924125      4.073      7.915
REMARK  7 active torsions:
REMARK  status: ('A' for Active; 'I' for Inactive)
REMARK    1  A    between atoms: C6_7  and  O2_8
REMARK    2  A    between atoms: N1_17  and  C14_18
REMARK    3  A    between atoms: C14_18  and  C15_19
REMARK    4  A    between atoms: C21_25  and  C22_26
REMARK    5  A    between atoms: C22_26  and  C23_27
REMARK    6  A    between atoms: C23_27  and  C24_28
REMARK    7  A    between atoms: C24_28  and  O3_29
ROOT
HETATM    1  C1  UNL     1      -4.150   7.642  -1.995  1.00  0.00     0.015 C
HETATM    2  C2  UNL     1      -4.409   9.011  -1.358  1.00  0.00     0.011 C
HETATM    3  C3  UNL     1      -4.172   8.786   0.083  1.00  0.00     0.012 C
HETATM    4  C4  UNL     1      -4.991   9.108   1.036  1.00  0.00     0.064 C
HETATM    5  O1  UNL     1      -5.096   9.044   2.442  1.00  0.00    -0.311 OA
HETATM    6  C5  UNL     1      -6.453   9.188   2.798  1.00  0.00     0.116 A
HETATM    7  C6  UNL     1      -7.221   9.162   3.943  1.00  0.00     0.100 A
HETATM    8  C7  UNL     1      -8.615   9.306   3.877  1.00  0.00     0.040 A
HETATM    9  C8  UNL     1      -9.248   9.479   2.635  1.00  0.00     0.011 A
HETATM   10  C9  UNL     1      -8.509   9.515   1.480  1.00  0.00    -0.046 A
HETATM   11  C10 UNL     1      -7.166   9.373   1.661  1.00  0.00     0.001 A
HETATM   12  C11 UNL     1      -6.251   9.756   0.594  1.00  0.00     0.049 C
HETATM   13  C12 UNL     1      -6.071  11.264   0.626  1.00  0.00     0.066 C
HETATM   14  C13 UNL     1      -7.336  11.945   0.231  1.00  0.00     0.065 C
HETATM   15  N1  UNL     1      -7.903  11.392  -0.910  1.00  0.00    -0.368 N
HETATM   16  C18 UNL     1      -8.083   9.975  -0.936  1.00  0.00     0.098 C
HETATM   17  C19 UNL     1      -9.082   9.637   0.136  1.00  0.00     0.065 C
HETATM   18  C20 UNL     1      -6.780   9.239  -0.693  1.00  0.00     0.034 C
HETATM   19  C21 UNL     1      -5.734   9.562  -1.730  1.00  0.00     0.000 C
ENDROOT
BRANCH  19  20
HETATM   20  C22 UNL     1      -6.145   9.256  -3.137  1.00  0.00     0.009 C
BRANCH  20  21
HETATM   21  C23 UNL     1      -6.179  10.498  -3.977  1.00  0.00     0.043 C
BRANCH  21  22
HETATM   22  C24 UNL     1      -7.077  10.272  -5.187  1.00  0.00     0.189 C
HETATM   23 BR1  UNL     1      -8.876   9.904  -4.582  1.00  0.00    -0.062 Br
BRANCH  22  24
HETATM   24  O3  UNL     1      -6.645   9.203  -5.957  1.00  0.00    -0.385 OA
ATOM     25  H3  UNL     1      -6.164   8.567  -5.440  1.00  0.00     0.211 HD
ENDBRANCH  22  24
ENDBRANCH  21  22
ENDBRANCH  20  21
ENDBRANCH  19  20
BRANCH  15  26
HETATM   26  C14 UNL     1      -8.686  12.158  -1.780  1.00  0.00     0.068 C
BRANCH  26  27
HETATM   27  C15 UNL     1     -10.109  12.420  -1.364  1.00  0.00     0.024 A
HETATM   28  C16 UNL     1     -10.832  13.636  -1.769  1.00  0.00     0.010 A
HETATM   29  C17 UNL     1     -11.164  12.345  -2.472  1.00  0.00     0.010 A
ENDBRANCH  26  27
ENDBRANCH  15  26
BRANCH   7  30
HETATM   30  O2  UNL     1      -6.619   8.993   5.170  1.00  0.00    -0.358 OA
ATOM     31  H2  UNL     1      -7.067   9.270   5.960  1.00  0.00     0.217 HD
ENDBRANCH   7  30
TORSDOF 7
ENDMDL