MODEL 3
REMARK VINA RESULT: -7.379986675      4.177      6.134
REMARK  5 active torsions:
REMARK  status: ('A' for Active; 'I' for Inactive)
REMARK    1  A    between atoms: C2_3  and  S1_4
REMARK    2  A    between atoms: S1_4  and  C3_5
REMARK    3  A    between atoms: N5_10  and  N6_11
REMARK       I    between atoms: N6_11  and  C4_13
REMARK    4  A    between atoms: C4_13  and  C5_15
REMARK    5  A    between atoms: C5_15  and  C6_16
ROOT
HETATM    1  N1  UNL     1     -21.440  10.504  22.148  1.00  0.00    -0.197 NA
HETATM    2  C1  UNL     1     -22.088   9.724  22.702  1.00  0.00     0.069 C
HETATM    3  C2  UNL     1     -22.894   8.726  23.413  1.00  0.00     0.206 C
ENDROOT
BRANCH   3   4
HETATM    4  S1  UNL     1     -22.776   8.946  25.202  1.00  0.00    -0.076 SA
BRANCH   4   5
HETATM    5  C3  UNL     1     -23.241  10.594  25.689  1.00  0.00     0.194 A
HETATM    6  N2  UNL     1     -24.488  11.049  25.807  1.00  0.00    -0.263 N
HETATM    7  N3  UNL     1     -24.376  12.314  26.188  1.00  0.00    -0.005 NA
ATOM      8  H2  UNL     1     -25.350  10.530  25.640  1.00  0.00     0.186 HD
HETATM    9  N4  UNL     1     -23.087  12.621  26.297  1.00  0.00     0.017 NA
HETATM   10  N5  UNL     1     -22.352  11.551  25.987  1.00  0.00    -0.155 N
BRANCH  10  11
HETATM   11  N6  UNL     1     -20.971  11.481  25.985  1.00  0.00    -0.248 N
HETATM   12  C4  UNL     1     -20.237  11.027  27.118  1.00  0.00     0.238 C
HETATM   13  O1  UNL     1     -20.947  10.702  28.096  1.00  0.00    -0.272 OA
ATOM     14  H6  UNL     1     -20.463  11.764  25.148  1.00  0.00     0.192 HD
BRANCH  12  15
HETATM   15  C5  UNL     1     -18.776  10.979  27.048  1.00  0.00     0.117 C
BRANCH  15  16
HETATM   16  C6  UNL     1     -18.119   9.699  26.696  1.00  0.00     0.000 C
HETATM   17  C7  UNL     1     -18.813   9.025  25.562  1.00  0.00     0.017 C
HETATM   18  C8  UNL     1     -18.306   7.590  25.346  1.00  0.00    -0.013 C
HETATM   19  C9  UNL     1     -18.583   6.754  26.560  1.00  0.00     0.009 C
HETATM   20  C13 UNL     1     -16.826   7.726  25.038  1.00  0.00     0.012 C
HETATM   21  C10 UNL     1     -17.795   7.403  27.696  1.00  0.00    -0.013 C
HETATM   22  C11 UNL     1     -16.320   7.420  27.390  1.00  0.00     0.012 C
HETATM   23  C18 UNL     1     -18.369   8.750  27.918  1.00  0.00     0.017 C
HETATM   24  C12 UNL     1     -16.117   8.342  26.236  1.00  0.00     0.022 C
HETATM   25  C14 UNL     1     -16.628   9.758  26.489  1.00  0.00     0.072 C
HETATM   26  C15 UNL     1     -15.908  10.267  27.708  1.00  0.00     0.041 C
HETATM   27  O2  UNL     1     -16.261  10.509  25.418  1.00  0.00    -0.379 OA
HETATM   28  C16 UNL     1     -15.117  11.449  27.211  1.00  0.00     0.029 C
HETATM   29  C17 UNL     1     -15.118  11.220  25.723  1.00  0.00     0.169 C
ENDBRANCH  15  16
ENDBRANCH  12  15
ENDBRANCH  10  11
ENDBRANCH   4   5
ENDBRANCH   3   4
TORSDOF 5
ENDMDL