MODEL 2
REMARK VINA RESULT: -6.706001647      7.273     11.225
REMARK  7 active torsions:
REMARK  status: ('A' for Active; 'I' for Inactive)
REMARK    1  A    between atoms: O1_2  and  C2_3
REMARK    2  A    between atoms: C2_3  and  C3_5
REMARK    3  A    between atoms: C4_6  and  N1_7
REMARK       I    between atoms: N1_7  and  C5_9
REMARK    4  A    between atoms: C5_9  and  C6_11
REMARK    5  A    between atoms: C6_11  and  O4_12
REMARK    6  A    between atoms: O4_12  and  C7_13
REMARK    7  A    between atoms: C7_13  and  C8_15
ROOT
HETATM    1  C3  UNL     1     -17.725  15.349  30.994  1.00  0.00     0.080 A
HETATM    2  C4  UNL     1     -18.321  16.424  31.593  1.00  0.00     0.094 A
HETATM    3  S1  UNL     1     -19.988  16.045  31.522  1.00  0.00    -0.074 SA
HETATM    4  C12 UNL     1     -19.894  14.550  30.745  1.00  0.00     0.001 A
HETATM    5  C13 UNL     1     -18.548  14.360  30.547  1.00  0.00    -0.024 A
HETATM    6  C14 UNL     1     -18.237  13.039  29.854  1.00  0.00     0.051 C
HETATM    7  C15 UNL     1     -18.704  13.204  28.414  1.00  0.00     0.079 C
HETATM    8  S2  UNL     1     -20.541  13.199  28.527  1.00  0.00    -0.164 SA
HETATM    9  C16 UNL     1     -20.907  13.521  30.280  1.00  0.00     0.120 C
ENDROOT
BRANCH   2  10
HETATM   10  N1  UNL     1     -17.785  17.626  32.173  1.00  0.00    -0.319 N
HETATM   11  C5  UNL     1     -18.177  17.968  33.489  1.00  0.00     0.246 C
HETATM   12  O3  UNL     1     -18.964  17.238  34.110  1.00  0.00    -0.271 OA
ATOM     13  H1  UNL     1     -17.139  18.217  31.649  1.00  0.00     0.169 HD
BRANCH  11  14
HETATM   14  C6  UNL     1     -17.648  19.189  34.111  1.00  0.00     0.281 C
BRANCH  14  15
HETATM   15  O4  UNL     1     -16.762  18.857  35.182  1.00  0.00    -0.310 OA
BRANCH  15  16
HETATM   16  C7  UNL     1     -17.005  19.491  36.416  1.00  0.00     0.288 C
HETATM   17  O5  UNL     1     -16.579  20.654  36.639  1.00  0.00    -0.262 OA
BRANCH  16  18
HETATM   18  C8  UNL     1     -17.766  18.808  37.480  1.00  0.00     0.221 C
HETATM   19  C9  UNL     1     -19.162  19.381  37.538  1.00  0.00     0.044 C
HETATM   20  C10 UNL     1     -20.021  18.122  37.371  1.00  0.00     0.029 C
HETATM   21  C11 UNL     1     -19.026  17.060  37.854  1.00  0.00     0.169 C
HETATM   22  O6  UNL     1     -17.874  17.468  37.191  1.00  0.00    -0.376 OA
ENDBRANCH  16  18
ENDBRANCH  15  16
ENDBRANCH  14  15
ENDBRANCH  11  14
ENDBRANCH   2  10
BRANCH   1  23
HETATM   23  C2  UNL     1     -16.237  15.299  30.846  1.00  0.00     0.296 C
HETATM   24  O2  UNL     1     -15.557  14.310  31.198  1.00  0.00    -0.259 OA
BRANCH  23  25
HETATM   25  O1  UNL     1     -15.528  16.352  30.310  1.00  0.00    -0.322 OA
HETATM   26  C1  UNL     1     -14.994  16.275  29.011  1.00  0.00     0.213 C
ENDBRANCH  23  25
ENDBRANCH   1  23
TORSDOF 7
ENDMDL