MODEL 5
REMARK VINA RESULT: -5.451737081      4.227      6.475
REMARK  7 active torsions:
REMARK  status: ('A' for Active; 'I' for Inactive)
REMARK    1  A    between atoms: C2_2  and  O1_3
REMARK    2  A    between atoms: O1_3  and  C3_4
REMARK    3  A    between atoms: C3_4  and  C4_6
REMARK    4  A    between atoms: C7_11  and  C8_12
REMARK    5  A    between atoms: N2_14  and  N3_16
REMARK    6  A    between atoms: C12_21  and  C13_22
REMARK    7  A    between atoms: C13_22  and  O4_24
ROOT
HETATM    1  C8  UNL     1     -21.487   9.749  24.116  1.00  0.00     0.049 C
HETATM    2  C9  UNL     1     -21.329  10.394  22.761  1.00  0.00     0.072 C
HETATM    3  N2  UNL     1     -22.669   9.494  24.417  1.00  0.00    -0.298 N
ATOM      4  H2  UNL     1     -23.267   9.800  23.649  1.00  0.00     0.187 HD
ENDROOT
BRANCH   1   5
HETATM    5  C7  UNL     1     -20.319   9.470  24.933  1.00  0.00     0.063 A
HETATM    6  N1  UNL     1     -19.650  10.392  25.685  1.00  0.00    -0.357 N
HETATM    7  C5  UNL     1     -18.655   9.809  26.337  1.00  0.00     0.022 A
ATOM      8  H1  UNL     1     -19.882  11.384  25.736  1.00  0.00     0.166 HD
HETATM    9  C4  UNL     1     -18.637   8.493  26.038  1.00  0.00     0.069 A
HETATM   10  C6  UNL     1     -17.677  10.473  27.272  1.00  0.00     0.069 C
HETATM   11  C15 UNL     1     -19.705   8.275  25.137  1.00  0.00    -0.015 A
HETATM   12  C16 UNL     1     -19.969   6.913  24.595  1.00  0.00     0.052 C
BRANCH   9  13
HETATM   13  C3  UNL     1     -17.698   7.481  26.545  1.00  0.00     0.295 C
HETATM   14  O2  UNL     1     -17.824   6.967  27.681  1.00  0.00    -0.259 OA
BRANCH  13  15
HETATM   15  O1  UNL     1     -16.652   7.105  25.713  1.00  0.00    -0.318 OA
BRANCH  15  16
HETATM   16  C2  UNL     1     -15.849   8.062  25.042  1.00  0.00     0.174 C
HETATM   17  C1  UNL     1     -14.775   7.309  24.285  1.00  0.00     0.034 C
ENDBRANCH  15  16
ENDBRANCH  13  15
ENDBRANCH   9  13
ENDBRANCH   1   5
BRANCH   3  18
HETATM   18  N3  UNL     1     -23.450   8.967  25.374  1.00  0.00    -0.260 N
HETATM   19  C10 UNL     1     -24.232   7.784  25.089  1.00  0.00     0.156 C
HETATM   20  S1  UNL     1     -23.947   6.581  24.039  1.00  0.00    -0.051 SA
HETATM   21  S2  UNL     1     -25.649   7.887  26.161  1.00  0.00    -0.096 SA
HETATM   22  C11 UNL     1     -25.016   9.302  27.150  1.00  0.00     0.119 C
HETATM   23  C12 UNL     1     -23.599   9.393  26.699  1.00  0.00     0.219 C
BRANCH  23  24
HETATM   24  C13 UNL     1     -23.084  10.733  26.975  1.00  0.00     0.284 C
HETATM   25  O3  UNL     1     -22.080  10.887  27.782  1.00  0.00    -0.263 OA
BRANCH  24  26
HETATM   26  O4  UNL     1     -23.545  11.932  26.467  1.00  0.00    -0.325 OA
HETATM   27  C14 UNL     1     -23.844  13.065  27.233  1.00  0.00     0.213 C
ENDBRANCH  24  26
ENDBRANCH  23  24
ENDBRANCH   3  18
TORSDOF 7
ENDMDL