MODEL 4
REMARK VINA RESULT: -7.784819596      2.718      3.681
REMARK  5 active torsions:
REMARK  status: ('A' for Active; 'I' for Inactive)
REMARK    1  A    between atoms: C2_2  and  C3_3
REMARK    2  A    between atoms: C3_3  and  S1_4
REMARK    3  A    between atoms: S1_4  and  C4_7
REMARK    4  A    between atoms: C5_12  and  N3_13
REMARK    5  A    between atoms: C6_15  and  C7_16
ROOT
HETATM    1  N3  UNL     1     -17.581  16.010  31.663  1.00  0.00    -0.344 N
ATOM      2  H3  UNL     1     -16.607  15.820  31.901  1.00  0.00     0.167 HD
HETATM    3  C6  UNL     1     -18.077  15.286  30.623  1.00  0.00     0.103 C
ENDROOT
BRANCH   1   4
HETATM    4  C5  UNL     1     -18.168  16.910  32.399  1.00  0.00     0.166 A
HETATM    5  N2  UNL     1     -19.427  17.358  32.395  1.00  0.00    -0.278 N
HETATM    6  N1  UNL     1     -19.760  18.257  33.227  1.00  0.00    -0.282 N
ATOM      7  H2  UNL     1     -20.109  16.984  31.736  1.00  0.00     0.189 HD
HETATM    8  C4  UNL     1     -18.879  18.746  34.083  1.00  0.00     0.188 A
ATOM      9  H1  UNL     1     -20.718  18.607  33.235  1.00  0.00     0.188 HD
HETATM   10  S3  UNL     1     -17.487  17.848  33.657  1.00  0.00    -0.021 SA
BRANCH   8  11
HETATM   11  S1  UNL     1     -19.107  19.984  35.315  1.00  0.00     0.199 S
HETATM   12  O1  UNL     1     -17.750  20.365  35.859  1.00  0.00    -0.221 OA
HETATM   13  O2  UNL     1     -19.762  21.200  34.783  1.00  0.00    -0.221 OA
BRANCH  11  14
HETATM   14  C3  UNL     1     -20.028  19.276  36.662  1.00  0.00     0.147 C
BRANCH  14  15
HETATM   15  C2  UNL     1     -19.752  17.773  36.714  1.00  0.00     0.011 C
HETATM   16  C1  UNL     1     -18.607  17.444  37.633  1.00  0.00     0.006 C
ENDBRANCH  14  15
ENDBRANCH  11  14
ENDBRANCH   8  11
ENDBRANCH   1   4
BRANCH   3  17
HETATM   17  C7  UNL     1     -17.242  14.452  29.714  1.00  0.00     0.010 A
HETATM   18  C8  UNL     1     -17.887  13.260  29.298  1.00  0.00    -0.008 A
HETATM   19  C9  UNL     1     -19.238  12.757  29.640  1.00  0.00     0.057 C
HETATM   20  S2  UNL     1     -16.764  12.510  28.301  1.00  0.00    -0.093 SA
HETATM   21  C10 UNL     1     -15.500  13.651  28.390  1.00  0.00     0.024 A
HETATM   22  C11 UNL     1     -14.231  13.701  27.811  1.00  0.00     0.044 A
HETATM   23  C14 UNL     1     -16.004  14.624  29.225  1.00  0.00     0.069 A
HETATM   24  C12 UNL     1     -13.389  14.778  28.064  1.00  0.00     0.147 A
HETATM   25  O3  UNL     1     -13.901  15.671  28.855  1.00  0.00    -0.287 OA
HETATM   26  C13 UNL     1     -15.077  15.667  29.416  1.00  0.00     0.300 A
HETATM   27  O4  UNL     1     -15.285  16.675  30.131  1.00  0.00    -0.259 OA
ENDBRANCH   3  17
TORSDOF 5
ENDMDL