MODEL 1
REMARK VINA RESULT: -7.369417743      0.000      0.000
REMARK  9 active torsions:
REMARK  status: ('A' for Active; 'I' for Inactive)
REMARK    1  A    between atoms: O1_2  and  C2_3
REMARK    2  A    between atoms: C2_3  and  C3_5
REMARK    3  A    between atoms: C5_7  and  C6_8
REMARK    4  A    between atoms: C6_8  and  O4_10
REMARK    5  A    between atoms: O4_10  and  C7_11
REMARK    6  A    between atoms: C7_11  and  C8_12
REMARK       I    between atoms: C8_12  and  N1_14
REMARK    7  A    between atoms: N1_14  and  C9_16
REMARK    8  A    between atoms: C9_16  and  C12_19
REMARK    9  A    between atoms: C17_24  and  N2_25
ROOT
HETATM    1  C6  UNL     1     -18.786  12.982  29.403  1.00  0.00     0.293 C
HETATM    2  O3  UNL     1     -18.996  13.094  30.631  1.00  0.00    -0.259 OA
ENDROOT
BRANCH   1   3
HETATM    3  C5  UNL     1     -17.421  13.137  28.864  1.00  0.00     0.043 A
HETATM    4  C4  UNL     1     -16.862  12.102  28.150  1.00  0.00     0.035 A
HETATM    5  C3  UNL     1     -15.594  12.193  27.626  1.00  0.00     0.042 A
HETATM    6  C18 UNL     1     -14.841  13.338  27.806  1.00  0.00     0.053 A
HETATM    7  C17 UNL     1     -15.390  14.383  28.519  1.00  0.00     0.104 A
HETATM    8  C16 UNL     1     -16.679  14.263  29.039  1.00  0.00     0.053 A
BRANCH   5   9
HETATM    9  C2  UNL     1     -15.058  11.072  26.883  1.00  0.00     0.293 C
HETATM   10  O2  UNL     1     -15.346   9.909  27.236  1.00  0.00    -0.259 OA
BRANCH   9  11
HETATM   11  O1  UNL     1     -14.224  11.264  25.781  1.00  0.00    -0.323 OA
HETATM   12  C1  UNL     1     -13.636  10.168  25.103  1.00  0.00     0.213 C
ENDBRANCH   9  11
ENDBRANCH   5   9
BRANCH   7  13
HETATM   13  N2  UNL     1     -14.642  15.570  28.720  1.00  0.00    -0.116 N
HETATM   14  O6  UNL     1     -13.564  15.750  28.122  1.00  0.00    -0.532 OA
HETATM   15  O7  UNL     1     -15.096  16.535  29.577  1.00  0.00    -0.532 OA
ENDBRANCH   7  13
ENDBRANCH   1   3
BRANCH   1  16
HETATM   16  O4  UNL     1     -19.832  12.715  28.558  1.00  0.00    -0.308 OA
BRANCH  16  17
HETATM   17  C7  UNL     1     -20.485  11.484  28.433  1.00  0.00     0.281 C
BRANCH  17  18
HETATM   18  C8  UNL     1     -20.144  10.808  27.163  1.00  0.00     0.242 C
HETATM   19  O5  UNL     1     -20.567  11.299  26.090  1.00  0.00    -0.271 OA
HETATM   20  N1  UNL     1     -19.342   9.615  27.176  1.00  0.00    -0.350 N
ATOM     21  H1  UNL     1     -19.002   9.223  28.054  1.00  0.00     0.163 HD
BRANCH  20  22
HETATM   22  C9  UNL     1     -19.032   8.987  25.922  1.00  0.00     0.032 C
HETATM   23  C10 UNL     1     -20.320   8.703  25.198  1.00  0.00     0.039 C
HETATM   24  C11 UNL     1     -18.153   9.952  25.125  1.00  0.00     0.039 C
BRANCH  22  25
HETATM   25  C12 UNL     1     -18.264   7.724  26.092  1.00  0.00    -0.027 C
HETATM   26  C13 UNL     1     -19.107   6.561  25.601  1.00  0.00     0.017 C
HETATM   27  C14 UNL     1     -16.990   7.725  25.269  1.00  0.00     0.017 C
HETATM   28  C15 UNL     1     -17.881   7.434  27.514  1.00  0.00     0.017 C
ENDBRANCH  22  25
ENDBRANCH  20  22
ENDBRANCH  17  18
ENDBRANCH  16  17
ENDBRANCH   1  16
TORSDOF 9
ENDMDL