MODEL 4
REMARK VINA RESULT: -6.894357835      2.626      3.958
REMARK  6 active torsions:
REMARK  status: ('A' for Active; 'I' for Inactive)
REMARK    1  A    between atoms: C2_2  and  O1_3
REMARK    2  A    between atoms: O1_3  and  C3_4
REMARK    3  A    between atoms: C3_4  and  C4_6
REMARK    4  A    between atoms: C5_7  and  S1_8
REMARK    5  A    between atoms: S1_8  and  C6_9
REMARK    6  A    between atoms: N3_15  and  C8_17
ROOT
HETATM    1  C6  UNL     1     -19.401  16.416  31.485  1.00  0.00     0.134 A
HETATM    2  N1  UNL     1     -18.232  16.989  31.586  1.00  0.00    -0.286 N
ATOM      3  H1  UNL     1     -18.163  17.902  32.036  1.00  0.00     0.188 HD
HETATM    4  N2  UNL     1     -17.177  16.439  31.136  1.00  0.00    -0.279 N
ATOM      5  H2  UNL     1     -16.270  16.897  31.222  1.00  0.00     0.189 HD
HETATM    6  C7  UNL     1     -17.289  15.243  30.549  1.00  0.00     0.162 A
HETATM    7  N3  UNL     1     -16.358  14.518  30.030  1.00  0.00    -0.365 N
ATOM      8  H3  UNL     1     -16.633  13.625  29.621  1.00  0.00     0.162 HD
HETATM    9  S2  UNL     1     -18.965  14.950  30.671  1.00  0.00    -0.026 SA
ENDROOT
BRANCH   1  10
HETATM   10  S1  UNL     1     -21.036  16.968  32.029  1.00  0.00    -0.067 SA
BRANCH  10  11
HETATM   11  C5  UNL     1     -21.080  17.023  33.810  1.00  0.00     0.005 C
HETATM   12  C4  UNL     1     -21.998  16.417  34.543  1.00  0.00     0.085 C
HETATM   13  C16 UNL     1     -21.991  16.493  36.037  1.00  0.00     0.302 C
HETATM   14  O3  UNL     1     -20.990  15.708  36.581  1.00  0.00    -0.354 OA
HETATM   15  O4  UNL     1     -21.628  17.810  36.349  1.00  0.00    -0.349 OA
HETATM   16  C15 UNL     1     -19.838  16.472  36.622  1.00  0.00     0.203 C
HETATM   17  C14 UNL     1     -20.270  17.805  36.020  1.00  0.00     0.153 C
HETATM   18  C13 UNL     1     -20.039  17.784  34.535  1.00  0.00     0.081 C
BRANCH  12  19
HETATM   19  C3  UNL     1     -23.032  15.663  33.859  1.00  0.00     0.295 C
HETATM   20  O2  UNL     1     -24.034  16.188  33.328  1.00  0.00    -0.259 OA
BRANCH  19  21
HETATM   21  O1  UNL     1     -22.909  14.293  33.786  1.00  0.00    -0.318 OA
BRANCH  21  22
HETATM   22  C2  UNL     1     -23.283  13.495  32.682  1.00  0.00     0.174 C
HETATM   23  C1  UNL     1     -22.016  13.095  31.960  1.00  0.00     0.034 C
ENDBRANCH  21  22
ENDBRANCH  19  21
ENDBRANCH  12  19
ENDBRANCH  10  11
ENDBRANCH   1  10
BRANCH   7  24
HETATM   24  C8  UNL     1     -14.982  14.859  29.980  1.00  0.00     0.083 C
HETATM   25  C9  UNL     1     -14.078  13.704  29.627  1.00  0.00     0.025 C
HETATM   26  C10 UNL     1     -14.004  13.856  28.111  1.00  0.00     0.002 C
HETATM   27  C11 UNL     1     -13.757  15.344  27.983  1.00  0.00     0.002 C
HETATM   28  C12 UNL     1     -14.769  15.918  28.945  1.00  0.00     0.025 C
ENDBRANCH   7  24
TORSDOF 6
ENDMDL