MODEL 2
REMARK VINA RESULT: -5.947260042      1.550      1.750
REMARK  7 active torsions:
REMARK  status: ('A' for Active; 'I' for Inactive)
REMARK    1  A    between atoms: C2_2  and  C3_3
REMARK    2  A    between atoms: C3_3  and  C4_4
REMARK    3  A    between atoms: C4_4  and  C5_5
REMARK    4  A    between atoms: C7_9  and  O2_10
REMARK    5  A    between atoms: C8_12  and  C9_13
REMARK    6  A    between atoms: C9_13  and  C10_14
REMARK    7  A    between atoms: C16_22  and  O4_24
ROOT
HETATM    1  C5  UNL     1     -23.184   8.634  24.891  1.00  0.00     0.124 C
HETATM    2  C6  UNL     1     -23.670   9.032  26.219  1.00  0.00     0.059 C
HETATM    3  N1  UNL     1     -24.032   9.354  27.270  1.00  0.00    -0.197 NA
ENDROOT
BRANCH   1   4
HETATM    4  C4  UNL     1     -21.866   9.339  24.624  1.00  0.00     0.019 C
BRANCH   4   5
HETATM    5  C3  UNL     1     -20.781   8.726  25.464  1.00  0.00     0.070 C
BRANCH   5   6
HETATM    6  C2  UNL     1     -19.806   9.818  25.990  1.00  0.00     0.177 C
HETATM    7  C1  UNL     1     -19.567  10.604  24.676  1.00  0.00     0.080 C
HETATM    8  O1  UNL     1     -18.726   9.276  26.555  1.00  0.00    -0.292 OA
HETATM    9  C7  UNL     1     -17.532   8.755  26.639  1.00  0.00     0.183 C
HETATM   10  C8  UNL     1     -16.188   9.402  26.669  1.00  0.00    -0.021 C
HETATM   11  C11 UNL     1     -15.973  10.358  27.813  1.00  0.00     0.039 C
HETATM   12  C12 UNL     1     -16.013  11.804  27.465  1.00  0.00     0.012 C
HETATM   13  C13 UNL     1     -16.312  12.709  28.611  1.00  0.00     0.079 C
HETATM   14  C14 UNL     1     -17.738  13.069  28.794  1.00  0.00     0.130 C
HETATM   15  O3  UNL     1     -18.041  14.068  29.390  1.00  0.00    -0.298 OA
HETATM   16  C15 UNL     1     -18.702  12.170  28.230  1.00  0.00     0.126 C
HETATM   17  C16 UNL     1     -20.162  12.503  28.254  1.00  0.00     0.148 C
HETATM   18  C17 UNL     1     -20.543  13.576  27.265  1.00  0.00     0.057 C
HETATM   19  C18 UNL     1     -20.808  11.193  27.902  1.00  0.00     0.296 C
HETATM   20  O5  UNL     1     -21.493  10.749  28.881  1.00  0.00    -0.262 OA
HETATM   21  O6  UNL     1     -20.617  10.674  26.706  1.00  0.00    -0.281 OA
BRANCH   9  22
HETATM   22  O2  UNL     1     -17.447   7.454  26.713  1.00  0.00    -0.341 OA
ATOM     23  H2  UNL     1     -16.836   7.021  26.129  1.00  0.00     0.220 HD
ENDBRANCH   9  22
BRANCH  10  24
HETATM   24  C9  UNL     1     -15.679   9.891  25.362  1.00  0.00     0.050 C
BRANCH  24  25
HETATM   25  C10 UNL     1     -14.498   9.183  24.777  1.00  0.00     0.090 C
HETATM   26  S1  UNL     1     -14.692   7.488  24.308  1.00  0.00    -0.097 SA
ENDBRANCH  24  25
ENDBRANCH  10  24
BRANCH  17  27
HETATM   27  O4  UNL     1     -20.467  12.951  29.521  1.00  0.00    -0.380 OA
ATOM     28  H4  UNL     1     -20.971  13.751  29.430  1.00  0.00     0.211 HD
ENDBRANCH  17  27
ENDBRANCH   5   6
ENDBRANCH   4   5
ENDBRANCH   1   4
TORSDOF 7
ENDMDL