MODEL 3
REMARK VINA RESULT: -8.145840267      1.168      1.581
REMARK  5 active torsions:
REMARK  status: ('A' for Active; 'I' for Inactive)
REMARK    1  A    between atoms: O1_2  and  C2_3
REMARK    2  A    between atoms: N1_6  and  C5_7
REMARK    3  A    between atoms: C5_7  and  C6_8
REMARK    4  A    between atoms: C6_8  and  O2_9
REMARK    5  A    between atoms: O2_9  and  C7_10
ROOT
HETATM    1  C7  UNL     1     -18.011  13.230  29.262  1.00  0.00     0.167 A
HETATM    2  N2  UNL     1     -16.853  13.249  28.635  1.00  0.00    -0.303 N
ATOM      3  H2  UNL     1     -16.605  12.564  27.922  1.00  0.00     0.176 HD
HETATM    4  S1  UNL     1     -15.821  14.483  29.094  1.00  0.00     0.031 SA
HETATM    5  C8  UNL     1     -16.467  15.487  30.295  1.00  0.00     0.241 A
HETATM    6  O3  UNL     1     -15.786  16.447  30.719  1.00  0.00    -0.278 OA
HETATM    7  C9  UNL     1     -17.773  15.178  30.763  1.00  0.00     0.051 A
HETATM    8  C10 UNL     1     -18.431  15.896  31.725  1.00  0.00    -0.027 A
HETATM    9  C11 UNL     1     -19.684  15.486  32.070  1.00  0.00    -0.008 A
HETATM   10  S2  UNL     1     -19.945  14.130  31.082  1.00  0.00    -0.089 SA
HETATM   11  C12 UNL     1     -18.444  14.113  30.243  1.00  0.00     0.072 A
HETATM   12  C13 UNL     1     -20.693  16.021  33.057  1.00  0.00     0.074 C
HETATM   13  C14 UNL     1     -20.843  17.491  32.791  1.00  0.00     0.237 C
HETATM   14  N3  UNL     1     -19.777  18.280  33.314  1.00  0.00    -0.074 N
ATOM     15  H31 UNL     1     -20.086  18.786  34.144  1.00  0.00     0.277 HD
ATOM     16  H32 UNL     1     -19.580  19.066  32.693  1.00  0.00     0.277 HD
HETATM   17  C15 UNL     1     -18.581  17.555  33.591  1.00  0.00     0.237 C
HETATM   18  C16 UNL     1     -17.798  17.100  32.413  1.00  0.00     0.068 C
ENDROOT
BRANCH   1  19
HETATM   19  O2  UNL     1     -18.898  12.227  28.919  1.00  0.00    -0.333 OA
BRANCH  19  20
HETATM   20  C6  UNL     1     -18.878  11.435  27.785  1.00  0.00     0.197 C
BRANCH  20  21
HETATM   21  C5  UNL     1     -18.718   9.974  28.079  1.00  0.00     0.148 C
BRANCH  21  22
HETATM   22  N1  UNL     1     -17.382   9.499  27.860  1.00  0.00    -0.391 N
HETATM   23  C4  UNL     1     -16.734  10.096  26.762  1.00  0.00     0.060 C
HETATM   24  C3  UNL     1     -16.612   9.210  25.526  1.00  0.00     0.076 C
HETATM   25  C2  UNL     1     -16.079   7.885  25.976  1.00  0.00     0.127 C
HETATM   26  C18 UNL     1     -17.145   7.266  26.872  1.00  0.00     0.052 C
HETATM   27  C17 UNL     1     -17.155   8.127  28.123  1.00  0.00     0.124 C
BRANCH  25  28
HETATM   28  O1  UNL     1     -15.745   7.046  24.923  1.00  0.00    -0.390 OA
HETATM   29  C1  UNL     1     -14.670   7.477  24.184  1.00  0.00     0.202 C
ENDBRANCH  25  28
ENDBRANCH  21  22
ENDBRANCH  20  21
ENDBRANCH  19  20
ENDBRANCH   1  19
TORSDOF 5
ENDMDL