MODEL 5
REMARK VINA RESULT: -7.172697222      2.116      2.427
REMARK  8 active torsions:
REMARK  status: ('A' for Active; 'I' for Inactive)
REMARK    1  A    between atoms: C4_5  and  N1_6
REMARK       I    between atoms: N1_6  and  C5_8
REMARK    2  A    between atoms: C5_8  and  C6_10
REMARK    3  A    between atoms: C6_10  and  S2_11
REMARK    4  A    between atoms: S2_11  and  C7_12
REMARK    5  A    between atoms: C8_17  and  C9_18
REMARK    6  A    between atoms: C9_18  and  O2_19
REMARK    7  A    between atoms: O2_19  and  C10_20
REMARK    8  A    between atoms: C10_20  and  C11_22
ROOT
HETATM    1  C7  UNL     1     -18.856  18.007  33.401  1.00  0.00     0.162 A
HETATM    2  N2  UNL     1     -17.682  18.498  32.896  1.00  0.00    -0.278 N
ATOM      3  H2  UNL     1     -17.244  19.382  33.154  1.00  0.00     0.189 HD
HETATM    4  N3  UNL     1     -17.218  17.631  32.020  1.00  0.00    -0.285 N
ATOM      5  H3  UNL     1     -16.358  17.723  31.479  1.00  0.00     0.188 HD
HETATM    6  C8  UNL     1     -18.088  16.594  31.969  1.00  0.00     0.124 A
HETATM    7  N4  UNL     1     -19.109  16.832  32.830  1.00  0.00    -0.318 N
HETATM    8  C15 UNL     1     -20.226  15.952  33.065  1.00  0.00     0.160 C
ENDROOT
BRANCH   1   9
HETATM    9  S2  UNL     1     -19.843  18.822  34.636  1.00  0.00    -0.083 SA
BRANCH   9  10
HETATM   10  C6  UNL     1     -19.486  20.584  34.741  1.00  0.00     0.185 C
BRANCH  10  11
HETATM   11  C5  UNL     1     -19.818  21.202  36.036  1.00  0.00     0.233 C
HETATM   12  N1  UNL     1     -19.572  20.473  37.221  1.00  0.00    -0.306 N
ATOM     13  H1  UNL     1     -20.316  19.979  37.713  1.00  0.00     0.171 HD
HETATM   14  O1  UNL     1     -20.306  22.348  36.131  1.00  0.00    -0.272 OA
BRANCH  12  15
HETATM   15  C4  UNL     1     -18.325  20.466  37.658  1.00  0.00     0.151 A
HETATM   16  S1  UNL     1     -17.375  19.131  38.141  1.00  0.00    -0.064 SA
HETATM   17  C3  UNL     1     -15.947  19.981  38.543  1.00  0.00     0.077 A
HETATM   18  C2  UNL     1     -16.298  21.275  38.275  1.00  0.00     0.014 A
HETATM   19  C1  UNL     1     -15.278  22.380  38.507  1.00  0.00     0.068 C
HETATM   20  N5  UNL     1     -17.500  21.501  37.829  1.00  0.00    -0.340 N
ATOM     21  H5  UNL     1     -17.805  22.451  37.615  1.00  0.00     0.167 HD
ENDBRANCH  12  15
ENDBRANCH  10  11
ENDBRANCH   9  10
ENDBRANCH   1   9
BRANCH   6  22
HETATM   22  C9  UNL     1     -17.942  15.412  31.085  1.00  0.00     0.257 C
BRANCH  22  23
HETATM   23  O2  UNL     1     -16.626  14.965  30.922  1.00  0.00    -0.313 OA
BRANCH  23  24
HETATM   24  C10 UNL     1     -15.717  15.339  29.979  1.00  0.00     0.266 C
HETATM   25  O3  UNL     1     -15.397  16.563  29.928  1.00  0.00    -0.264 OA
BRANCH  24  26
HETATM   26  C11 UNL     1     -15.081  14.391  29.003  1.00  0.00     0.037 C
HETATM   27  C12 UNL     1     -14.212  13.399  29.724  1.00  0.00     0.025 C
HETATM   28  C13 UNL     1     -14.155  15.257  28.146  1.00  0.00     0.025 C
HETATM   29  C14 UNL     1     -16.129  13.737  28.156  1.00  0.00     0.025 C
ENDBRANCH  24  26
ENDBRANCH  23  24
ENDBRANCH  22  23
ENDBRANCH   6  22
TORSDOF 8
ENDMDL