MODEL 3
REMARK VINA RESULT: -9.380549633      3.390      7.266
REMARK  5 active torsions:
REMARK  status: ('A' for Active; 'I' for Inactive)
REMARK    1  A    between atoms: C1_1  and  C9_21
REMARK    2  A    between atoms: N1_2  and  N2_4
REMARK    3  A    between atoms: N2_4  and  C2_6
REMARK    4  A    between atoms: C2_6  and  C3_7
REMARK    5  A    between atoms: N5_12  and  C4_13
ROOT
HETATM    1  N2  UNL     1     -20.253  12.977  30.218  1.00  0.00    -0.330 N
ATOM      2  H2  UNL     1     -19.692  12.185  30.532  1.00  0.00     0.180 HD
ENDROOT
BRANCH   1   3
HETATM    3  N1  UNL     1     -20.080  14.177  30.847  1.00  0.00    -0.315 N
HETATM    4  C1  UNL     1     -19.083  14.923  31.006  1.00  0.00     0.113 C
ATOM      5  H1  UNL     1     -20.932  14.541  31.272  1.00  0.00     0.185 HD
BRANCH   4   6
HETATM    6  C9  UNL     1     -17.723  14.762  30.564  1.00  0.00    -0.043 C
HETATM    7  C10 UNL     1     -17.452  14.029  29.456  1.00  0.00     0.017 C
HETATM    8  C11 UNL     1     -16.039  13.931  29.097  1.00  0.00     0.251 C
HETATM    9  C12 UNL     1     -15.516  15.344  28.895  1.00  0.00     0.023 C
HETATM   10  N7  UNL     1     -15.809  13.260  27.836  1.00  0.00     0.101 N
HETATM   11  C13 UNL     1     -15.634  16.077  30.188  1.00  0.00     0.011 C
HETATM   12  C15 UNL     1     -14.187  15.408  28.244  1.00  0.00     0.009 C
HETATM   13  C14 UNL     1     -16.514  15.327  31.202  1.00  0.00     0.040 C
HETATM   14  C16 UNL     1     -13.519  14.125  27.950  1.00  0.00     0.036 C
HETATM   15  C17 UNL     1     -14.375  12.926  27.870  1.00  0.00     0.224 C
HETATM   16  C18 UNL     1     -14.243  12.092  26.644  1.00  0.00     0.037 C
HETATM   17  C19 UNL     1     -15.476  11.187  26.777  1.00  0.00     0.032 C
HETATM   18  C20 UNL     1     -16.392  11.966  27.729  1.00  0.00     0.274 C
ENDBRANCH   4   6
ENDBRANCH   1   3
BRANCH   1  19
HETATM   19  C2  UNL     1     -21.195  12.759  29.121  1.00  0.00     0.218 C
BRANCH  19  20
HETATM   20  C3  UNL     1     -20.778  11.624  28.258  1.00  0.00     0.132 A
HETATM   21  N3  UNL     1     -21.633  10.971  27.430  1.00  0.00    -0.271 N
HETATM   22  N4  UNL     1     -20.939  10.046  26.834  1.00  0.00    -0.224 N
ATOM     23  H3  UNL     1     -22.625  11.168  27.301  1.00  0.00     0.190 HD
HETATM   24  N5  UNL     1     -19.672  10.061  27.231  1.00  0.00    -0.213 N
ATOM     25  H4  UNL     1     -21.320   9.393  26.148  1.00  0.00     0.210 HD
HETATM   26  N6  UNL     1     -19.582  11.040  28.113  1.00  0.00    -0.268 N
ATOM     27  H6  UNL     1     -18.731  11.310  28.607  1.00  0.00     0.190 HD
BRANCH  24  28
HETATM   28  C4  UNL     1     -18.591   9.191  26.800  1.00  0.00     0.132 C
HETATM   29  C5  UNL     1     -18.048   8.403  27.970  1.00  0.00     0.055 C
HETATM   30  C6  UNL     1     -17.503   7.093  27.407  1.00  0.00     0.169 C
HETATM   31  O1  UNL     1     -16.966   7.279  26.141  1.00  0.00    -0.391 OA
HETATM   32  C7  UNL     1     -17.943   7.487  25.170  1.00  0.00     0.169 C
HETATM   33  C8  UNL     1     -19.136   8.194  25.798  1.00  0.00     0.055 C
ENDBRANCH  24  28
ENDBRANCH  19  20
ENDBRANCH   1  19
TORSDOF 5
ENDMDL