MODEL 2
REMARK VINA RESULT: -6.967974878      4.100     10.327
REMARK  12 active torsions:
REMARK  status: ('A' for Active; 'I' for Inactive)
REMARK    1  A    between atoms: O1_2  and  C2_3
REMARK    2  A    between atoms: C4_5  and  O2_6
REMARK    3  A    between atoms: C5_8  and  C6_9
REMARK    4  A    between atoms: C7_11  and  C8_12
REMARK    5  A    between atoms: C9_13  and  C10_14
REMARK    6  A    between atoms: C10_14  and  C11_15
REMARK    7  A    between atoms: C17_24  and  C18_25
REMARK    8  A    between atoms: C19_26  and  C20_27
REMARK    9  A    between atoms: C22_29  and  O6_30
REMARK   10  A    between atoms: C24_32  and  O7_33
REMARK   11  A    between atoms: C26_35  and  O8_36
REMARK   12  A    between atoms: C29_39  and  O9_40
ROOT
HETATM    1  C11 UNL     1       6.948   0.181  17.428  1.00  0.00     0.127 C
HETATM    2  C12 UNL     1       8.268  -0.364  17.214  1.00  0.00     0.059 C
HETATM    3  N1  UNL     1       9.325  -0.807  17.060  1.00  0.00    -0.197 NA
ENDROOT
BRANCH   1   4
HETATM    4  C10 UNL     1       6.011  -0.156  16.261  1.00  0.00     0.041 C
BRANCH   4   5
HETATM    5  C9  UNL     1       6.573   0.348  14.984  1.00  0.00    -0.026 C
HETATM    6  C8  UNL     1       5.783   0.649  13.962  1.00  0.00     0.018 C
BRANCH   6   7
HETATM    7  C7  UNL     1       6.437   1.150  12.712  1.00  0.00     0.176 C
HETATM    8  O3  UNL     1       5.840   0.621  11.631  1.00  0.00    -0.354 OA
HETATM    9  C6  UNL     1       5.984   1.524  10.461  1.00  0.00     0.170 C
HETATM   10  C17 UNL     1       6.727   2.634  11.037  1.00  0.00     0.056 C
HETATM   11  C15 UNL     1       6.222   2.627  12.518  1.00  0.00     0.032 C
HETATM   12  C14 UNL     1       7.175   3.244  13.458  1.00  0.00     0.192 C
HETATM   13  C16 UNL     1       4.813   3.008  12.652  1.00  0.00     0.022 C
HETATM   14  O5  UNL     1       8.274   2.393  13.399  1.00  0.00    -0.318 OA
HETATM   15  C13 UNL     1       7.896   1.136  12.874  1.00  0.00     0.298 C
HETATM   16  O4  UNL     1       8.788   0.289  12.651  1.00  0.00    -0.261 OA
BRANCH   9  17
HETATM   17  C5  UNL     1       6.533   0.589   9.488  1.00  0.00     0.038 A
HETATM   18  C4  UNL     1       6.937  -0.678   9.817  1.00  0.00     0.080 A
HETATM   19  C3  UNL     1       7.601  -1.549   8.943  1.00  0.00     0.074 A
HETATM   20  C2  UNL     1       7.884  -1.157   7.681  1.00  0.00     0.073 A
HETATM   21  C31 UNL     1       7.510   0.092   7.298  1.00  0.00     0.074 A
HETATM   22  C29 UNL     1       6.849   0.958   8.177  1.00  0.00     0.082 A
BRANCH  18  23
HETATM   23  O2  UNL     1       6.712  -1.191  11.050  1.00  0.00    -0.360 OA
ATOM     24  H2  UNL     1       6.616  -2.136  11.069  1.00  0.00     0.217 HD
ENDBRANCH  18  23
BRANCH  20  25
HETATM   25  O1  UNL     1       8.531  -1.972   6.776  1.00  0.00    -0.356 OA
HETATM   26  C1  UNL     1       7.946  -2.805   5.829  1.00  0.00     0.210 C
ENDBRANCH  20  25
BRANCH  22  27
HETATM   27  O9  UNL     1       6.563   2.191   7.630  1.00  0.00    -0.355 OA
HETATM   28  C30 UNL     1       6.089   2.405   6.344  1.00  0.00     0.210 C
ENDBRANCH  22  27
ENDBRANCH   9  17
BRANCH  10  29
HETATM   29  C18 UNL     1       6.475   4.032  10.660  1.00  0.00    -0.017 C
HETATM   30  C19 UNL     1       6.794   4.740   9.645  1.00  0.00     0.008 C
BRANCH  30  31
HETATM   31  C20 UNL     1       6.421   6.143   9.490  1.00  0.00    -0.031 A
HETATM   32  C21 UNL     1       6.371   6.969  10.623  1.00  0.00     0.051 A
HETATM   33  C22 UNL     1       6.044   8.299  10.586  1.00  0.00     0.105 A
HETATM   34  C24 UNL     1       5.742   8.872   9.354  1.00  0.00     0.135 A
HETATM   35  C26 UNL     1       5.785   8.081   8.224  1.00  0.00     0.105 A
HETATM   36  C28 UNL     1       6.118   6.751   8.303  1.00  0.00     0.051 A
BRANCH  33  37
HETATM   37  O6  UNL     1       5.992   9.118  11.699  1.00  0.00    -0.353 OA
HETATM   38  C23 UNL     1       7.096   9.304  12.563  1.00  0.00     0.210 C
ENDBRANCH  33  37
BRANCH  34  39
HETATM   39  O7  UNL     1       5.414  10.197   9.303  1.00  0.00    -0.351 OA
HETATM   40  C25 UNL     1       6.285  11.267   9.040  1.00  0.00     0.210 C
ENDBRANCH  34  39
BRANCH  35  41
HETATM   41  O8  UNL     1       5.480   8.675   6.999  1.00  0.00    -0.353 OA
HETATM   42  C27 UNL     1       5.318   7.969   5.806  1.00  0.00     0.210 C
ENDBRANCH  35  41
ENDBRANCH  30  31
ENDBRANCH  10  29
ENDBRANCH   6   7
ENDBRANCH   4   5
ENDBRANCH   1   4
TORSDOF 12
ENDMDL