MODEL 2
REMARK VINA RESULT: -6.577071256      2.169      4.100
REMARK  14 active torsions:
REMARK  status: ('A' for Active; 'I' for Inactive)
REMARK    1  A    between atoms: O1_2  and  C2_3
REMARK    2  A    between atoms: C2_3  and  C3_5
REMARK    3  A    between atoms: C4_6  and  C5_7
REMARK    4  A    between atoms: C6_8  and  C7_9
REMARK    5  A    between atoms: C7_9  and  O4_11
REMARK    6  A    between atoms: O4_11  and  C8_12
REMARK    7  A    between atoms: C8_12  and  C9_13
REMARK    8  A    between atoms: C9_13  and  O5_14
REMARK    9  A    between atoms: C16_22  and  O6_23
REMARK   10  A    between atoms: C18_25  and  O7_26
REMARK   11  A    between atoms: C20_28  and  O8_29
REMARK   12  A    between atoms: C22_31  and  O9_32
REMARK   13  A    between atoms: C25_35  and  O10_36
REMARK   14  A    between atoms: C27_38  and  C28_39
ROOT
HETATM    1  C5  UNL     1       8.131   7.679  10.410  1.00  0.00     0.031 A
HETATM    2  C6  UNL     1       7.298   6.584  10.351  1.00  0.00     0.056 A
HETATM    3  C15 UNL     1       7.356   5.764   9.238  1.00  0.00     0.058 A
HETATM    4  C16 UNL     1       8.237   6.034   8.191  1.00  0.00     0.105 A
HETATM    5  C18 UNL     1       9.072   7.128   8.242  1.00  0.00     0.136 A
HETATM    6  C20 UNL     1       9.017   7.952   9.357  1.00  0.00     0.116 A
ENDROOT
BRANCH   1   7
HETATM    7  C4  UNL     1       8.111   8.562  11.551  1.00  0.00     0.028 A
HETATM    8  C3  UNL     1       8.908   8.307  12.652  1.00  0.00     0.062 A
HETATM    9  C27 UNL     1       8.857   9.176  13.739  1.00  0.00    -0.004 A
HETATM   10  C25 UNL     1       8.029  10.263  13.709  1.00  0.00     0.078 A
HETATM   11  C24 UNL     1       7.232  10.496  12.577  1.00  0.00     0.075 A
HETATM   12  C22 UNL     1       7.267   9.652  11.493  1.00  0.00     0.083 A
BRANCH   8  13
HETATM   13  C2  UNL     1       9.770   7.146  12.705  1.00  0.00     0.294 C
HETATM   14  O2  UNL     1       9.364   5.998  13.036  1.00  0.00    -0.259 OA
BRANCH  13  15
HETATM   15  O1  UNL     1      11.121   7.217  12.388  1.00  0.00    -0.322 OA
HETATM   16  C1  UNL     1      11.696   6.618  11.243  1.00  0.00     0.213 C
ENDBRANCH  13  15
ENDBRANCH   8  13
BRANCH   9  17
HETATM   17  C28 UNL     1       9.719   8.879  14.871  1.00  0.00     0.014 C
HETATM   18  C29 UNL     1       9.053   8.889  16.231  1.00  0.00     0.015 C
HETATM   19  C30 UNL     1      10.891   9.835  14.984  1.00  0.00     0.015 C
ENDBRANCH   9  17
BRANCH  10  20
HETATM   20  O10 UNL     1       7.951  11.145  14.762  1.00  0.00    -0.355 OA
HETATM   21  C26 UNL     1       8.242  12.508  14.548  1.00  0.00     0.210 C
ENDBRANCH  10  20
BRANCH  12  22
HETATM   22  O9  UNL     1       6.472   9.895  10.377  1.00  0.00    -0.355 OA
HETATM   23  C23 UNL     1       5.121  10.275  10.473  1.00  0.00     0.210 C
ENDBRANCH  12  22
ENDBRANCH   1   7
BRANCH   2  24
HETATM   24  C7  UNL     1       6.343   6.238  11.393  1.00  0.00     0.294 C
HETATM   25  O3  UNL     1       5.423   7.010  11.787  1.00  0.00    -0.259 OA
BRANCH  24  26
HETATM   26  O4  UNL     1       6.405   5.003  12.019  1.00  0.00    -0.314 OA
BRANCH  26  27
HETATM   27  C8  UNL     1       5.581   3.954  11.622  1.00  0.00     0.217 C
BRANCH  27  28
HETATM   28  C9  UNL     1       5.989   2.677  12.330  1.00  0.00     0.080 C
HETATM   29  C10 UNL     1       6.513   1.727  11.311  1.00  0.00     0.040 C
HETATM   30  C11 UNL     1       7.217   0.535  11.906  1.00  0.00     0.003 C
HETATM   31  C12 UNL     1       8.364   1.048  12.746  1.00  0.00     0.000 C
HETATM   32  C13 UNL     1       7.778   1.851  13.876  1.00  0.00     0.003 C
HETATM   33  C14 UNL     1       7.003   3.051  13.383  1.00  0.00     0.040 C
BRANCH  28  34
HETATM   34  O5  UNL     1       4.861   2.181  12.988  1.00  0.00    -0.388 OA
ATOM     35  H5  UNL     1       4.874   1.234  12.906  1.00  0.00     0.210 HD
ENDBRANCH  28  34
ENDBRANCH  27  28
ENDBRANCH  26  27
ENDBRANCH  24  26
ENDBRANCH   2  24
BRANCH   6  36
HETATM   36  O8  UNL     1       9.875   9.038   9.359  1.00  0.00    -0.352 OA
HETATM   37  C21 UNL     1       9.629  10.267   8.718  1.00  0.00     0.210 C
ENDBRANCH   6  36
BRANCH   5  38
HETATM   38  O7  UNL     1       9.921   7.369   7.208  1.00  0.00    -0.351 OA
HETATM   39  C19 UNL     1      11.231   6.942   7.037  1.00  0.00     0.210 C
ENDBRANCH   5  38
BRANCH   4  40
HETATM   40  O6  UNL     1       8.302   5.219   7.072  1.00  0.00    -0.353 OA
HETATM   41  C17 UNL     1       7.274   4.261   6.903  1.00  0.00     0.210 C
ENDBRANCH   4  40
TORSDOF 14
ENDMDL