MODEL 3
REMARK VINA RESULT: -8.461727899      2.152      8.530
REMARK  14 active torsions:
REMARK  status: ('A' for Active; 'I' for Inactive)
REMARK    1  A    between atoms: C2_2  and  C3_3
REMARK    2  A    between atoms: C3_3  and  O1_4
REMARK    3  A    between atoms: C3_3  and  C8_10
REMARK    4  A    between atoms: O1_4  and  C4_5
REMARK    5  A    between atoms: C4_5  and  C5_7
REMARK    6  A    between atoms: C8_10  and  O3_11
REMARK    7  A    between atoms: O3_11  and  C9_12
REMARK    8  A    between atoms: C11_16  and  C12_17
REMARK    9  A    between atoms: C12_17  and  C13_18
REMARK   10  A    between atoms: C13_18  and  C14_19
REMARK   11  A    between atoms: C19_26  and  O8_27
REMARK   12  A    between atoms: C22_31  and  C24_33
REMARK   13  A    between atoms: C24_33  and  C25_34
REMARK   14  A    between atoms: C25_34  and  C26_35
ROOT
HETATM    1  C14 UNL     1       7.208   6.669  12.688  1.00  0.00     0.078 C
HETATM    2  C15 UNL     1       6.153   7.671  12.895  1.00  0.00     0.048 C
HETATM    3  O6  UNL     1       7.028   5.996  11.405  1.00  0.00    -0.333 OA
HETATM    4  C16 UNL     1       7.344   6.298  10.118  1.00  0.00     0.140 A
HETATM    5  C17 UNL     1       7.868   7.537   9.712  1.00  0.00     0.024 A
HETATM    6  C18 UNL     1       8.064   7.487   8.361  1.00  0.00     0.159 A
HETATM    7  O7  UNL     1       7.688   6.297   7.952  1.00  0.00    -0.297 OA
HETATM    8  C19 UNL     1       7.257   5.568   8.969  1.00  0.00     0.218 A
HETATM    9  C20 UNL     1       8.137   8.678  10.601  1.00  0.00     0.013 C
HETATM   10  C21 UNL     1       8.440   8.550  11.871  1.00  0.00    -0.009 C
HETATM   11  C22 UNL     1       8.599   7.308  12.734  1.00  0.00     0.023 C
HETATM   12  C23 UNL     1       9.552   6.412  12.054  1.00  0.00     0.027 C
ENDROOT
BRANCH   1  13
HETATM   13  C13 UNL     1       7.106   5.516  13.672  1.00  0.00     0.042 C
BRANCH  13  14
HETATM   14  C12 UNL     1       7.308   4.154  13.161  1.00  0.00     0.041 C
BRANCH  14  15
HETATM   15  C11 UNL     1       6.270   3.157  13.467  1.00  0.00     0.191 A
HETATM   16  C8  UNL     1       6.109   1.859  12.953  1.00  0.00     0.226 A
HETATM   17  O5  UNL     1       5.286   2.986  12.371  1.00  0.00    -0.339 OA
BRANCH  16  18
HETATM   18  C3  UNL     1       6.902   1.312  11.766  1.00  0.00     0.197 C
BRANCH  18  19
HETATM   19  C2  UNL     1       7.929   0.291  12.169  1.00  0.00     0.033 C
HETATM   20  C1  UNL     1       8.758   0.957  13.277  1.00  0.00     0.007 C
ENDBRANCH  18  19
BRANCH  18  21
HETATM   21  O1  UNL     1       5.994   0.618  10.893  1.00  0.00    -0.310 OA
BRANCH  21  22
HETATM   22  C4  UNL     1       6.286   0.346   9.583  1.00  0.00     0.262 C
HETATM   23  O2  UNL     1       6.406   1.331   8.797  1.00  0.00    -0.265 OA
BRANCH  22  24
HETATM   24  C5  UNL     1       6.449  -1.052   9.142  1.00  0.00     0.077 C
HETATM   25  C6  UNL     1       7.876  -1.460   8.927  1.00  0.00     0.020 C
HETATM   26  C7  UNL     1       5.646  -1.349   7.892  1.00  0.00     0.020 C
ENDBRANCH  22  24
ENDBRANCH  21  22
ENDBRANCH  18  21
ENDBRANCH  16  18
BRANCH  16  27
HETATM   27  O3  UNL     1       5.361   0.860  13.543  1.00  0.00    -0.278 OA
BRANCH  27  28
HETATM   28  C9  UNL     1       5.163   0.523  14.837  1.00  0.00     0.257 C
HETATM   29  C10 UNL     1       6.316   0.071  15.681  1.00  0.00     0.126 C
HETATM   30  O4  UNL     1       4.031   0.580  15.348  1.00  0.00    -0.266 OA
ENDBRANCH  27  28
ENDBRANCH  16  27
ENDBRANCH  14  15
ENDBRANCH  13  14
ENDBRANCH   1  13
BRANCH  11  31
HETATM   31  C24 UNL     1       8.950   7.794  14.069  1.00  0.00    -0.012 C
BRANCH  31  32
HETATM   32  C25 UNL     1       9.201   9.179  14.413  1.00  0.00     0.006 C
BRANCH  32  33
HETATM   33  C26 UNL     1      10.466   9.656  15.033  1.00  0.00     0.177 C
HETATM   34  C27 UNL     1      10.334   9.403  16.539  1.00  0.00     0.006 C
HETATM   35  C28 UNL     1      11.374   9.245  17.314  1.00  0.00    -0.018 C
HETATM   36  C29 UNL     1      12.756   9.298  16.806  1.00  0.00     0.138 C
HETATM   37  C30 UNL     1      12.802   9.046  15.331  1.00  0.00     0.263 C
HETATM   38  O9  UNL     1      13.941   8.978  14.806  1.00  0.00    -0.265 OA
HETATM   39  O10 UNL     1      11.618   8.902  14.623  1.00  0.00    -0.308 OA
ENDBRANCH  32  33
ENDBRANCH  31  32
ENDBRANCH  11  31
BRANCH   8  40
HETATM   40  O8  UNL     1       6.774   4.258   8.957  1.00  0.00    -0.339 OA
ATOM     41  H8  UNL     1       6.651   3.772   8.150  1.00  0.00     0.220 HD
ENDBRANCH   8  40
TORSDOF 14
ENDMDL