MODEL 4
REMARK VINA RESULT: -6.483313419      1.741      3.078
REMARK  13 active torsions:
REMARK  status: ('A' for Active; 'I' for Inactive)
REMARK    1  A    between atoms: O1_2  and  C2_3
REMARK    2  A    between atoms: C2_3  and  C3_5
REMARK    3  A    between atoms: C4_6  and  C5_7
REMARK    4  A    between atoms: C5_7  and  O3_8
REMARK    5  A    between atoms: C5_7  and  C6_10
REMARK    6  A    between atoms: C5_7  and  C15_22
REMARK    7  A    between atoms: C8_12  and  O4_13
REMARK    8  A    between atoms: C10_15  and  O5_16
REMARK    9  A    between atoms: C12_18  and  O6_19
REMARK   10  A    between atoms: C21_31  and  C22_32
REMARK   11  A    between atoms: C24_34  and  O8_35
REMARK   12  A    between atoms: C26_37  and  O9_38
REMARK   13  A    between atoms: C28_40  and  O10_41
ROOT
HETATM    1  C3  UNL     1       8.100   7.064  12.181  1.00  0.00     0.104 A
HETATM    2  C4  UNL     1       7.640   8.318  12.382  1.00  0.00     0.091 A
HETATM    3  N1  UNL     1       6.284   8.099  12.643  1.00  0.00    -0.260 N
ATOM      4  H1  UNL     1       5.625   8.851  12.843  1.00  0.00     0.194 HD
HETATM    5  O7  UNL     1       5.965   6.915  12.609  1.00  0.00    -0.236 OA
HETATM    6  C21 UNL     1       7.035   6.175  12.326  1.00  0.00     0.127 A
ENDROOT
BRANCH   2   7
HETATM    7  C5  UNL     1       8.092   9.677  12.421  1.00  0.00     0.134 C
BRANCH   7   8
HETATM    8  O3  UNL     1       6.850  10.384  12.830  1.00  0.00    -0.378 OA
ATOM      9  H3  UNL     1       7.123  11.292  12.764  1.00  0.00     0.211 HD
ENDBRANCH   7   8
BRANCH   7  10
HETATM   10  C6  UNL     1       8.950   9.924  13.644  1.00  0.00    -0.012 A
HETATM   11  C7  UNL     1       8.392  10.254  14.862  1.00  0.00     0.050 A
HETATM   12  C8  UNL     1       9.166  10.453  15.977  1.00  0.00     0.104 A
HETATM   13  C10 UNL     1      10.533  10.311  15.855  1.00  0.00     0.135 A
HETATM   14  C12 UNL     1      11.135   9.983  14.661  1.00  0.00     0.104 A
HETATM   15  C14 UNL     1      10.326   9.795  13.567  1.00  0.00     0.050 A
BRANCH  12  16
HETATM   16  O4  UNL     1       8.693  10.790  17.231  1.00  0.00    -0.353 OA
HETATM   17  C9  UNL     1       8.587  12.121  17.652  1.00  0.00     0.210 C
ENDBRANCH  12  16
BRANCH  13  18
HETATM   18  O5  UNL     1      11.346  10.504  16.978  1.00  0.00    -0.351 OA
HETATM   19  C11 UNL     1      11.607   9.388  17.793  1.00  0.00     0.210 C
ENDBRANCH  13  18
BRANCH  14  20
HETATM   20  O6  UNL     1      12.501   9.866  14.664  1.00  0.00    -0.353 OA
HETATM   21  C13 UNL     1      13.165   8.606  14.793  1.00  0.00     0.210 C
ENDBRANCH  14  20
ENDBRANCH   7  10
BRANCH   7  22
HETATM   22  C15 UNL     1       8.680  10.460  11.347  1.00  0.00     0.031 C
HETATM   23  C16 UNL     1       8.384  10.047   9.963  1.00  0.00     0.008 C
HETATM   24  C17 UNL     1       9.343  10.690   8.953  1.00  0.00     0.001 C
HETATM   25  C18 UNL     1       9.083  12.192   9.087  1.00  0.00     0.000 C
HETATM   26  C19 UNL     1       9.355  12.646  10.471  1.00  0.00     0.001 C
HETATM   27  C20 UNL     1       8.386  11.972  11.447  1.00  0.00     0.008 C
ENDBRANCH   7  22
ENDBRANCH   2   7
BRANCH   1  28
HETATM   28  C2  UNL     1       9.433   6.652  11.910  1.00  0.00     0.298 C
HETATM   29  O2  UNL     1      10.125   6.163  12.873  1.00  0.00    -0.259 OA
BRANCH  28  30
HETATM   30  O1  UNL     1      10.100   6.726  10.691  1.00  0.00    -0.322 OA
HETATM   31  C1  UNL     1      11.151   7.641  10.489  1.00  0.00     0.213 C
ENDBRANCH  28  30
ENDBRANCH   1  28
BRANCH   6  32
HETATM   32  C22 UNL     1       6.941   4.723  12.231  1.00  0.00     0.006 A
HETATM   33  C23 UNL     1       7.281   3.820  13.183  1.00  0.00     0.054 A
HETATM   34  C24 UNL     1       7.115   2.427  13.066  1.00  0.00     0.105 A
HETATM   35  C26 UNL     1       6.566   1.908  11.904  1.00  0.00     0.135 A
HETATM   36  C28 UNL     1       6.218   2.803  10.934  1.00  0.00     0.105 A
HETATM   37  C30 UNL     1       6.383   4.164  11.056  1.00  0.00     0.054 A
BRANCH  34  38
HETATM   38  O8  UNL     1       7.468   1.548  14.041  1.00  0.00    -0.353 OA
HETATM   39  C25 UNL     1       6.813   1.217  15.213  1.00  0.00     0.210 C
ENDBRANCH  34  38
BRANCH  35  40
HETATM   40  O9  UNL     1       6.392   0.539  11.768  1.00  0.00    -0.351 OA
HETATM   41  C27 UNL     1       7.288  -0.315  11.106  1.00  0.00     0.210 C
ENDBRANCH  35  40
BRANCH  36  42
HETATM   42  O10 UNL     1       5.666   2.270   9.768  1.00  0.00    -0.353 OA
HETATM   43  C29 UNL     1       6.181   2.433   8.481  1.00  0.00     0.210 C
ENDBRANCH  36  42
ENDBRANCH   6  32
TORSDOF 13
ENDMDL