MODEL 3
REMARK VINA RESULT: -7.534919302      4.529      8.617
REMARK  16 active torsions:
REMARK  status: ('A' for Active; 'I' for Inactive)
REMARK    1  A    between atoms: O1_2  and  C2_3
REMARK    2  A    between atoms: C4_5  and  C5_6
REMARK    3  A    between atoms: C6_7  and  C7_8
REMARK    4  A    between atoms: C7_8  and  O3_10
REMARK    5  A    between atoms: O3_10  and  C8_11
REMARK    6  A    between atoms: C8_11  and  C9_12
REMARK    7  A    between atoms: C9_12  and  C23_30
REMARK    8  A    between atoms: C10_13  and  C11_14
REMARK    9  A    between atoms: C13_16  and  O4_17
REMARK   10  A    between atoms: C15_20  and  O5_21
REMARK   11  A    between atoms: O5_21  and  C16_22
REMARK   12  A    between atoms: C18_25  and  C19_26
REMARK   13  A    between atoms: C23_30  and  O7_31
REMARK   14  A    between atoms: O7_31  and  C24_32
REMARK   15  A    between atoms: C27_36  and  O9_37
REMARK   16  A    between atoms: C29_39  and  O10_40
ROOT
HETATM    1  C9  UNL     1       6.173   2.415  12.494  1.00  0.00    -0.031 C
HETATM    2  C10 UNL     1       6.152   3.733  12.441  1.00  0.00     0.019 C
ENDROOT
BRANCH   1   3
HETATM    3  C8  UNL     1       5.590   1.758  13.732  1.00  0.00     0.215 C
BRANCH   3   4
HETATM    4  O3  UNL     1       6.541   1.857  14.762  1.00  0.00    -0.314 OA
BRANCH   4   5
HETATM    5  C7  UNL     1       6.993   0.619  15.346  1.00  0.00     0.283 C
HETATM    6  O2  UNL     1       8.134   0.325  14.979  1.00  0.00    -0.260 OA
BRANCH   5   7
HETATM    7  C6  UNL     1       6.112  -0.078  16.230  1.00  0.00     0.083 C
HETATM    8  C5  UNL     1       5.986  -0.173  17.489  1.00  0.00     0.017 C
BRANCH   8   9
HETATM    9  C4  UNL     1       6.649   0.344  18.642  1.00  0.00    -0.031 A
HETATM   10  C3  UNL     1       7.835   1.010  18.697  1.00  0.00     0.051 A
HETATM   11  C2  UNL     1       8.383   1.567  19.861  1.00  0.00     0.105 A
HETATM   12  C29 UNL     1       7.719   1.455  21.047  1.00  0.00     0.135 A
HETATM   13  C27 UNL     1       6.518   0.786  21.035  1.00  0.00     0.105 A
HETATM   14  C26 UNL     1       5.989   0.248  19.903  1.00  0.00     0.051 A
BRANCH  11  15
HETATM   15  O1  UNL     1       9.599   2.236  19.829  1.00  0.00    -0.353 OA
HETATM   16  C1  UNL     1      10.806   1.513  19.768  1.00  0.00     0.210 C
ENDBRANCH  11  15
BRANCH  12  17
HETATM   17  O10 UNL     1       8.212   1.986  22.235  1.00  0.00    -0.351 OA
HETATM   18  C30 UNL     1       8.890   1.108  23.134  1.00  0.00     0.210 C
ENDBRANCH  12  17
BRANCH  13  19
HETATM   19  O9  UNL     1       5.836   0.672  22.264  1.00  0.00    -0.353 OA
HETATM   20  C28 UNL     1       4.887   1.660  22.598  1.00  0.00     0.210 C
ENDBRANCH  13  19
ENDBRANCH   8   9
ENDBRANCH   5   7
ENDBRANCH   4   5
ENDBRANCH   3   4
ENDBRANCH   1   3
BRANCH   1  21
HETATM   21  C23 UNL     1       6.677   1.512  11.450  1.00  0.00     0.215 C
BRANCH  21  22
HETATM   22  O7  UNL     1       6.162   0.180  11.583  1.00  0.00    -0.317 OA
BRANCH  22  23
HETATM   23  C24 UNL     1       6.352  -0.678  10.518  1.00  0.00     0.255 C
HETATM   24  C25 UNL     1       7.704  -0.956   9.985  1.00  0.00     0.126 C
HETATM   25  O8  UNL     1       5.371  -1.241   9.980  1.00  0.00    -0.266 OA
ENDBRANCH  22  23
ENDBRANCH  21  22
ENDBRANCH   1  21
BRANCH   2  26
HETATM   26  C11 UNL     1       6.650   4.559  11.372  1.00  0.00    -0.023 A
HETATM   27  C12 UNL     1       6.347   4.096  10.091  1.00  0.00     0.048 A
HETATM   28  C13 UNL     1       6.695   4.740   8.947  1.00  0.00     0.069 A
HETATM   29  C14 UNL     1       7.380   5.907   9.058  1.00  0.00     0.074 A
HETATM   30  C15 UNL     1       7.700   6.399  10.333  1.00  0.00     0.089 A
HETATM   31  C18 UNL     1       7.353   5.753  11.494  1.00  0.00    -0.006 A
BRANCH  28  32
HETATM   32  O4  UNL     1       6.344   4.192   7.696  1.00  0.00    -0.361 OA
ATOM     33  H4  UNL     1       6.277   3.250   7.593  1.00  0.00     0.217 HD
ENDBRANCH  28  32
BRANCH  30  34
HETATM   34  O5  UNL     1       8.398   7.590  10.380  1.00  0.00    -0.279 OA
BRANCH  34  35
HETATM   35  C16 UNL     1       9.471   7.787   9.524  1.00  0.00     0.260 C
HETATM   36  C17 UNL     1      10.704   6.981   9.679  1.00  0.00     0.126 C
HETATM   37  O6  UNL     1       9.349   8.662   8.632  1.00  0.00    -0.265 OA
ENDBRANCH  34  35
ENDBRANCH  30  34
BRANCH  31  38
HETATM   38  C19 UNL     1       7.698   6.209  12.837  1.00  0.00    -0.021 C
HETATM   39  C20 UNL     1       7.229   7.646  13.120  1.00  0.00     0.019 C
HETATM   40  C21 UNL     1       9.238   6.261  12.914  1.00  0.00     0.019 C
HETATM   41  C22 UNL     1       7.263   5.410  14.004  1.00  0.00     0.019 C
ENDBRANCH  31  38
ENDBRANCH   2  26
TORSDOF 16
ENDMDL