MODEL 1
REMARK VINA RESULT: -7.803051063      0.000      0.000
REMARK  12 active torsions:
REMARK  status: ('A' for Active; 'I' for Inactive)
REMARK    1  A    between atoms: O1_2  and  C2_3
REMARK    2  A    between atoms: C4_5  and  C5_6
REMARK    3  A    between atoms: C8_10  and  O3_11
REMARK    4  A    between atoms: C10_13  and  O4_14
REMARK    5  A    between atoms: C12_16  and  O5_17
REMARK    6  A    between atoms: C16_21  and  C17_22
REMARK    7  A    between atoms: C17_22  and  C18_23
REMARK    8  A    between atoms: C20_25  and  O6_26
REMARK    9  A    between atoms: C22_28  and  O7_29
REMARK   10  A    between atoms: C24_31  and  O8_32
REMARK   11  A    between atoms: C28_36  and  O9_37
REMARK   12  A    between atoms: C30_39  and  O10_40
ROOT
HETATM    1  C5  UNL     1       6.062   4.787  11.964  1.00  0.00     0.166 C
HETATM    2  O2  UNL     1       5.578   3.815  11.059  1.00  0.00    -0.340 OA
HETATM    3  C6  UNL     1       6.078   2.555  10.881  1.00  0.00     0.081 A
HETATM    4  C7  UNL     1       5.643   1.704   9.844  1.00  0.00     0.077 A
HETATM    5  C8  UNL     1       6.180   0.458   9.718  1.00  0.00     0.107 A
HETATM    6  C10 UNL     1       7.145   0.029  10.598  1.00  0.00     0.135 A
HETATM    7  C12 UNL     1       7.570   0.856  11.614  1.00  0.00     0.113 A
HETATM    8  C14 UNL     1       7.043   2.110  11.759  1.00  0.00     0.012 A
HETATM    9  C15 UNL     1       7.492   2.938  12.876  1.00  0.00     0.052 C
HETATM   10  C16 UNL     1       7.242   4.385  12.738  1.00  0.00     0.028 C
ENDROOT
BRANCH  10  11
HETATM   11  C17 UNL     1       7.272   5.076  14.083  1.00  0.00     0.046 C
BRANCH  11  12
HETATM   12  C18 UNL     1       8.027   6.339  14.022  1.00  0.00    -0.052 A
HETATM   13  C19 UNL     1       9.058   6.450  13.126  1.00  0.00     0.047 A
HETATM   14  C20 UNL     1       9.762   7.657  12.947  1.00  0.00     0.104 A
HETATM   15  C22 UNL     1       9.398   8.744  13.701  1.00  0.00     0.135 A
HETATM   16  C24 UNL     1       8.357   8.680  14.632  1.00  0.00     0.104 A
HETATM   17  C26 UNL     1       7.698   7.437  14.751  1.00  0.00     0.047 A
BRANCH  14  18
HETATM   18  O6  UNL     1      10.784   7.760  12.049  1.00  0.00    -0.353 OA
HETATM   19  C21 UNL     1      11.597   6.797  11.519  1.00  0.00     0.210 C
ENDBRANCH  14  18
BRANCH  15  20
HETATM   20  O7  UNL     1      10.063   9.972  13.571  1.00  0.00    -0.351 OA
HETATM   21  C23 UNL     1      11.235  10.081  14.386  1.00  0.00     0.210 C
ENDBRANCH  15  20
BRANCH  16  22
HETATM   22  O8  UNL     1       8.045   9.732  15.330  1.00  0.00    -0.353 OA
HETATM   23  C25 UNL     1       7.967  10.681  16.209  1.00  0.00     0.210 C
ENDBRANCH  16  22
ENDBRANCH  11  12
ENDBRANCH  10  11
BRANCH   1  24
HETATM   24  C4  UNL     1       6.187   6.063  11.224  1.00  0.00    -0.023 A
HETATM   25  C3  UNL     1       6.816   6.098  10.005  1.00  0.00     0.049 A
HETATM   26  C2  UNL     1       6.953   7.243   9.226  1.00  0.00     0.104 A
HETATM   27  C30 UNL     1       6.423   8.433   9.715  1.00  0.00     0.133 A
HETATM   28  C28 UNL     1       5.799   8.394  10.937  1.00  0.00     0.104 A
HETATM   29  C27 UNL     1       5.668   7.250  11.693  1.00  0.00     0.049 A
BRANCH  26  30
HETATM   30  O1  UNL     1       7.579   7.178   8.058  1.00  0.00    -0.353 OA
HETATM   31  C1  UNL     1       7.419   6.605   6.837  1.00  0.00     0.210 C
ENDBRANCH  26  30
BRANCH  27  32
HETATM   32  O10 UNL     1       6.547   9.587   8.953  1.00  0.00    -0.356 OA
ATOM     33  H10 UNL     1       7.397  10.007   8.888  1.00  0.00     0.218 HD
ENDBRANCH  27  32
BRANCH  28  34
HETATM   34  O9  UNL     1       5.290   9.627  11.391  1.00  0.00    -0.353 OA
HETATM   35  C29 UNL     1       3.914   9.922  11.370  1.00  0.00     0.210 C
ENDBRANCH  28  34
ENDBRANCH   1  24
BRANCH   7  36
HETATM   36  O5  UNL     1       8.535   0.427  12.493  1.00  0.00    -0.352 OA
HETATM   37  C13 UNL     1       8.149   0.287  13.845  1.00  0.00     0.210 C
ENDBRANCH   7  36
BRANCH   6  38
HETATM   38  O4  UNL     1       7.681  -1.236  10.459  1.00  0.00    -0.351 OA
HETATM   39  C11 UNL     1       8.198  -1.667   9.236  1.00  0.00     0.210 C
ENDBRANCH   6  38
BRANCH   5  40
HETATM   40  O3  UNL     1       5.767  -0.389   8.717  1.00  0.00    -0.353 OA
HETATM   41  C9  UNL     1       5.633   0.101   7.397  1.00  0.00     0.210 C
ENDBRANCH   5  40
TORSDOF 12
ENDMDL