MODEL 5
REMARK VINA RESULT: -7.377325199     11.951     16.734
REMARK  12 active torsions:
REMARK  status: ('A' for Active; 'I' for Inactive)
REMARK    1  A    between atoms: O1_2  and  C2_3
REMARK    2  A    between atoms: C2_3  and  C3_4
REMARK    3  A    between atoms: C3_4  and  C4_5
REMARK    4  A    between atoms: C3_4  and  C15_19
REMARK    5  A    between atoms: C5_6  and  C6_7
REMARK    6  A    between atoms: C8_9  and  O2_10
REMARK    7  A    between atoms: C10_12  and  O3_13
REMARK    8  A    between atoms: C12_15  and  O4_16
REMARK    9  A    between atoms: C15_19  and  C16_20
REMARK   10  A    between atoms: C18_22  and  O5_23
REMARK   11  A    between atoms: C21_26  and  O6_27
REMARK   12  A    between atoms: C24_32  and  O8_33
ROOT
HETATM    1  C15 UNL     1       7.233   7.019  12.257  1.00  0.00     0.034 C
HETATM    2  C26 UNL     1       5.988   7.983  12.551  1.00  0.00     0.022 C
HETATM    3  C27 UNL     1       5.703   7.974  11.065  1.00  0.00     0.045 C
HETATM    4  C28 UNL     1       7.248   7.721  10.970  1.00  0.00     0.102 A
HETATM    5  C29 UNL     1       7.676   7.245   9.710  1.00  0.00     0.019 A
HETATM    6  C30 UNL     1       8.333   8.232   9.043  1.00  0.00     0.081 A
HETATM    7  C31 UNL     1       8.369   9.402   9.887  1.00  0.00     0.283 A
HETATM    8  O9  UNL     1       8.903  10.516   9.558  1.00  0.00    -0.260 OA
HETATM    9  O10 UNL     1       7.746   9.089  11.054  1.00  0.00    -0.301 OA
ENDROOT
BRANCH   1  10
HETATM   10  C3  UNL     1       6.862   5.639  12.528  1.00  0.00     0.048 C
BRANCH  10  11
HETATM   11  C2  UNL     1       7.422   4.837  13.644  1.00  0.00     0.176 C
BRANCH  11  12
HETATM   12  O1  UNL     1       6.687   3.922  14.290  1.00  0.00    -0.395 OA
HETATM   13  C1  UNL     1       7.115   2.618  14.169  1.00  0.00     0.201 C
ENDBRANCH  11  12
ENDBRANCH  10  11
BRANCH  10  14
HETATM   14  C4  UNL     1       7.046   4.672  11.357  1.00  0.00    -0.018 C
HETATM   15  C5  UNL     1       6.062   3.848  11.037  1.00  0.00     0.008 C
BRANCH  15  16
HETATM   16  C6  UNL     1       6.164   2.913   9.945  1.00  0.00    -0.031 A
HETATM   17  C7  UNL     1       6.214   3.296   8.620  1.00  0.00     0.051 A
HETATM   18  C8  UNL     1       6.298   2.345   7.597  1.00  0.00     0.105 A
HETATM   19  C10 UNL     1       6.328   1.007   7.949  1.00  0.00     0.135 A
HETATM   20  C12 UNL     1       6.278   0.638   9.271  1.00  0.00     0.105 A
HETATM   21  C14 UNL     1       6.198   1.577  10.254  1.00  0.00     0.051 A
BRANCH  18  22
HETATM   22  O2  UNL     1       6.347   2.689   6.281  1.00  0.00    -0.353 OA
HETATM   23  C9  UNL     1       5.927   3.934   5.730  1.00  0.00     0.210 C
ENDBRANCH  18  22
BRANCH  19  24
HETATM   24  O3  UNL     1       6.413   0.067   6.909  1.00  0.00    -0.351 OA
HETATM   25  C11 UNL     1       5.173  -0.498   6.505  1.00  0.00     0.210 C
ENDBRANCH  19  24
BRANCH  20  26
HETATM   26  O4  UNL     1       6.314  -0.731   9.557  1.00  0.00    -0.353 OA
HETATM   27  C13 UNL     1       7.538  -1.353   9.901  1.00  0.00     0.210 C
ENDBRANCH  20  26
ENDBRANCH  15  16
ENDBRANCH  10  14
ENDBRANCH   1  10
BRANCH   1  28
HETATM   28  C16 UNL     1       8.359   7.491  13.143  1.00  0.00    -0.008 A
HETATM   29  C17 UNL     1       7.916   8.350  14.184  1.00  0.00     0.048 A
HETATM   30  C18 UNL     1       8.773   9.047  14.999  1.00  0.00     0.084 A
HETATM   31  C20 UNL     1      10.128   8.916  14.803  1.00  0.00     0.070 A
HETATM   32  C21 UNL     1      11.238   9.462  15.425  1.00  0.00     0.197 A
HETATM   33  C23 UNL     1      10.597   8.107  13.821  1.00  0.00     0.038 A
HETATM   34  O7  UNL     1      12.316   8.992  14.834  1.00  0.00    -0.299 OA
HETATM   35  C22 UNL     1      11.972   8.168  13.857  1.00  0.00     0.160 A
HETATM   36  C24 UNL     1       9.679   7.400  13.003  1.00  0.00     0.088 A
BRANCH  30  37
HETATM   37  O5  UNL     1       8.329   9.870  15.998  1.00  0.00    -0.355 OA
HETATM   38  C19 UNL     1       7.912  11.171  15.742  1.00  0.00     0.210 C
ENDBRANCH  30  37
BRANCH  32  39
HETATM   39  O6  UNL     1      11.164  10.354  16.495  1.00  0.00    -0.340 OA
ATOM     40  H6  UNL     1      11.844  10.984  16.703  1.00  0.00     0.220 HD
ENDBRANCH  32  39
BRANCH  36  41
HETATM   41  O8  UNL     1      10.308   6.617  12.079  1.00  0.00    -0.354 OA
HETATM   42  C25 UNL     1      11.091   7.022  11.001  1.00  0.00     0.210 C
ENDBRANCH  36  41
ENDBRANCH   1  28
TORSDOF 12
ENDMDL