MODEL 1
REMARK VINA RESULT: -5.524684943      0.000      0.000
REMARK  11 active torsions:
REMARK  status: ('A' for Active; 'I' for Inactive)
REMARK    1  A    between atoms: O1_2  and  C2_3
REMARK    2  A    between atoms: C4_5  and  O2_6
REMARK    3  A    between atoms: C6_8  and  C7_9
REMARK    4  A    between atoms: C10_12  and  O3_13
REMARK    5  A    between atoms: C12_15  and  O4_16
REMARK    6  A    between atoms: C17_21  and  O5_22
REMARK    7  A    between atoms: C18_24  and  O6_25
REMARK    8  A    between atoms: C20_27  and  O7_28
REMARK    9  A    between atoms: C22_30  and  O8_31
REMARK   10  A    between atoms: C25_34  and  C26_35
REMARK   11  A    between atoms: C29_39  and  O10_40
ROOT
HETATM    1  C7  UNL     1       7.283   8.622  12.960  1.00  0.00     0.071 A
HETATM    2  C8  UNL     1       7.102   7.247  12.432  1.00  0.00    -0.034 A
HETATM    3  C9  UNL     1       7.434   6.228  13.310  1.00  0.00     0.048 A
HETATM    4  C10 UNL     1       7.307   4.923  12.902  1.00  0.00     0.102 A
HETATM    5  C12 UNL     1       6.859   4.627  11.645  1.00  0.00     0.102 A
HETATM    6  C14 UNL     1       6.517   5.661  10.742  1.00  0.00     0.052 A
HETATM    7  C15 UNL     1       6.652   6.952  11.172  1.00  0.00    -0.013 A
HETATM    8  C16 UNL     1       6.301   8.064  10.271  1.00  0.00     0.021 A
HETATM    9  C17 UNL     1       5.806   7.813   9.004  1.00  0.00     0.113 A
HETATM   10  C18 UNL     1       5.449   8.891   8.204  1.00  0.00     0.138 A
HETATM   11  C20 UNL     1       5.574  10.193   8.635  1.00  0.00     0.138 A
HETATM   12  C22 UNL     1       6.072  10.397   9.901  1.00  0.00     0.112 A
HETATM   13  C24 UNL     1       6.442   9.334  10.734  1.00  0.00     0.004 A
HETATM   14  C25 UNL     1       6.970   9.722  12.043  1.00  0.00     0.105 A
ENDROOT
BRANCH   1  15
HETATM   15  C6  UNL     1       8.633   8.636  13.592  1.00  0.00    -0.012 A
HETATM   16  C4  UNL     1       8.837   9.211  14.828  1.00  0.00     0.078 A
HETATM   17  C3  UNL     1      10.087   9.188  15.388  1.00  0.00     0.077 A
HETATM   18  C2  UNL     1      11.171   8.606  14.770  1.00  0.00     0.104 A
HETATM   19  C29 UNL     1      10.986   8.029  13.540  1.00  0.00     0.102 A
HETATM   20  C28 UNL     1       9.729   8.052  12.975  1.00  0.00     0.050 A
BRANCH  16  21
HETATM   21  O2  UNL     1       7.748   9.816  15.490  1.00  0.00    -0.355 OA
HETATM   22  C5  UNL     1       7.880  10.974  16.251  1.00  0.00     0.210 C
ENDBRANCH  16  21
BRANCH  18  23
HETATM   23  O1  UNL     1      12.424   8.620  15.406  1.00  0.00    -0.353 OA
HETATM   24  C1  UNL     1      12.557   9.039  16.734  1.00  0.00     0.210 C
ENDBRANCH  18  23
BRANCH  19  25
HETATM   25  O10 UNL     1      12.085   7.449  12.932  1.00  0.00    -0.353 OA
HETATM   26  C30 UNL     1      11.880   6.618  11.818  1.00  0.00     0.210 C
ENDBRANCH  19  25
ENDBRANCH   1  15
BRANCH  14  27
HETATM   27  C26 UNL     1       8.120  10.688  11.873  1.00  0.00     0.132 C
HETATM   28  C27 UNL     1       8.225  11.927  12.682  1.00  0.00     0.091 C
HETATM   29  O9  UNL     1       9.019  10.511  11.062  1.00  0.00    -0.298 OA
ENDBRANCH  14  27
BRANCH   4  30
HETATM   30  O3  UNL     1       7.628   3.849  13.747  1.00  0.00    -0.353 OA
HETATM   31  C11 UNL     1       6.634   2.922  14.149  1.00  0.00     0.210 C
ENDBRANCH   4  30
BRANCH  12  32
HETATM   32  O8  UNL     1       6.183  11.737  10.309  1.00  0.00    -0.352 OA
HETATM   33  C23 UNL     1       5.102  12.489  10.777  1.00  0.00     0.210 C
ENDBRANCH  12  32
BRANCH   5  34
HETATM   34  O4  UNL     1       6.736   3.312  11.246  1.00  0.00    -0.353 OA
HETATM   35  C13 UNL     1       6.044   2.983  10.063  1.00  0.00     0.210 C
ENDBRANCH   5  34
BRANCH   9  36
HETATM   36  O5  UNL     1       5.631   6.582   8.461  1.00  0.00    -0.357 OA
ATOM     37  H5  UNL     1       4.990   6.362   7.795  1.00  0.00     0.217 HD
ENDBRANCH   9  36
BRANCH  11  38
HETATM   38  O7  UNL     1       5.224  11.283   7.855  1.00  0.00    -0.351 OA
HETATM   39  C21 UNL     1       6.133  11.970   7.024  1.00  0.00     0.210 C
ENDBRANCH  11  38
BRANCH  10  40
HETATM   40  O6  UNL     1       4.941   8.696   6.912  1.00  0.00    -0.351 OA
HETATM   41  C19 UNL     1       5.895   8.517   5.881  1.00  0.00     0.210 C
ENDBRANCH  10  40
TORSDOF 11
ENDMDL