MODEL 1
REMARK VINA RESULT: -9.768579992      0.000      0.000
REMARK  15 active torsions:
REMARK  status: ('A' for Active; 'I' for Inactive)
REMARK    1  A    between atoms: C2_2  and  C3_3
REMARK    2  A    between atoms: C3_3  and  O2_5
REMARK    3  A    between atoms: O2_5  and  C4_6
REMARK    4  A    between atoms: C4_6  and  C5_7
REMARK    5  A    between atoms: C8_11  and  O4_12
REMARK    6  A    between atoms: C9_14  and  C10_15
REMARK    7  A    between atoms: C10_15  and  C11_16
REMARK    8  A    between atoms: C12_17  and  C14_19
REMARK    9  A    between atoms: C14_19  and  C15_20
REMARK   10  A    between atoms: C15_20  and  C16_21
REMARK   11  A    between atoms: C16_21  and  O6_23
REMARK   12  A    between atoms: C22_30  and  O8_31
REMARK   13  A    between atoms: O8_31  and  C23_32
REMARK   14  A    between atoms: C23_32  and  C24_34
REMARK   15  A    between atoms: C24_34  and  C26_36
ROOT
HETATM    1  C5  UNL     1       7.444   2.240  19.977  1.00  0.00     0.177 C
HETATM    2  C6  UNL     1       8.513   1.657  20.844  1.00  0.00     0.210 C
HETATM    3  O3  UNL     1       8.048   0.886  21.921  1.00  0.00    -0.343 OA
HETATM    4  C7  UNL     1       6.842   1.152  22.575  1.00  0.00     0.137 A
HETATM    5  C8  UNL     1       6.591   0.663  23.860  1.00  0.00     0.111 A
HETATM    6  C9  UNL     1       5.392   0.948  24.469  1.00  0.00     0.016 A
HETATM    7  C18 UNL     1       4.463   1.712  23.794  1.00  0.00     0.093 A
HETATM    8  C19 UNL     1       4.745   2.186  22.511  1.00  0.00     0.037 A
HETATM    9  C20 UNL     1       5.942   1.905  21.895  1.00  0.00     0.118 A
HETATM   10  O7  UNL     1       6.204   2.374  20.639  1.00  0.00    -0.338 OA
HETATM   11  C21 UNL     1       3.716   2.976  21.898  1.00  0.00     0.053 A
HETATM   12  C22 UNL     1       2.523   3.280  22.476  1.00  0.00     0.092 A
HETATM   13  C28 UNL     1       2.240   2.780  23.810  1.00  0.00     0.109 A
HETATM   14  C29 UNL     1       2.094   3.968  24.773  1.00  0.00     0.053 C
HETATM   15  C30 UNL     1       0.999   1.892  23.895  1.00  0.00     0.053 C
HETATM   16  O10 UNL     1       3.270   1.999  24.390  1.00  0.00    -0.333 OA
ENDROOT
BRANCH   6  17
HETATM   17  C10 UNL     1       5.152   0.411  25.829  1.00  0.00     0.072 C
BRANCH  17  18
HETATM   18  C11 UNL     1       3.996  -0.511  25.893  1.00  0.00    -0.020 C
HETATM   19  C12 UNL     1       4.101  -1.766  26.303  1.00  0.00    -0.087 C
HETATM   20  C13 UNL     1       5.428  -2.292  26.719  1.00  0.00     0.043 C
BRANCH  19  21
HETATM   21  C14 UNL     1       2.896  -2.662  26.354  1.00  0.00     0.043 C
BRANCH  21  22
HETATM   22  C15 UNL     1       1.641  -1.837  26.365  1.00  0.00     0.115 C
BRANCH  22  23
HETATM   23  C16 UNL     1       0.878  -2.080  25.111  1.00  0.00     0.258 C
HETATM   24  O5  UNL     1       1.079  -1.360  24.102  1.00  0.00    -0.265 OA
BRANCH  23  25
HETATM   25  O6  UNL     1      -0.064  -3.107  25.041  1.00  0.00    -0.326 OA
HETATM   26  C17 UNL     1      -0.082  -4.055  26.096  1.00  0.00     0.213 C
ENDBRANCH  23  25
ENDBRANCH  22  23
ENDBRANCH  21  22
ENDBRANCH  19  21
ENDBRANCH  17  18
ENDBRANCH   6  17
BRANCH   5  27
HETATM   27  O4  UNL     1       7.542  -0.091  24.497  1.00  0.00    -0.357 OA
ATOM     28  H4  UNL     1       7.297  -0.626  25.243  1.00  0.00     0.217 HD
ENDBRANCH   5  27
BRANCH  12  29
HETATM   29  O8  UNL     1       1.744   4.051  21.653  1.00  0.00    -0.280 OA
BRANCH  29  30
HETATM   30  C23 UNL     1       0.777   3.829  20.777  1.00  0.00     0.267 C
HETATM   31  O9  UNL     1       0.543   2.649  20.447  1.00  0.00    -0.264 OA
BRANCH  30  32
HETATM   32  C24 UNL     1      -0.079   4.869  20.133  1.00  0.00     0.081 C
HETATM   33  C25 UNL     1       0.361   5.044  18.696  1.00  0.00     0.020 C
BRANCH  32  34
HETATM   34  C26 UNL     1      -1.533   4.479  20.144  1.00  0.00     0.010 C
HETATM   35  C27 UNL     1      -2.279   5.556  20.902  1.00  0.00     0.006 C
ENDBRANCH  32  34
ENDBRANCH  30  32
ENDBRANCH  29  30
ENDBRANCH  12  29
BRANCH   1  36
HETATM   36  C4  UNL     1       7.247   1.345  18.771  1.00  0.00     0.213 C
BRANCH  36  37
HETATM   37  O2  UNL     1       7.948   0.120  18.928  1.00  0.00    -0.319 OA
BRANCH  37  38
HETATM   38  C3  UNL     1       8.823  -0.316  17.946  1.00  0.00     0.258 C
HETATM   39  O1  UNL     1      10.046  -0.085  18.105  1.00  0.00    -0.265 OA
BRANCH  38  40
HETATM   40  C2  UNL     1       8.312  -1.035  16.744  1.00  0.00     0.106 C
HETATM   41  C1  UNL     1       8.935  -0.432  15.522  1.00  0.00     0.015 C
ENDBRANCH  38  40
ENDBRANCH  37  38
ENDBRANCH  36  37
ENDBRANCH   1  36
TORSDOF 15
ENDMDL