MODEL 2
REMARK VINA RESULT: -7.763823664      4.138      6.140
REMARK  4 active torsions:
REMARK  status: ('A' for Active; 'I' for Inactive)
REMARK    1  A    between atoms: C3_3  and  C5_5
REMARK    2  A    between atoms: C9_11  and  N2_12
REMARK    3  A    between atoms: C10_18  and  N4_19
REMARK    4  A    between atoms: N4_19  and  C11_21
ROOT
HETATM    1  C5  UNL     1      27.220  33.489  30.463  1.00  0.00     0.075 C
HETATM    2  C6  UNL     1      27.388  31.996  30.835  1.00  0.00     0.035 C
HETATM    3  C7  UNL     1      28.581  34.051  30.397  1.00  0.00     0.001 C
HETATM    4  C8  UNL     1      29.688  33.443  31.156  1.00  0.00     0.064 C
HETATM    5  N1  UNL     1      28.754  35.093  29.642  1.00  0.00    -0.353 N
ATOM      6  H1  UNL     1      29.676  35.521  29.562  1.00  0.00     0.163 HD
HETATM    7  C9  UNL     1      27.633  35.641  28.915  1.00  0.00     0.387 C
HETATM    8  N3  UNL     1      26.798  34.574  28.415  1.00  0.00    -0.336 N
ATOM      9  H3  UNL     1      26.375  34.645  27.489  1.00  0.00     0.164 HD
HETATM   10  C10 UNL     1      26.593  33.546  29.136  1.00  0.00     0.095 C
ENDROOT
BRANCH  10  11
HETATM   11  N4  UNL     1      25.764  32.488  28.638  1.00  0.00    -0.369 N
ATOM     12  H4  UNL     1      25.153  32.021  29.307  1.00  0.00     0.161 HD
BRANCH  11  13
HETATM   13  C11 UNL     1      25.721  32.034  27.288  1.00  0.00     0.032 C
HETATM   14  C12 UNL     1      26.967  32.306  26.491  1.00  0.00     0.035 C
HETATM   15  C13 UNL     1      26.925  31.546  25.178  1.00  0.00    -0.012 C
HETATM   16  C14 UNL     1      25.825  32.216  24.357  1.00  0.00     0.009 C
HETATM   17  C18 UNL     1      26.698  30.082  25.331  1.00  0.00     0.009 C
HETATM   18  C15 UNL     1      24.540  32.022  25.121  1.00  0.00    -0.012 C
HETATM   19  C16 UNL     1      24.279  30.529  25.149  1.00  0.00     0.009 C
HETATM   20  C20 UNL     1      24.556  32.637  26.491  1.00  0.00     0.035 C
HETATM   21  C17 UNL     1      25.349  29.899  25.989  1.00  0.00    -0.012 C
HETATM   22  C19 UNL     1      25.409  30.534  27.334  1.00  0.00     0.035 C
ENDBRANCH  11  13
ENDBRANCH  10  11
BRANCH   1  23
HETATM   23  C3  UNL     1      26.370  34.058  31.536  1.00  0.00    -0.067 C
HETATM   24  C2  UNL     1      25.199  33.570  31.886  1.00  0.00    -0.027 C
HETATM   25  C1  UNL     1      24.397  34.177  32.977  1.00  0.00     0.036 C
HETATM   26  C4  UNL     1      26.888  35.249  32.265  1.00  0.00     0.044 C
ENDBRANCH   1  23
BRANCH   7  27
HETATM   27  N2  UNL     1      28.099  36.402  27.761  1.00  0.00    -0.041 N
ATOM     28  H23 UNL     1      27.651  37.316  27.703  1.00  0.00     0.279 HD
ATOM     29  H22 UNL     1      29.064  36.713  27.875  1.00  0.00     0.279 HD
ATOM     30  H21 UNL     1      27.972  35.863  26.904  1.00  0.00     0.279 HD
ENDBRANCH   7  27
TORSDOF 4
ENDMDL