MODEL 4
REMARK VINA RESULT: -5.886287910      2.084      2.470
REMARK  4 active torsions:
REMARK  status: ('A' for Active; 'I' for Inactive)
REMARK    1  A    between atoms: C2_2  and  S1_4
REMARK    2  A    between atoms: S1_4  and  C4_5
REMARK    3  A    between atoms: C12_15  and  C14_17
REMARK       I    between atoms: C14_17  and  N2_19
REMARK    4  A    between atoms: N2_19  and  N3_21
ROOT
HETATM    1  C4  UNL     1      26.842  34.602  31.953  1.00  0.00     0.043 C
HETATM    2  N1  UNL     1      25.931  34.149  31.187  1.00  0.00    -0.378 N
ATOM      3  H1  UNL     1      24.966  34.477  31.183  1.00  0.00     0.160 HD
HETATM    4  C5  UNL     1      26.437  33.120  30.331  1.00  0.00     0.035 C
HETATM    5  C6  UNL     1      26.207  31.815  31.096  1.00  0.00     0.039 C
HETATM    6  C7  UNL     1      27.883  33.438  30.224  1.00  0.00     0.020 C
HETATM    7  C8  UNL     1      28.066  34.664  29.382  1.00  0.00     0.008 C
HETATM    8  C9  UNL     1      27.437  34.552  28.023  1.00  0.00     0.005 C
HETATM    9  C10 UNL     1      26.000  34.121  28.068  1.00  0.00    -0.007 C
HETATM   10  C11 UNL     1      25.544  33.843  26.683  1.00  0.00     0.024 C
HETATM   11  C12 UNL     1      25.834  32.473  26.156  1.00  0.00     0.039 C
HETATM   12  C13 UNL     1      24.476  31.842  25.807  1.00  0.00     0.025 C
HETATM   13  C15 UNL     1      26.492  31.560  27.129  1.00  0.00     0.019 C
HETATM   14  C16 UNL     1      25.757  31.642  28.446  1.00  0.00     0.009 C
HETATM   15  C17 UNL     1      25.693  33.019  29.032  1.00  0.00     0.018 C
HETATM   16  C18 UNL     1      28.147  33.890  31.677  1.00  0.00     0.071 C
ENDROOT
BRANCH  11  17
HETATM   17  C14 UNL     1      26.603  32.495  24.895  1.00  0.00     0.243 C
HETATM   18  O1  UNL     1      26.144  31.898  23.891  1.00  0.00    -0.271 OA
HETATM   19  N2  UNL     1      27.845  33.159  24.751  1.00  0.00    -0.276 N
ATOM     20  H2  UNL     1      28.233  33.649  25.556  1.00  0.00     0.189 HD
BRANCH  19  21
HETATM   21  N3  UNL     1      28.558  33.171  23.557  1.00  0.00    -0.343 N
ATOM     22  H32 UNL     1      29.555  33.381  23.606  1.00  0.00     0.176 HD
ATOM     23  H31 UNL     1      28.126  32.981  22.653  1.00  0.00     0.176 HD
ENDBRANCH  19  21
ENDBRANCH  11  17
BRANCH   1  24
HETATM   24  S1  UNL     1      26.734  35.883  33.199  1.00  0.00    -0.113 SA
BRANCH  24  25
HETATM   25  C2  UNL     1      25.476  35.557  34.424  1.00  0.00     0.045 C
HETATM   26  C1  UNL     1      25.385  34.084  34.734  1.00  0.00     0.021 C
HETATM   27  C3  UNL     1      24.136  35.982  33.822  1.00  0.00     0.021 C
ENDBRANCH  24  25
ENDBRANCH   1  24
TORSDOF 4
ENDMDL