MODEL 2
REMARK VINA RESULT: -6.149065198      7.028      9.761
REMARK  3 active torsions:
REMARK  status: ('A' for Active; 'I' for Inactive)
REMARK    1  A    between atoms: C8_10  and  C9_11
REMARK    2  A    between atoms: C9_11  and  C10_12
REMARK    3  A    between atoms: C10_12  and  O1_14
ROOT
HETATM    1  C1  UNL     1      21.946  21.750  28.395  1.00  0.00     0.043 C
HETATM    2  C2  UNL     1      21.544  23.070  28.928  1.00  0.00    -0.083 C
HETATM    3  C3  UNL     1      22.276  24.098  28.594  1.00  0.00     0.028 C
HETATM    4  C4  UNL     1      22.151  25.529  28.949  1.00  0.00     0.245 C
HETATM    5  N1  UNL     1      23.140  26.318  28.329  1.00  0.00    -0.373 N
ATOM      6  H1  UNL     1      23.042  26.356  27.315  1.00  0.00     0.161 HD
HETATM    7  C5  UNL     1      24.109  26.981  28.750  1.00  0.00     0.065 C
HETATM    8  C6  UNL     1      24.565  27.166  30.156  1.00  0.00     0.049 C
HETATM    9  C7  UNL     1      25.471  28.396  30.180  1.00  0.00     0.018 C
HETATM   10  C8  UNL     1      25.232  25.959  30.707  1.00  0.00     0.133 C
HETATM   11  O2  UNL     1      24.945  25.521  31.936  1.00  0.00    -0.376 OA
HETATM   12  C12 UNL     1      24.140  26.086  32.824  1.00  0.00     0.141 C
HETATM   13  C13 UNL     1      25.033  26.827  33.853  1.00  0.00     0.044 C
HETATM   14  C14 UNL     1      23.323  25.123  33.642  1.00  0.00     0.007 C
HETATM   15  C15 UNL     1      22.518  24.200  33.195  1.00  0.00    -0.083 C
HETATM   16  C16 UNL     1      21.788  23.334  34.206  1.00  0.00     0.043 C
HETATM   17  C17 UNL     1      22.238  23.904  31.765  1.00  0.00     0.065 C
HETATM   18  C18 UNL     1      21.385  24.942  31.081  1.00  0.00     0.128 C
HETATM   19  C19 UNL     1      20.142  24.345  30.454  1.00  0.00     0.036 C
HETATM   20  C20 UNL     1      20.334  23.038  29.786  1.00  0.00     0.036 C
HETATM   21  O3  UNL     1      22.041  25.800  30.258  1.00  0.00    -0.358 OA
ENDROOT
BRANCH  10  22
HETATM   22  C9  UNL     1      26.739  25.999  30.403  1.00  0.00     0.064 C
BRANCH  22  23
HETATM   23  C10 UNL     1      27.159  24.995  29.389  1.00  0.00     0.116 C
HETATM   24  C11 UNL     1      26.067  23.913  29.394  1.00  0.00     0.039 C
BRANCH  23  25
HETATM   25  O1  UNL     1      27.405  25.459  28.126  1.00  0.00    -0.396 OA
ATOM     26  H1  UNL     1      26.720  25.329  27.481  1.00  0.00     0.210 HD
ENDBRANCH  23  25
ENDBRANCH  22  23
ENDBRANCH  10  22
TORSDOF 3
ENDMDL