MODEL 4
REMARK VINA RESULT: -8.233024132      5.717      8.799
REMARK  4 active torsions:
REMARK  status: ('A' for Active; 'I' for Inactive)
REMARK    1  A    between atoms: C6_6  and  C7_7
REMARK    2  A    between atoms: C7_7  and  C8_8
REMARK    3  A    between atoms: C12_12  and  O1_14
REMARK    4  A    between atoms: N1_24  and  O3_26
ROOT
HETATM    1  C8  UNL     1      26.755  33.316  27.630  1.00  0.00    -0.003 C
HETATM    2  C9  UNL     1      25.830  32.553  28.560  1.00  0.00     0.006 C
HETATM    3  C10 UNL     1      25.576  31.273  27.791  1.00  0.00     0.009 C
HETATM    4  C11 UNL     1      26.296  31.403  26.492  1.00  0.00     0.036 C
HETATM    5  C12 UNL     1      25.784  30.587  25.383  1.00  0.00     0.118 C
HETATM    6  C13 UNL     1      26.606  29.285  25.371  1.00  0.00     0.055 C
HETATM    7  C14 UNL     1      26.152  31.263  24.092  1.00  0.00     0.161 C
HETATM    8  O2  UNL     1      25.518  30.996  23.099  1.00  0.00    -0.295 OA
HETATM    9  C15 UNL     1      27.265  32.225  24.075  1.00  0.00     0.082 C
HETATM   10  C16 UNL     1      27.191  33.265  25.155  1.00  0.00     0.017 C
HETATM   11  C17 UNL     1      26.263  32.915  26.290  1.00  0.00    -0.033 C
HETATM   12  C18 UNL     1      24.839  33.309  26.018  1.00  0.00     0.016 C
ENDROOT
BRANCH   1  13
HETATM   13  C7  UNL     1      26.923  34.731  27.964  1.00  0.00     0.033 C
BRANCH  13  14
HETATM   14  C6  UNL     1      27.277  35.096  29.320  1.00  0.00    -0.023 C
HETATM   15  C5  UNL     1      28.135  36.052  29.558  1.00  0.00    -0.078 C
HETATM   16  C4  UNL     1      28.753  36.771  28.414  1.00  0.00     0.035 C
HETATM   17  C19 UNL     1      28.480  36.409  30.978  1.00  0.00     0.088 C
HETATM   18  C3  UNL     1      29.834  37.730  28.885  1.00  0.00     0.014 C
HETATM   19  C2  UNL     1      29.212  38.614  29.917  1.00  0.00     0.030 C
HETATM   20  C1  UNL     1      30.194  39.729  30.235  1.00  0.00     0.016 C
HETATM   21  C20 UNL     1      28.907  37.798  31.112  1.00  0.00     0.017 C
HETATM   22  N1  UNL     1      29.026  38.340  32.270  1.00  0.00    -0.277 N
ATOM     23  H1  UNL     1      29.328  39.313  32.311  1.00  0.00     0.193 HD
BRANCH  22  24
HETATM   24  O3  UNL     1      28.777  37.701  33.449  1.00  0.00    -0.290 OA
ATOM     25  H3  UNL     1      28.099  37.955  34.065  1.00  0.00     0.244 HD
ENDBRANCH  22  24
ENDBRANCH  13  14
ENDBRANCH   1  13
BRANCH   5  26
HETATM   26  O1  UNL     1      24.473  30.190  25.443  1.00  0.00    -0.382 OA
ATOM     27  H1  UNL     1      23.988  30.156  24.626  1.00  0.00     0.211 HD
ENDBRANCH   5  26
TORSDOF 4
ENDMDL