MODEL 5
REMARK VINA RESULT: -5.967689987      6.139      8.464
REMARK  8 active torsions:
REMARK  status: ('A' for Active; 'I' for Inactive)
REMARK    1  A    between atoms: C2_2  and  S1_3
REMARK    2  A    between atoms: S1_3  and  C3_4
REMARK    3  A    between atoms: C3_4  and  N1_5
REMARK    4  A    between atoms: C3_4  and  S2_19
REMARK    5  A    between atoms: N1_5  and  C4_7
REMARK    6  A    between atoms: C7_10  and  C8_11
REMARK    7  A    between atoms: C8_11  and  O1_14
REMARK    8  A    between atoms: S2_19  and  C13_20
ROOT
HETATM    1  C4  UNL     1      26.837  34.728  28.377  1.00  0.00     0.111 C
HETATM    2  C5  UNL     1      25.949  35.134  27.252  1.00  0.00     0.030 C
HETATM    3  C6  UNL     1      25.502  33.921  26.423  1.00  0.00     0.037 C
HETATM    4  C7  UNL     1      26.675  32.983  26.437  1.00  0.00     0.155 C
HETATM    5  O2  UNL     1      26.746  32.406  27.687  1.00  0.00    -0.376 OA
HETATM    6  C11 UNL     1      26.794  33.278  28.734  1.00  0.00     0.140 C
HETATM    7  C12 UNL     1      25.663  33.006  29.702  1.00  0.00     0.041 C
ENDROOT
BRANCH   1   8
HETATM    8  N1  UNL     1      28.215  35.175  28.231  1.00  0.00    -0.372 N
ATOM      9  H1  UNL     1      28.674  35.060  27.327  1.00  0.00     0.161 HD
BRANCH   8  10
HETATM   10  C3  UNL     1      28.947  35.765  29.292  1.00  0.00     0.104 C
BRANCH  10  11
HETATM   11  S1  UNL     1      28.214  36.878  30.229  1.00  0.00    -0.106 SA
BRANCH  11  12
HETATM   12  C2  UNL     1      29.154  38.199  31.074  1.00  0.00     0.077 C
HETATM   13  C1  UNL     1      29.797  39.079  30.011  1.00  0.00     0.016 C
ENDBRANCH  11  12
ENDBRANCH  10  11
BRANCH  10  14
HETATM   14  S2  UNL     1      30.613  35.336  29.641  1.00  0.00    -0.097 SA
BRANCH  14  15
HETATM   15  C13 UNL     1      30.820  34.315  31.120  1.00  0.00     0.004 C
HETATM   16  C14 UNL     1      29.605  33.500  31.429  1.00  0.00     0.026 C
HETATM   17  C15 UNL     1      31.970  33.338  30.838  1.00  0.00     0.026 C
HETATM   18  C16 UNL     1      31.204  35.122  32.322  1.00  0.00     0.026 C
ENDBRANCH  14  15
ENDBRANCH  10  14
ENDBRANCH   8  10
ENDBRANCH   1   8
BRANCH   4  19
HETATM   19  C8  UNL     1      26.601  31.909  25.400  1.00  0.00     0.076 C
HETATM   20  C9  UNL     1      27.492  32.132  24.218  1.00  0.00     0.048 C
HETATM   21  C10 UNL     1      25.166  31.658  24.981  1.00  0.00     0.048 C
BRANCH  19  22
HETATM   22  O1  UNL     1      27.034  30.716  26.021  1.00  0.00    -0.388 OA
ATOM     23  H1  UNL     1      27.944  30.849  26.261  1.00  0.00     0.210 HD
ENDBRANCH  19  22
ENDBRANCH   4  19
TORSDOF 8
ENDMDL