MODEL 4
REMARK VINA RESULT: -6.189787920      2.960      6.682
REMARK  4 active torsions:
REMARK  status: ('A' for Active; 'I' for Inactive)
REMARK    1  A    between atoms: O1_2  and  C2_3
REMARK    2  A    between atoms: C6_7  and  O2_9
REMARK    3  A    between atoms: C8_11  and  C9_12
REMARK    4  A    between atoms: C13_16  and  O3_17
ROOT
HETATM    1  C9  UNL     1      25.664  32.616  28.931  1.00  0.00    -0.014 C
HETATM    2  C10 UNL     1      26.162  32.691  30.138  1.00  0.00    -0.083 C
HETATM    3  C11 UNL     1      27.592  32.310  30.301  1.00  0.00     0.037 C
HETATM    4  C12 UNL     1      28.141  32.641  31.649  1.00  0.00     0.043 C
HETATM    5  C13 UNL     1      27.585  31.963  32.806  1.00  0.00     0.075 C
HETATM    6  C14 UNL     1      27.000  30.600  32.614  1.00  0.00     0.082 C
HETATM    7  C15 UNL     1      25.661  30.829  31.996  1.00  0.00     0.023 C
HETATM    8  C16 UNL     1      25.292  32.218  32.432  1.00  0.00    -0.002 C
HETATM    9  C17 UNL     1      25.279  33.147  31.253  1.00  0.00     0.039 C
HETATM   10  C18 UNL     1      26.367  32.665  33.428  1.00  0.00     0.035 C
HETATM   11  C19 UNL     1      26.168  32.017  34.785  1.00  0.00     0.082 C
HETATM   12  S1  UNL     1      26.629  30.275  34.395  1.00  0.00    -0.161 SA
ENDROOT
BRANCH   1  13
HETATM   13  C8  UNL     1      26.354  32.197  27.708  1.00  0.00     0.071 C
HETATM   14  C2  UNL     1      26.543  33.426  26.843  1.00  0.00     0.131 C
HETATM   15  C3  UNL     1      27.180  33.121  25.519  1.00  0.00     0.033 C
HETATM   16  C4  UNL     1      26.518  31.975  24.793  1.00  0.00     0.006 C
HETATM   17  C5  UNL     1      26.512  30.789  25.732  1.00  0.00     0.038 C
HETATM   18  C6  UNL     1      25.577  31.193  26.880  1.00  0.00     0.063 C
HETATM   19  C7  UNL     1      25.222  29.949  27.611  1.00  0.00     0.046 C
BRANCH  14  20
HETATM   20  O1  UNL     1      27.322  34.384  27.477  1.00  0.00    -0.390 OA
HETATM   21  C1  UNL     1      26.682  35.611  27.374  1.00  0.00     0.202 C
ENDBRANCH  14  20
BRANCH  18  22
HETATM   22  O2  UNL     1      24.473  31.839  26.357  1.00  0.00    -0.389 OA
ATOM     23  H2  UNL     1      23.812  31.921  27.035  1.00  0.00     0.210 HD
ENDBRANCH  18  22
ENDBRANCH   1  13
BRANCH   5  24
HETATM   24  O3  UNL     1      28.574  31.850  33.810  1.00  0.00    -0.388 OA
ATOM     25  H3  UNL     1      28.264  31.275  34.500  1.00  0.00     0.210 HD
ENDBRANCH   5  24
TORSDOF 4
ENDMDL