MODEL 2
REMARK VINA RESULT: -7.187083259      5.618      9.258
REMARK  4 active torsions:
REMARK  status: ('A' for Active; 'I' for Inactive)
REMARK    1  A    between atoms: C2_2  and  O1_4
REMARK    2  A    between atoms: O1_4  and  C4_5
REMARK    3  A    between atoms: C4_5  and  C5_9
REMARK    4  A    between atoms: C19_24  and  O3_25
ROOT
HETATM    1  C5  UNL     1      25.065  30.121  27.113  1.00  0.00     0.061 C
HETATM    2  C6  UNL     1      25.581  30.057  28.556  1.00  0.00     0.013 C
HETATM    3  C7  UNL     1      24.840  28.940  29.243  1.00  0.00     0.009 C
HETATM    4  C8  UNL     1      25.108  27.642  28.559  1.00  0.00     0.027 C
HETATM    5  C9  UNL     1      24.962  27.690  27.067  1.00  0.00    -0.007 C
HETATM    6  C10 UNL     1      25.520  26.403  26.506  1.00  0.00     0.007 C
HETATM    7  C11 UNL     1      25.813  25.375  27.547  1.00  0.00     0.035 C
HETATM    8  C12 UNL     1      24.718  25.227  28.576  1.00  0.00     0.157 C
HETATM    9  O2  UNL     1      25.279  24.572  29.674  1.00  0.00    -0.373 OA
HETATM   10  C13 UNL     1      24.400  23.759  30.339  1.00  0.00     0.054 C
HETATM   11  C14 UNL     1      24.930  23.517  31.737  1.00  0.00     0.045 C
HETATM   12  C15 UNL     1      24.333  22.435  29.626  1.00  0.00     0.045 C
HETATM   13  C16 UNL     1      23.010  24.336  30.453  1.00  0.00     0.037 C
HETATM   14  C17 UNL     1      22.982  25.700  31.055  1.00  0.00     0.006 C
HETATM   15  C18 UNL     1      24.059  26.615  30.549  1.00  0.00     0.041 C
HETATM   16  C19 UNL     1      24.191  26.544  29.058  1.00  0.00     0.088 C
HETATM   17  C20 UNL     1      25.595  28.882  26.428  1.00  0.00     0.018 C
ENDROOT
BRANCH   1  18
HETATM   18  C4  UNL     1      25.650  31.358  26.531  1.00  0.00     0.121 C
HETATM   19  N1  UNL     1      25.052  32.501  26.613  1.00  0.00    -0.383 N
ATOM     20  H12 UNL     1      25.455  33.349  26.213  1.00  0.00     0.158 HD
ATOM     21  H11 UNL     1      24.156  32.500  27.101  1.00  0.00     0.158 HD
BRANCH  18  22
HETATM   22  O1  UNL     1      26.869  31.359  25.867  1.00  0.00    -0.303 OA
BRANCH  22  23
HETATM   23  C2  UNL     1      26.959  31.645  24.515  1.00  0.00     0.042 C
HETATM   24  C1  UNL     1      27.840  32.534  24.113  1.00  0.00     0.046 C
HETATM   25  C3  UNL     1      26.099  30.988  23.497  1.00  0.00     0.076 C
ENDBRANCH  22  23
ENDBRANCH  18  22
ENDBRANCH   1  18
BRANCH  16  26
HETATM   26  O3  UNL     1      22.938  26.779  28.496  1.00  0.00    -0.387 OA
ATOM     27  H3  UNL     1      22.729  26.022  27.964  1.00  0.00     0.210 HD
ENDBRANCH  16  26
TORSDOF 4
ENDMDL