MODEL 1
REMARK VINA RESULT: -6.326958993      0.000      0.000
REMARK  4 active torsions:
REMARK  status: ('A' for Active; 'I' for Inactive)
REMARK    1  A    between atoms: C2_2  and  C5_5
REMARK    2  A    between atoms: C14_18  and  O1_19
REMARK    3  A    between atoms: O1_19  and  C15_20
REMARK    4  A    between atoms: C20_25  and  O2_26
ROOT
HETATM    1  C5  UNL     1      25.055  32.407  25.258  1.00  0.00    -0.007 C
HETATM    2  C6  UNL     1      24.634  31.976  26.620  1.00  0.00     0.006 C
HETATM    3  C7  UNL     1      24.965  33.057  27.626  1.00  0.00     0.012 C
HETATM    4  C8  UNL     1      26.475  33.172  27.838  1.00  0.00    -0.007 C
HETATM    5  C9  UNL     1      27.117  32.529  26.608  1.00  0.00     0.012 C
HETATM    6  C10 UNL     1      26.445  32.982  25.332  1.00  0.00     0.006 C
HETATM    7  C11 UNL     1      26.842  32.327  29.009  1.00  0.00     0.060 C
HETATM    8  C12 UNL     1      27.099  33.059  30.272  1.00  0.00     0.295 C
HETATM    9  C13 UNL     1      25.862  33.322  30.985  1.00  0.00     0.092 C
HETATM   10  N1  UNL     1      24.873  33.529  31.573  1.00  0.00    -0.195 NA
HETATM   11  N2  UNL     1      27.866  34.263  30.128  1.00  0.00    -0.030 N
ATOM     12  H21 UNL     1      28.821  34.089  29.813  1.00  0.00     0.281 HD
ATOM     13  H22 UNL     1      28.095  34.695  31.023  1.00  0.00     0.281 HD
HETATM   14  C14 UNL     1      27.137  35.150  29.247  1.00  0.00     0.352 C
HETATM   15  C20 UNL     1      26.915  34.584  27.891  1.00  0.00     0.183 C
ENDROOT
BRANCH  14  16
HETATM   16  O1  UNL     1      27.913  36.309  29.113  1.00  0.00    -0.352 OA
BRANCH  16  17
HETATM   17  C15 UNL     1      28.914  36.385  30.057  1.00  0.00     0.124 C
HETATM   18  C16 UNL     1      28.721  37.592  30.956  1.00  0.00     0.032 C
HETATM   19  C17 UNL     1      29.418  38.744  30.299  1.00  0.00     0.002 C
HETATM   20  C18 UNL     1      29.932  38.201  28.971  1.00  0.00     0.002 C
HETATM   21  C19 UNL     1      30.204  36.750  29.343  1.00  0.00     0.032 C
ENDBRANCH  16  17
ENDBRANCH  14  16
BRANCH  15  22
HETATM   22  O2  UNL     1      25.967  35.412  27.243  1.00  0.00    -0.390 OA
ATOM     23  H2  UNL     1      25.830  36.206  27.747  1.00  0.00     0.210 HD
ENDBRANCH  15  22
BRANCH   1  24
HETATM   24  C2  UNL     1      24.932  31.312  24.241  1.00  0.00    -0.048 C
HETATM   25  C1  UNL     1      26.213  31.052  23.498  1.00  0.00     0.015 C
HETATM   26  C3  UNL     1      24.528  30.040  24.953  1.00  0.00     0.015 C
HETATM   27  C4  UNL     1      23.877  31.676  23.222  1.00  0.00     0.015 C
ENDBRANCH   1  24
TORSDOF 4
ENDMDL