MODEL 5
REMARK VINA RESULT: -7.015188347      5.085      8.262
REMARK  3 active torsions:
REMARK  status: ('A' for Active; 'I' for Inactive)
REMARK    1  A    between atoms: C10_10  and  O1_11
REMARK    2  A    between atoms: N1_14  and  O2_16
REMARK    3  A    between atoms: O2_16  and  C12_17
ROOT
HETATM    1  C1  UNL     1      23.924  28.728  27.474  1.00  0.00     0.010 C
HETATM    2  C2  UNL     1      25.365  28.986  27.124  1.00  0.00    -0.018 C
HETATM    3  C3  UNL     1      25.507  28.696  25.627  1.00  0.00     0.005 C
HETATM    4  C4  UNL     1      26.621  29.547  25.111  1.00  0.00     0.010 C
HETATM    5  C5  UNL     1      26.184  31.017  25.043  1.00  0.00    -0.040 C
HETATM    6  C6  UNL     1      25.287  31.115  23.802  1.00  0.00     0.015 C
HETATM    7  C7  UNL     1      27.408  31.836  24.886  1.00  0.00     0.010 C
HETATM    8  C8  UNL     1      27.392  33.172  25.530  1.00  0.00     0.009 C
HETATM    9  C9  UNL     1      25.981  33.661  25.683  1.00  0.00     0.025 C
HETATM   10  C10 UNL     1      26.022  34.942  26.527  1.00  0.00     0.170 C
HETATM   11  C11 UNL     1      26.542  34.396  27.804  1.00  0.00     0.039 C
HETATM   12  N1  UNL     1      27.358  34.991  28.575  1.00  0.00    -0.272 N
ATOM     13  H1  UNL     1      27.636  34.499  29.424  1.00  0.00     0.193 HD
HETATM   14  C17 UNL     1      25.918  33.058  27.958  1.00  0.00     0.062 C
HETATM   15  C18 UNL     1      25.278  32.727  26.645  1.00  0.00     0.003 C
HETATM   16  C19 UNL     1      25.366  31.292  26.253  1.00  0.00    -0.001 C
HETATM   17  C20 UNL     1      25.784  30.399  27.430  1.00  0.00     0.010 C
ENDROOT
BRANCH  10  18
HETATM   18  O1  UNL     1      24.732  35.446  26.670  1.00  0.00    -0.389 OA
ATOM     19  H1  UNL     1      24.775  36.354  26.947  1.00  0.00     0.210 HD
ENDBRANCH  10  18
BRANCH  12  20
HETATM   20  O2  UNL     1      27.892  36.216  28.373  1.00  0.00    -0.275 OA
BRANCH  20  21
HETATM   21  C12 UNL     1      28.672  36.920  29.338  1.00  0.00     0.155 C
HETATM   22  C13 UNL     1      29.429  35.903  30.134  1.00  0.00     0.062 C
HETATM   23  C14 UNL     1      30.923  36.132  30.105  1.00  0.00     0.235 C
HETATM   24  N2  UNL     1      31.139  37.532  30.435  1.00  0.00    -0.075 N
HETATM   25  C15 UNL     1      30.760  38.321  29.310  1.00  0.00     0.235 C
ATOM     26  H22 UNL     1      30.659  37.813  31.291  1.00  0.00     0.277 HD
ATOM     27  H21 UNL     1      32.093  37.720  30.743  1.00  0.00     0.277 HD
HETATM   28  C16 UNL     1      29.555  37.867  28.578  1.00  0.00     0.062 C
ENDBRANCH  20  21
ENDBRANCH  12  20
TORSDOF 3
ENDMDL