MODEL 3
REMARK VINA RESULT: -6.833036807      0.955      2.477
REMARK  4 active torsions:
REMARK  status: ('A' for Active; 'I' for Inactive)
REMARK    1  A    between atoms: C3_3  and  C4_4
REMARK    2  A    between atoms: N2_9  and  C7_10
REMARK    3  A    between atoms: C13_16  and  O1_17
REMARK    4  A    between atoms: C20_25  and  O2_26
ROOT
HETATM    1  C7  UNL     1      25.710  32.720  27.571  1.00  0.00     0.120 C
HETATM    2  C8  UNL     1      26.502  32.730  28.799  1.00  0.00     0.033 C
HETATM    3  C9  UNL     1      26.450  34.175  29.363  1.00  0.00    -0.008 C
HETATM    4  C10 UNL     1      26.969  34.081  30.760  1.00  0.00     0.005 C
HETATM    5  C11 UNL     1      27.288  35.376  31.420  1.00  0.00     0.008 C
HETATM    6  C12 UNL     1      27.709  36.409  30.455  1.00  0.00     0.023 C
HETATM    7  C13 UNL     1      28.759  37.355  30.897  1.00  0.00     0.123 C
HETATM    8  C14 UNL     1      29.081  38.068  29.579  1.00  0.00     0.033 C
HETATM    9  C15 UNL     1      28.815  37.041  28.486  1.00  0.00     0.012 C
HETATM   10  C16 UNL     1      28.320  35.799  29.184  1.00  0.00    -0.034 C
HETATM   11  C17 UNL     1      29.486  34.924  29.474  1.00  0.00     0.016 C
HETATM   12  C18 UNL     1      27.186  35.135  28.493  1.00  0.00     0.001 C
HETATM   13  C19 UNL     1      27.537  34.430  27.219  1.00  0.00     0.039 C
HETATM   14  C20 UNL     1      26.206  33.883  26.684  1.00  0.00     0.142 C
ENDROOT
BRANCH   1  15
HETATM   15  N2  UNL     1      25.665  31.572  26.746  1.00  0.00    -0.335 N
HETATM   16  C4  UNL     1      26.019  31.271  25.502  1.00  0.00     0.107 A
HETATM   17  N1  UNL     1      25.738  29.962  25.212  1.00  0.00    -0.351 N
HETATM   18  C5  UNL     1      25.202  29.446  26.298  1.00  0.00     0.107 A
ATOM     19  H1  UNL     1      25.911  29.482  24.329  1.00  0.00     0.166 HD
HETATM   20  C6  UNL     1      25.142  30.402  27.250  1.00  0.00     0.110 A
BRANCH  16  21
HETATM   21  C3  UNL     1      26.617  32.129  24.538  1.00  0.00     0.044 C
HETATM   22  C2  UNL     1      27.937  32.237  24.426  1.00  0.00    -0.027 C
HETATM   23  C1  UNL     1      28.608  33.110  23.443  1.00  0.00     0.036 C
ENDBRANCH  16  21
ENDBRANCH   1  15
BRANCH  14  24
HETATM   24  O2  UNL     1      25.290  34.921  26.775  1.00  0.00    -0.393 OA
ATOM     25  H2  UNL     1      25.192  35.309  25.913  1.00  0.00     0.210 HD
ENDBRANCH  14  24
BRANCH   7  26
HETATM   26  O1  UNL     1      28.199  38.304  31.750  1.00  0.00    -0.395 OA
ATOM     27  H1  UNL     1      27.259  38.177  31.792  1.00  0.00     0.210 HD
ENDBRANCH   7  26
TORSDOF 4
ENDMDL