MODEL 4
REMARK VINA RESULT: -5.547867813      2.935      5.364
REMARK  14 active torsions:
REMARK  status: ('A' for Active; 'I' for Inactive)
REMARK    1  A    between atoms: C2_2  and  O2_4
REMARK    2  A    between atoms: O2_4  and  C3_5
REMARK    3  A    between atoms: C4_6  and  N1_7
REMARK    4  A    between atoms: N1_7  and  N2_9
REMARK    5  A    between atoms: N2_9  and  N3_10
REMARK    6  A    between atoms: C5_13  and  N4_14
REMARK    7  A    between atoms: C6_18  and  O3_19
REMARK    8  A    between atoms: C6_18  and  N5_21
REMARK    9  A    between atoms: C7_25  and  O6_26
REMARK   10  A    between atoms: C7_25  and  O7_28
REMARK   11  A    between atoms: O7_28  and  C8_29
REMARK   12  A    between atoms: C11_33  and  O9_34
REMARK   13  A    between atoms: C12_36  and  O10_37
REMARK   14  A    between atoms: C13_39  and  O11_40
ROOT
HETATM    1  C3  UNL     1     -14.673 -16.068  14.297  1.00  0.00     0.233 C
HETATM    2  C4  UNL     1     -13.423 -16.539  14.926  1.00  0.00     0.186 C
HETATM    3  C5  UNL     1     -12.795 -15.626  15.915  1.00  0.00     0.283 C
HETATM    4  C6  UNL     1     -12.444 -14.277  15.393  1.00  0.00     0.280 C
HETATM    5  S1  UNL     1     -13.990 -13.503  14.800  1.00  0.00    -0.031 SA
HETATM    6  C7  UNL     1     -15.252 -14.811  14.845  1.00  0.00     0.251 C
ENDROOT
BRANCH   6   7
HETATM    7  O6  UNL     1     -15.734 -14.930  16.131  1.00  0.00    -0.355 OA
ATOM      8  H6  UNL     1     -16.508 -14.406  16.304  1.00  0.00     0.214 HD
ENDBRANCH   6   7
BRANCH   6   9
HETATM    9  O7  UNL     1     -16.357 -14.473  14.032  1.00  0.00    -0.311 OA
BRANCH   9  10
HETATM   10  C8  UNL     1     -16.391 -13.129  13.743  1.00  0.00     0.296 C
HETATM   11  O8  UNL     1     -17.391 -12.537  14.549  1.00  0.00    -0.351 OA
HETATM   12  C9  UNL     1     -17.273 -11.153  14.442  1.00  0.00     0.152 C
HETATM   13  C10 UNL     1     -17.986 -10.438  15.541  1.00  0.00     0.042 C
HETATM   14  C11 UNL     1     -17.727 -10.733  13.066  1.00  0.00     0.178 C
HETATM   15  C12 UNL     1     -16.760 -11.362  12.069  1.00  0.00     0.183 C
HETATM   16  C13 UNL     1     -16.812 -12.867  12.310  1.00  0.00     0.204 C
BRANCH  14  17
HETATM   17  O9  UNL     1     -17.723  -9.345  12.942  1.00  0.00    -0.390 OA
ATOM     18  H9  UNL     1     -16.835  -9.007  12.931  1.00  0.00     0.210 HD
ENDBRANCH  14  17
BRANCH  15  19
HETATM   19  O10 UNL     1     -17.169 -11.147  10.761  1.00  0.00    -0.390 OA
ATOM     20  H10 UNL     1     -16.654 -10.467  10.345  1.00  0.00     0.210 HD
ENDBRANCH  15  19
BRANCH  16  21
HETATM   21  O11 UNL     1     -16.079 -13.576  11.390  1.00  0.00    -0.388 OA
ATOM     22  H11 UNL     1     -16.013 -14.501  11.594  1.00  0.00     0.210 HD
ENDBRANCH  16  21
ENDBRANCH   9  10
ENDBRANCH   6   9
BRANCH   1  23
HETATM   23  O2  UNL     1     -15.677 -17.086  14.431  1.00  0.00    -0.307 OA
BRANCH  23  24
HETATM   24  C2  UNL     1     -16.019 -17.887  13.354  1.00  0.00     0.255 C
HETATM   25  C1  UNL     1     -17.111 -17.560  12.403  1.00  0.00     0.126 C
HETATM   26  O1  UNL     1     -15.352 -18.945  13.192  1.00  0.00    -0.266 OA
ENDBRANCH  23  24
ENDBRANCH   1  23
BRANCH   2  27
HETATM   27  N1  UNL     1     -12.421 -16.834  13.890  1.00  0.00    -0.243 N
ATOM     28  H1  UNL     1     -11.836 -16.080  13.531  1.00  0.00     0.197 HD
BRANCH  27  29
HETATM   29  N2  UNL     1     -12.274 -17.974  13.447  1.00  0.00    -0.248 NA
BRANCH  29  30
HETATM   30  N3  UNL     1     -12.194 -19.067  12.878  1.00  0.00    -0.261 N
ATOM     31  H32 UNL     1     -11.302 -18.709  12.536  1.00  0.00     0.193 HD
ATOM     32  H31 UNL     1     -12.238 -19.996  12.458  1.00  0.00     0.193 HD
ENDBRANCH  29  30
ENDBRANCH  27  29
ENDBRANCH   2  27
BRANCH   4  33
HETATM   33  O3  UNL     1     -11.945 -13.524  16.478  1.00  0.00    -0.356 OA
ATOM     34  H3  UNL     1     -12.532 -13.664  17.212  1.00  0.00     0.213 HD
ENDBRANCH   4  33
BRANCH   4  35
HETATM   35  N5  UNL     1     -11.448 -14.261  14.371  1.00  0.00    -0.103 N
HETATM   36  O4  UNL     1     -11.769 -13.912  13.219  1.00  0.00    -0.533 OA
HETATM   37  O5  UNL     1     -10.158 -14.613  14.607  1.00  0.00    -0.533 OA
ENDBRANCH   4  35
BRANCH   3  38
HETATM   38  N4  UNL     1     -11.570 -16.289  16.395  1.00  0.00    -0.067 N
ATOM     39  H43 UNL     1     -11.596 -16.508  17.391  1.00  0.00     0.275 HD
ATOM     40  H42 UNL     1     -11.471 -17.245  16.054  1.00  0.00     0.275 HD
ATOM     41  H41 UNL     1     -10.786 -15.689  16.138  1.00  0.00     0.275 HD
ENDBRANCH   3  38
TORSDOF 14
ENDMDL