MODEL 2
REMARK VINA RESULT: -6.980882564      5.302      9.564
REMARK  11 active torsions:
REMARK  status: ('A' for Active; 'I' for Inactive)
REMARK    1  A    between atoms: C2_2  and  O1_4
REMARK    2  A    between atoms: C2_2  and  C4_6
REMARK    3  A    between atoms: C4_6  and  C5_8
REMARK    4  A    between atoms: C6_12  and  C7_13
REMARK    5  A    between atoms: C7_13  and  O5_15
REMARK    6  A    between atoms: O5_15  and  C8_16
REMARK    7  A    between atoms: C8_16  and  O6_17
REMARK    8  A    between atoms: C8_16  and  C9_19
REMARK    9  A    between atoms: C12_24  and  N2_25
REMARK   10  A    between atoms: C14_30  and  O11_31
REMARK   11  A    between atoms: C15_33  and  O12_34
ROOT
HETATM    1  O5  UNL     1      -9.177 -12.065  18.923  1.00  0.00    -0.282 OA
ENDROOT
BRANCH   1   2
HETATM    2  C7  UNL     1      -8.320 -12.347  17.888  1.00  0.00     0.317 C
HETATM    3  O4  UNL     1      -7.137 -11.946  18.032  1.00  0.00    -0.257 OA
BRANCH   2   4
HETATM    4  C6  UNL     1      -8.686 -13.058  16.676  1.00  0.00     0.166 A
HETATM    5  N1  UNL     1      -8.830 -12.460  15.468  1.00  0.00    -0.252 N
HETATM    6  O3  UNL     1      -9.160 -13.324  14.558  1.00  0.00    -0.231 OA
ATOM      7  H1  UNL     1      -8.697 -11.463  15.298  1.00  0.00     0.195 HD
HETATM    8  C5  UNL     1      -9.247 -14.517  15.120  1.00  0.00     0.183 A
HETATM    9  C15 UNL     1      -8.951 -14.380  16.465  1.00  0.00     0.140 A
BRANCH   8  10
HETATM   10  C4  UNL     1      -9.596 -15.745  14.425  1.00  0.00     0.221 C
HETATM   11  O2  UNL     1      -8.721 -16.611  14.180  1.00  0.00    -0.287 OA
BRANCH  10  12
HETATM   12  C2  UNL     1     -10.986 -15.999  13.993  1.00  0.00     0.117 C
HETATM   13  C1  UNL     1     -11.098 -17.204  13.090  1.00  0.00     0.054 C
HETATM   14  C3  UNL     1     -11.928 -16.141  15.167  1.00  0.00     0.054 C
BRANCH  12  15
HETATM   15  O1  UNL     1     -11.420 -14.897  13.258  1.00  0.00    -0.382 OA
ATOM     16  H1  UNL     1     -12.159 -14.524  13.725  1.00  0.00     0.211 HD
ENDBRANCH  12  15
ENDBRANCH  10  12
ENDBRANCH   8  10
BRANCH   9  17
HETATM   17  O12 UNL     1      -8.932 -15.376  17.387  1.00  0.00    -0.356 OA
ATOM     18  H12 UNL     1      -8.184 -15.646  17.906  1.00  0.00     0.218 HD
ENDBRANCH   9  17
ENDBRANCH   2   4
ENDBRANCH   1   2
BRANCH   1  19
HETATM   19  C8  UNL     1      -8.978 -12.311  20.268  1.00  0.00     0.295 C
BRANCH  19  20
HETATM   20  O6  UNL     1      -7.662 -12.735  20.565  1.00  0.00    -0.369 OA
ATOM     21  H6  UNL     1      -7.624 -13.622  20.902  1.00  0.00     0.212 HD
ENDBRANCH  19  20
BRANCH  19  22
HETATM   22  C9  UNL     1      -9.278 -11.180  21.186  1.00  0.00     0.151 C
HETATM   23  S1  UNL     1     -11.050 -10.895  21.501  1.00  0.00    -0.136 SA
HETATM   24  C10 UNL     1     -11.148  -9.216  22.239  1.00  0.00     0.157 C
HETATM   25  C11 UNL     1      -9.780  -8.927  22.744  1.00  0.00     0.181 C
HETATM   26  O7  UNL     1      -9.661  -8.177  23.694  1.00  0.00    -0.294 OA
HETATM   27  C12 UNL     1      -8.552  -9.508  22.152  1.00  0.00     0.245 C
HETATM   28  C13 UNL     1      -8.461 -10.975  22.369  1.00  0.00     0.198 C
HETATM   29  C14 UNL     1      -8.733  -9.836  20.678  1.00  0.00     0.199 C
HETATM   30  O10 UNL     1      -7.924 -11.666  23.195  1.00  0.00    -0.292 OA
BRANCH  27  31
HETATM   31  N2  UNL     1      -7.355  -8.767  22.376  1.00  0.00    -0.127 N
HETATM   32  O8  UNL     1      -6.436  -9.187  23.096  1.00  0.00    -0.535 OA
HETATM   33  O9  UNL     1      -7.195  -7.542  21.779  1.00  0.00    -0.535 OA
ENDBRANCH  27  31
BRANCH  29  34
HETATM   34  O11 UNL     1      -7.502 -10.056  20.094  1.00  0.00    -0.390 OA
ATOM     35  H11 UNL     1      -6.870 -10.231  20.782  1.00  0.00     0.210 HD
ENDBRANCH  29  34
ENDBRANCH  19  22
ENDBRANCH   1  19
TORSDOF 11
ENDMDL