MODEL 5
REMARK VINA RESULT: -5.863275841      7.277     10.154
REMARK  10 active torsions:
REMARK  status: ('A' for Active; 'I' for Inactive)
REMARK    1  A    between atoms: N1_1  and  O1_4
REMARK    2  A    between atoms: O1_4  and  N2_5
REMARK    3  A    between atoms: C2_8  and  O3_9
REMARK    4  A    between atoms: O3_9  and  S1_10
REMARK    5  A    between atoms: S1_10  and  N3_11
REMARK    6  A    between atoms: C3_16  and  O6_17
REMARK    7  A    between atoms: O6_17  and  S2_18
REMARK    8  A    between atoms: C5_23  and  N4_24
REMARK    9  A    between atoms: C7_28  and  O12_29
REMARK   10  A    between atoms: C8_31  and  O13_32
ROOT
HETATM    1  N2  UNL     1      -8.792  -8.929  21.995  1.00  0.00    -0.154 N
HETATM    2  C1  UNL     1      -9.982  -9.414  21.622  1.00  0.00     0.311 A
HETATM    3  O2  UNL     1     -11.008  -8.682  21.628  1.00  0.00    -0.262 OA
HETATM    4  C2  UNL     1     -10.139 -10.718  21.215  1.00  0.00     0.197 A
HETATM    5  C3  UNL     1      -8.965 -11.489  21.223  1.00  0.00     0.147 A
HETATM    6  C4  UNL     1      -7.745 -11.006  21.616  1.00  0.00     0.067 A
HETATM    7  C5  UNL     1      -6.601 -11.757  21.749  1.00  0.00     0.121 A
HETATM    8  C6  UNL     1      -5.409 -11.147  22.259  1.00  0.00     0.076 A
HETATM    9  C7  UNL     1      -5.355  -9.841  22.627  1.00  0.00     0.103 A
HETATM   10  C8  UNL     1      -6.504  -9.090  22.502  1.00  0.00     0.129 A
HETATM   11  C9  UNL     1      -7.663  -9.657  22.016  1.00  0.00     0.120 A
ENDROOT
BRANCH   4  12
HETATM   12  O3  UNL     1     -11.342 -11.236  20.837  1.00  0.00    -0.208 OA
BRANCH  12  13
HETATM   13  S1  UNL     1     -12.658 -11.627  21.779  1.00  0.00     0.360 S
HETATM   14  O4  UNL     1     -12.447 -13.049  22.284  1.00  0.00    -0.176 OA
HETATM   15  O5  UNL     1     -13.953 -11.608  21.031  1.00  0.00    -0.176 OA
BRANCH  13  16
HETATM   16  N3  UNL     1     -12.827 -10.639  23.182  1.00  0.00    -0.305 N
ATOM     17  H32 UNL     1     -12.417  -9.708  23.243  1.00  0.00     0.171 HD
ATOM     18  H31 UNL     1     -13.368 -11.074  23.928  1.00  0.00     0.171 HD
ENDBRANCH  13  16
ENDBRANCH  12  13
ENDBRANCH   4  12
BRANCH   5  19
HETATM   19  O6  UNL     1      -9.180 -12.794  20.775  1.00  0.00    -0.210 OA
BRANCH  19  20
HETATM   20  S2  UNL     1      -9.163 -12.994  19.020  1.00  0.00     0.257 S
HETATM   21  O7  UNL     1      -8.572 -11.731  18.476  1.00  0.00    -0.572 OA
HETATM   22  O8  UNL     1     -10.545 -13.288  18.523  1.00  0.00    -0.572 OA
HETATM   23  O9  UNL     1      -8.185 -14.272  18.583  1.00  0.00    -0.572 OA
ENDBRANCH  19  20
ENDBRANCH   5  19
BRANCH   1  24
HETATM   24  O1  UNL     1      -8.677  -7.592  22.389  1.00  0.00    -0.153 OA
BRANCH  24  25
HETATM   25  N1  UNL     1      -9.614  -7.177  23.312  1.00  0.00    -0.285 N
ATOM     26  H12 UNL     1     -10.010  -7.818  23.998  1.00  0.00     0.186 HD
ATOM     27  H11 UNL     1      -9.871  -6.191  23.249  1.00  0.00     0.186 HD
ENDBRANCH  24  25
ENDBRANCH   1  24
BRANCH   7  28
HETATM   28  N4  UNL     1      -6.538 -13.137  21.634  1.00  0.00    -0.115 N
HETATM   29  O10 UNL     1      -6.148 -13.921  20.857  1.00  0.00    -0.532 OA
HETATM   30  O11 UNL     1      -6.984 -13.831  22.845  1.00  0.00    -0.532 OA
ENDBRANCH   7  28
BRANCH  10  31
HETATM   31  O13 UNL     1      -6.502  -7.729  22.871  1.00  0.00    -0.356 OA
ATOM     32  H13 UNL     1      -6.557  -7.484  23.788  1.00  0.00     0.218 HD
ENDBRANCH  10  31
BRANCH   9  33
HETATM   33  O12 UNL     1      -4.213  -9.230  23.117  1.00  0.00    -0.358 OA
ATOM     34  H12 UNL     1      -3.680  -8.628  22.612  1.00  0.00     0.217 HD
ENDBRANCH   9  33
TORSDOF 10
ENDMDL