MODEL 1
REMARK VINA RESULT: -6.591848815      0.000      0.000
REMARK  10 active torsions:
REMARK  status: ('A' for Active; 'I' for Inactive)
REMARK    1  A    between atoms: O1_2  and  C2_3
REMARK       I    between atoms: C2_3  and  N1_5
REMARK    2  A    between atoms: C3_6  and  O3_7
REMARK    3  A    between atoms: C5_9  and  S1_10
REMARK    4  A    between atoms: C6_14  and  N2_15
REMARK    5  A    between atoms: N2_15  and  N3_17
REMARK    6  A    between atoms: N3_17  and  N4_19
REMARK    7  A    between atoms: N4_19  and  C7_21
REMARK    8  A    between atoms: C7_21  and  N5_23
REMARK    9  A    between atoms: C9_27  and  C10_28
REMARK   10  A    between atoms: N7_34  and  O8_35
ROOT
HETATM    1  C2  UNL     1     -10.965 -11.611  14.483  1.00  0.00     0.375 C
HETATM    2  O2  UNL     1     -11.642 -10.591  14.318  1.00  0.00    -0.237 OA
HETATM    3  N1  UNL     1     -11.554 -12.878  14.732  1.00  0.00    -0.200 N
HETATM    4  C3  UNL     1     -12.876 -13.041  14.814  1.00  0.00     0.183 A
HETATM    5  C5  UNL     1     -13.430 -14.307  15.036  1.00  0.00     0.161 A
HETATM    6  C6  UNL     1     -12.566 -15.362  15.163  1.00  0.00     0.093 A
HETATM    7  C9  UNL     1     -11.166 -15.231  15.085  1.00  0.00     0.085 A
HETATM    8  C13 UNL     1     -10.719 -13.965  14.867  1.00  0.00     0.270 A
HETATM    9  O9  UNL     1      -9.491 -13.749  14.782  1.00  0.00    -0.267 OA
ENDROOT
BRANCH   6  10
HETATM   10  N2  UNL     1     -13.108 -16.673  15.373  1.00  0.00    -0.284 N
ATOM     11  H2  UNL     1     -13.008 -17.169  16.259  1.00  0.00     0.188 HD
BRANCH  10  12
HETATM   12  N3  UNL     1     -13.731 -17.182  14.361  1.00  0.00    -0.245 N
ATOM     13  H3  UNL     1     -14.225 -16.544  13.735  1.00  0.00     0.208 HD
BRANCH  12  14
HETATM   14  N4  UNL     1     -13.774 -18.528  14.072  1.00  0.00    -0.292 N
ATOM     15  H4  UNL     1     -14.649 -19.044  14.163  1.00  0.00     0.184 HD
BRANCH  14  16
HETATM   16  C7  UNL     1     -12.579 -19.203  13.641  1.00  0.00     0.293 C
HETATM   17  C8  UNL     1     -12.976 -20.571  13.130  1.00  0.00     0.064 C
BRANCH  16  18
HETATM   18  N5  UNL     1     -11.927 -18.422  12.610  1.00  0.00    -0.058 N
ATOM     19  H53 UNL     1     -12.466 -17.594  12.355  1.00  0.00     0.276 HD
ATOM     20  H52 UNL     1     -11.090 -17.951  12.955  1.00  0.00     0.276 HD
ATOM     21  H51 UNL     1     -11.730 -19.016  11.806  1.00  0.00     0.276 HD
ENDBRANCH  16  18
ENDBRANCH  14  16
ENDBRANCH  12  14
ENDBRANCH  10  12
ENDBRANCH   6  10
BRANCH   5  22
HETATM   22  S1  UNL     1     -15.171 -14.504  15.118  1.00  0.00     0.144 S
HETATM   23  O4  UNL     1     -15.582 -15.665  15.977  1.00  0.00    -0.591 OA
HETATM   24  O5  UNL     1     -15.729 -14.646  13.729  1.00  0.00    -0.591 OA
HETATM   25  O6  UNL     1     -15.798 -13.126  15.838  1.00  0.00    -0.591 OA
ENDBRANCH   5  22
BRANCH   7  26
HETATM   26  C10 UNL     1     -10.404 -16.458  15.284  1.00  0.00     0.257 A
HETATM   27  N6  UNL     1      -9.809 -16.401  16.645  1.00  0.00    -0.367 N
HETATM   28  C11 UNL     1      -8.558 -16.645  16.597  1.00  0.00     0.162 A
ATOM     29  H6  UNL     1     -10.328 -16.197  17.499  1.00  0.00     0.161 HD
HETATM   30  C12 UNL     1      -8.141 -16.905  15.229  1.00  0.00     0.284 A
HETATM   31  O7  UNL     1      -6.975 -17.169  14.834  1.00  0.00    -0.265 OA
HETATM   32  N7  UNL     1      -9.338 -16.791  14.450  1.00  0.00    -0.195 N
BRANCH  32  33
HETATM   33  O8  UNL     1      -9.321 -17.040  13.129  1.00  0.00    -0.282 OA
ATOM     34  H8  UNL     1      -8.587 -17.204  12.549  1.00  0.00     0.245 HD
ENDBRANCH  32  33
ENDBRANCH   7  26
BRANCH   4  35
HETATM   35  O3  UNL     1     -13.749 -11.946  14.685  1.00  0.00    -0.339 OA
HETATM   36  C4  UNL     1     -14.312 -11.590  13.438  1.00  0.00     0.211 C
ENDBRANCH   4  35
BRANCH   1  37
HETATM   37  O1  UNL     1      -9.575 -11.447  14.412  1.00  0.00    -0.308 OA
HETATM   38  C1  UNL     1      -9.007 -10.509  13.513  1.00  0.00     0.215 C
ENDBRANCH   1  37
TORSDOF 10
ENDMDL