MODEL 1
REMARK VINA RESULT: -6.450765740      0.000      0.000
REMARK  13 active torsions:
REMARK  status: ('A' for Active; 'I' for Inactive)
REMARK    1  A    between atoms: O1_2  and  C2_3
REMARK    2  A    between atoms: C2_3  and  O3_5
REMARK    3  A    between atoms: O3_5  and  C3_6
REMARK    4  A    between atoms: C4_8  and  O5_9
REMARK    5  A    between atoms: O5_9  and  C5_10
REMARK    6  A    between atoms: C6_11  and  O6_12
REMARK    7  A    between atoms: O6_12  and  C7_13
REMARK    8  A    between atoms: C9_16  and  O8_17
REMARK    9  A    between atoms: C10_19  and  C11_20
REMARK   10  A    between atoms: C11_20  and  O9_22
REMARK   11  A    between atoms: C14_27  and  O12_28
REMARK   12  A    between atoms: C15_30  and  O13_31
REMARK   13  A    between atoms: C16_33  and  O14_34
ROOT
HETATM    1  O5  UNL     1     -13.063 -12.879  13.242  1.00  0.00    -0.309 OA
ENDROOT
BRANCH   1   2
HETATM    2  C4  UNL     1     -14.346 -13.073  13.801  1.00  0.00     0.301 C
HETATM    3  O4  UNL     1     -15.154 -13.642  12.802  1.00  0.00    -0.325 OA
HETATM    4  C3  UNL     1     -16.332 -14.152  13.387  1.00  0.00     0.306 C
HETATM    5  C16 UNL     1     -16.919 -13.134  14.343  1.00  0.00     0.205 C
HETATM    6  C15 UNL     1     -16.412 -11.764  13.890  1.00  0.00     0.185 C
HETATM    7  C14 UNL     1     -14.925 -11.708  14.104  1.00  0.00     0.205 C
BRANCH   4   8
HETATM    8  O3  UNL     1     -15.953 -15.318  14.084  1.00  0.00    -0.264 OA
BRANCH   8   9
HETATM    9  C2  UNL     1     -16.329 -16.546  13.578  1.00  0.00     0.408 C
HETATM   10  O2  UNL     1     -17.183 -16.682  12.653  1.00  0.00    -0.229 OA
BRANCH   9  11
HETATM   11  O1  UNL     1     -15.748 -17.690  14.104  1.00  0.00    -0.303 OA
HETATM   12  C1  UNL     1     -15.223 -18.725  13.291  1.00  0.00     0.215 C
ENDBRANCH   9  11
ENDBRANCH   8   9
ENDBRANCH   4   8
BRANCH   5  13
HETATM   13  O14 UNL     1     -16.544 -13.370  15.650  1.00  0.00    -0.388 OA
ATOM     14  H14 UNL     1     -17.138 -12.966  16.273  1.00  0.00     0.210 HD
ENDBRANCH   5  13
BRANCH   6  15
HETATM   15  O13 UNL     1     -17.096 -10.790  14.589  1.00  0.00    -0.390 OA
ATOM     16  H13 UNL     1     -17.554 -11.129  15.350  1.00  0.00     0.210 HD
ENDBRANCH   6  15
BRANCH   7  17
HETATM   17  O12 UNL     1     -14.404 -10.782  13.185  1.00  0.00    -0.388 OA
ATOM     18  H12 UNL     1     -14.978 -10.026  13.155  1.00  0.00     0.210 HD
ENDBRANCH   7  17
ENDBRANCH   1   2
BRANCH   1  19
HETATM   19  C5  UNL     1     -11.895 -12.975  13.988  1.00  0.00     0.179 C
HETATM   20  C6  UNL     1     -11.440 -14.185  14.220  1.00  0.00     0.127 C
HETATM   21  C9  UNL     1     -10.207 -14.387  14.995  1.00  0.00     0.210 C
HETATM   22  C10 UNL     1     -10.007 -13.240  15.927  1.00  0.00     0.195 C
HETATM   23  O10 UNL     1     -10.032 -11.998  15.240  1.00  0.00    -0.305 OA
HETATM   24  C13 UNL     1     -11.204 -11.780  14.492  1.00  0.00     0.320 C
HETATM   25  O11 UNL     1     -11.644 -10.631  14.263  1.00  0.00    -0.257 OA
BRANCH  20  26
HETATM   26  O6  UNL     1     -12.090 -15.339  13.748  1.00  0.00    -0.278 OA
BRANCH  26  27
HETATM   27  C7  UNL     1     -12.322 -16.432  14.552  1.00  0.00     0.259 C
HETATM   28  C8  UNL     1     -11.741 -17.765  14.373  1.00  0.00     0.126 C
HETATM   29  O7  UNL     1     -13.112 -16.241  15.529  1.00  0.00    -0.265 OA
ENDBRANCH  26  27
ENDBRANCH  20  26
BRANCH  21  30
HETATM   30  O8  UNL     1      -9.098 -14.621  14.182  1.00  0.00    -0.386 OA
ATOM     31  H8  UNL     1      -8.551 -15.326  14.509  1.00  0.00     0.210 HD
ENDBRANCH  21  30
BRANCH  22  32
HETATM   32  C11 UNL     1      -8.756 -13.380  16.766  1.00  0.00     0.146 C
HETATM   33  C12 UNL     1      -8.995 -14.032  18.087  1.00  0.00     0.042 C
BRANCH  32  34
HETATM   34  O9  UNL     1      -8.205 -12.117  16.931  1.00  0.00    -0.393 OA
ATOM     35  H9  UNL     1      -7.325 -12.132  16.576  1.00  0.00     0.210 HD
ENDBRANCH  32  34
ENDBRANCH  22  32
ENDBRANCH   1  19
TORSDOF 13
ENDMDL