MODEL 3
REMARK VINA RESULT: -6.578109766      3.004      5.285
REMARK  12 active torsions:
REMARK  status: ('A' for Active; 'I' for Inactive)
REMARK    1  A    between atoms: C2_2  and  O2_4
REMARK    2  A    between atoms: O2_4  and  C3_5
REMARK    3  A    between atoms: C4_6  and  O3_7
REMARK    4  A    between atoms: C6_11  and  O5_12
REMARK    5  A    between atoms: O5_12  and  C7_13
REMARK    6  A    between atoms: C8_15  and  C9_16
REMARK    7  A    between atoms: C11_20  and  O7_21
REMARK    8  A    between atoms: C12_24  and  O9_25
REMARK    9  A    between atoms: C13_27  and  O10_28
REMARK   10  A    between atoms: C14_30  and  O11_31
REMARK   11  A    between atoms: O11_31  and  C15_32
REMARK   12  A    between atoms: C17_35  and  O13_36
ROOT
HETATM    1  C7  UNL     1     -14.323 -13.153  14.020  1.00  0.00     0.296 C
HETATM    2  O6  UNL     1     -14.429 -14.338  14.746  1.00  0.00    -0.342 OA
HETATM    3  C8  UNL     1     -15.119 -15.239  13.906  1.00  0.00     0.231 C
HETATM    4  C12 UNL     1     -16.524 -14.740  13.611  1.00  0.00     0.186 C
HETATM    5  C13 UNL     1     -16.724 -13.463  14.366  1.00  0.00     0.184 C
HETATM    6  C14 UNL     1     -15.663 -12.467  13.907  1.00  0.00     0.218 C
ENDROOT
BRANCH   1   7
HETATM    7  O5  UNL     1     -13.323 -12.325  14.458  1.00  0.00    -0.326 OA
BRANCH   7   8
HETATM    8  C6  UNL     1     -12.047 -12.832  14.382  1.00  0.00     0.294 C
HETATM    9  O4  UNL     1     -11.175 -12.093  13.644  1.00  0.00    -0.356 OA
HETATM   10  C5  UNL     1     -10.227 -11.444  14.382  1.00  0.00     0.205 C
HETATM   11  C4  UNL     1      -9.255 -12.396  15.059  1.00  0.00     0.174 C
HETATM   12  C3  UNL     1     -10.018 -13.672  15.460  1.00  0.00     0.196 C
HETATM   13  C17 UNL     1     -11.449 -13.171  15.710  1.00  0.00     0.205 C
BRANCH  11  14
HETATM   14  O3  UNL     1      -8.766 -11.742  16.186  1.00  0.00    -0.391 OA
ATOM     15  H3  UNL     1      -8.380 -10.908  15.948  1.00  0.00     0.210 HD
ENDBRANCH  11  14
BRANCH  12  16
HETATM   16  O2  UNL     1     -10.086 -14.504  14.317  1.00  0.00    -0.311 OA
BRANCH  16  17
HETATM   17  C2  UNL     1      -9.641 -15.815  14.333  1.00  0.00     0.255 C
HETATM   18  C1  UNL     1      -9.494 -16.616  15.577  1.00  0.00     0.126 C
HETATM   19  O1  UNL     1      -9.351 -16.337  13.229  1.00  0.00    -0.266 OA
ENDBRANCH  16  17
ENDBRANCH  12  16
BRANCH  13  20
HETATM   20  O13 UNL     1     -12.184 -14.144  16.390  1.00  0.00    -0.388 OA
ATOM     21  H13 UNL     1     -12.161 -13.974  17.324  1.00  0.00     0.210 HD
ENDBRANCH  13  20
ENDBRANCH   7   8
ENDBRANCH   1   7
BRANCH   6  22
HETATM   22  O11 UNL     1     -15.955 -12.113  12.570  1.00  0.00    -0.309 OA
BRANCH  22  23
HETATM   23  C15 UNL     1     -16.381 -10.869  12.180  1.00  0.00     0.255 C
HETATM   24  C16 UNL     1     -16.781  -9.783  13.114  1.00  0.00     0.126 C
HETATM   25  O12 UNL     1     -16.441 -10.624  10.942  1.00  0.00    -0.266 OA
ENDBRANCH  22  23
ENDBRANCH   6  22
BRANCH   3  26
HETATM   26  C9  UNL     1     -15.112 -16.610  14.438  1.00  0.00     0.158 A
HETATM   27  N1  UNL     1     -15.120 -16.978  15.729  1.00  0.00    -0.343 N
HETATM   28  C10 UNL     1     -15.109 -18.340  15.796  1.00  0.00     0.153 A
ATOM     29  H1  UNL     1     -15.133 -16.344  16.528  1.00  0.00     0.167 HD
HETATM   30  C11 UNL     1     -15.094 -18.758  14.488  1.00  0.00     0.200 A
HETATM   31  O8  UNL     1     -15.096 -17.701  13.718  1.00  0.00    -0.271 OA
BRANCH  30  32
HETATM   32  O7  UNL     1     -15.078 -20.079  14.091  1.00  0.00    -0.340 OA
ATOM     33  H7  UNL     1     -14.806 -20.379  13.231  1.00  0.00     0.220 HD
ENDBRANCH  30  32
ENDBRANCH   3  26
BRANCH   5  34
HETATM   34  O10 UNL     1     -17.986 -12.921  14.220  1.00  0.00    -0.390 OA
ATOM     35  H10 UNL     1     -18.112 -12.109  14.697  1.00  0.00     0.210 HD
ENDBRANCH   5  34
BRANCH   4  36
HETATM   36  O9  UNL     1     -16.790 -14.637  12.268  1.00  0.00    -0.390 OA
ATOM     37  H9  UNL     1     -17.017 -13.755  11.997  1.00  0.00     0.210 HD
ENDBRANCH   4  36
TORSDOF 12
ENDMDL