MODEL 2
REMARK VINA RESULT: -7.262720132      7.111     10.733
REMARK  6 active torsions:
REMARK  status: ('A' for Active; 'I' for Inactive)
REMARK    1  A    between atoms: C4_12  and  N5_13
REMARK    2  A    between atoms: N5_13  and  N6_15
REMARK    3  A    between atoms: N6_15  and  N7_16
REMARK    4  A    between atoms: N7_16  and  C5_18
REMARK    5  A    between atoms: C10_23  and  N8_24
REMARK    6  A    between atoms: C12_31  and  C13_32
ROOT
HETATM    1  C1  UNL     1     -12.063 -18.118  13.228  1.00  0.00     0.164 C
HETATM    2  N1  UNL     1     -11.431 -17.033  13.970  1.00  0.00    -0.271 N
HETATM    3  C2  UNL     1     -12.104 -16.320  15.004  1.00  0.00     0.327 C
HETATM    4  O1  UNL     1     -13.285 -16.490  15.428  1.00  0.00    -0.247 OA
HETATM    5  N2  UNL     1     -11.179 -15.355  15.483  1.00  0.00    -0.305 N
ATOM      6  H2  UNL     1     -11.420 -14.569  16.088  1.00  0.00     0.167 HD
HETATM    7  C3  UNL     1      -9.853 -15.643  14.997  1.00  0.00     0.224 C
HETATM    8  N3  UNL     1      -9.122 -14.453  14.692  1.00  0.00    -0.295 N
ATOM      9  H3  UNL     1      -8.660 -14.325  13.792  1.00  0.00     0.183 HD
HETATM   10  N4  UNL     1      -9.071 -13.471  15.694  1.00  0.00    -0.281 N
ATOM     11  H4  UNL     1      -9.222 -12.498  15.429  1.00  0.00     0.189 HD
HETATM   12  C4  UNL     1      -8.842 -13.740  16.929  1.00  0.00     0.172 C
HETATM   13  S1  UNL     1      -8.569 -15.436  17.408  1.00  0.00    -0.075 SA
HETATM   14  C12 UNL     1      -9.083 -16.484  16.009  1.00  0.00     0.176 C
HETATM   15  C14 UNL     1     -10.122 -16.497  13.838  1.00  0.00     0.280 C
HETATM   16  O7  UNL     1      -9.359 -16.740  12.877  1.00  0.00    -0.268 OA
ENDROOT
BRANCH  12  17
HETATM   17  N5  UNL     1      -8.796 -12.717  17.926  1.00  0.00    -0.263 N
ATOM     18  H5  UNL     1      -8.144 -11.938  17.839  1.00  0.00     0.186 HD
BRANCH  17  19
HETATM   19  N6  UNL     1      -9.646 -12.802  19.005  1.00  0.00    -0.020 NA
BRANCH  19  20
HETATM   20  N7  UNL     1      -9.071 -12.376  20.209  1.00  0.00    -0.282 N
ATOM     21  H7  UNL     1      -8.366 -12.953  20.668  1.00  0.00     0.184 HD
BRANCH  20  22
HETATM   22  C5  UNL     1      -9.465 -11.155  20.786  1.00  0.00     0.082 A
HETATM   23  C6  UNL     1     -10.756 -11.033  21.325  1.00  0.00     0.073 A
HETATM   24  C7  UNL     1     -11.251  -9.901  21.895  1.00  0.00     0.107 A
HETATM   25  C8  UNL     1     -10.395  -8.804  21.934  1.00  0.00     0.107 A
HETATM   26  O5  UNL     1     -12.440  -9.500  22.486  1.00  0.00    -0.323 OA
HETATM   27  C9  UNL     1      -9.130  -8.895  21.417  1.00  0.00     0.078 A
HETATM   28  O4  UNL     1     -11.092  -7.761  22.552  1.00  0.00    -0.323 OA
HETATM   29  C10 UNL     1      -8.637 -10.081  20.829  1.00  0.00     0.133 A
HETATM   30  C11 UNL     1     -12.460  -8.096  22.424  1.00  0.00     0.352 C
BRANCH  29  31
HETATM   31  N8  UNL     1      -7.325 -10.067  20.327  1.00  0.00    -0.113 N
HETATM   32  O2  UNL     1      -6.465  -9.460  21.047  1.00  0.00    -0.532 OA
HETATM   33  O3  UNL     1      -6.844 -10.607  19.181  1.00  0.00    -0.532 OA
ENDBRANCH  29  31
ENDBRANCH  20  22
ENDBRANCH  19  20
ENDBRANCH  17  19
ENDBRANCH  12  17
BRANCH  14  34
HETATM   34  C13 UNL     1      -7.854 -16.988  15.371  1.00  0.00     0.251 C
HETATM   35  O6  UNL     1      -7.137 -17.742  15.977  1.00  0.00    -0.305 OA
ENDBRANCH  14  34
TORSDOF 6
ENDMDL