MODEL 4
REMARK VINA RESULT: -6.332463340      1.326      1.553
REMARK  12 active torsions:
REMARK  status: ('A' for Active; 'I' for Inactive)
REMARK    1  A    between atoms: O1_2  and  C2_3
REMARK    2  A    between atoms: C5_8  and  O4_9
REMARK    3  A    between atoms: C7_11  and  O5_12
REMARK    4  A    between atoms: C8_14  and  O6_15
REMARK    5  A    between atoms: C9_17  and  O7_18
REMARK    6  A    between atoms: O7_18  and  C10_19
REMARK    7  A    between atoms: C11_21  and  O9_23
REMARK    8  A    between atoms: N1_26  and  O10_28
REMARK    9  A    between atoms: C14_30  and  N2_31
REMARK   10  A    between atoms: N2_31  and  N3_33
REMARK   11  A    between atoms: N3_33  and  N4_34
REMARK   12  A    between atoms: C15_37  and  O11_38
ROOT
HETATM    1  C2  UNL     1      -9.828 -11.901  22.452  1.00  0.00     0.199 C
HETATM    2  C3  UNL     1      -8.608 -12.648  21.978  1.00  0.00     0.208 C
HETATM    3  O2  UNL     1      -9.014 -13.450  20.905  1.00  0.00    -0.348 OA
HETATM    4  C4  UNL     1      -9.349 -12.661  19.809  1.00  0.00     0.224 C
HETATM    5  O3  UNL     1      -9.881 -11.434  20.164  1.00  0.00    -0.317 OA
HETATM    6  C5  UNL     1     -10.711 -11.637  21.267  1.00  0.00     0.293 C
HETATM    7  C7  UNL     1      -8.088 -12.495  18.950  1.00  0.00     0.214 C
HETATM    8  C8  UNL     1      -8.161 -13.786  18.130  1.00  0.00     0.184 C
HETATM    9  C9  UNL     1      -9.592 -13.744  17.658  1.00  0.00     0.190 C
HETATM   10  C15 UNL     1     -10.339 -13.369  18.908  1.00  0.00     0.215 C
ENDROOT
BRANCH   9  11
HETATM   11  O7  UNL     1     -10.011 -14.955  17.123  1.00  0.00    -0.348 OA
BRANCH  11  12
HETATM   12  C10 UNL     1     -10.402 -14.719  15.796  1.00  0.00     0.295 C
HETATM   13  O8  UNL     1     -11.722 -15.098  15.585  1.00  0.00    -0.317 OA
HETATM   14  C11 UNL     1     -12.055 -14.465  14.389  1.00  0.00     0.205 C
HETATM   15  C12 UNL     1     -13.551 -14.504  14.214  1.00  0.00     0.086 C
HETATM   16  C13 UNL     1     -11.542 -13.090  14.604  1.00  0.00     0.101 C
HETATM   17  N1  UNL     1     -12.031 -11.997  14.124  1.00  0.00    -0.270 N
HETATM   18  C14 UNL     1     -10.353 -13.226  15.484  1.00  0.00     0.222 C
ATOM     19  H1  UNL     1     -12.857 -12.066  13.530  1.00  0.00     0.193 HD
BRANCH  14  20
HETATM   20  O9  UNL     1     -11.387 -15.085  13.340  1.00  0.00    -0.361 OA
ATOM     21  H9  UNL     1     -12.021 -15.386  12.699  1.00  0.00     0.213 HD
ENDBRANCH  14  20
BRANCH  17  22
HETATM   22  O10 UNL     1     -11.520 -10.766  14.356  1.00  0.00    -0.290 OA
ATOM     23  H10 UNL     1     -12.043  -9.994  14.536  1.00  0.00     0.244 HD
ENDBRANCH  17  22
BRANCH  18  24
HETATM   24  N2  UNL     1      -9.178 -12.983  14.669  1.00  0.00    -0.237 N
ATOM     25  H2  UNL     1      -8.677 -13.794  14.305  1.00  0.00     0.198 HD
BRANCH  24  26
HETATM   26  N3  UNL     1      -8.750 -11.881  14.389  1.00  0.00    -0.248 NA
BRANCH  26  27
HETATM   27  N4  UNL     1      -8.521 -10.825  13.778  1.00  0.00    -0.261 N
ATOM     28  H42 UNL     1      -9.225 -10.975  13.055  1.00  0.00     0.193 HD
ATOM     29  H41 UNL     1      -8.117  -9.926  13.512  1.00  0.00     0.193 HD
ENDBRANCH  26  27
ENDBRANCH  24  26
ENDBRANCH  18  24
ENDBRANCH  11  12
ENDBRANCH   9  11
BRANCH   8  30
HETATM   30  O6  UNL     1      -7.954 -14.825  19.054  1.00  0.00    -0.390 OA
ATOM     31  H6  UNL     1      -7.577 -14.407  19.820  1.00  0.00     0.210 HD
ENDBRANCH   8  30
BRANCH  10  32
HETATM   32  O11 UNL     1     -10.926 -14.469  19.527  1.00  0.00    -0.387 OA
ATOM     33  H11 UNL     1     -10.910 -15.244  18.977  1.00  0.00     0.210 HD
ENDBRANCH  10  32
BRANCH   7  34
HETATM   34  O5  UNL     1      -8.228 -11.390  18.113  1.00  0.00    -0.387 OA
ATOM     35  H5  UNL     1      -7.642 -11.473  17.369  1.00  0.00     0.210 HD
ENDBRANCH   7  34
BRANCH   6  36
HETATM   36  O4  UNL     1     -11.567 -10.554  21.471  1.00  0.00    -0.363 OA
HETATM   37  C6  UNL     1     -10.784  -9.466  21.842  1.00  0.00     0.204 C
ENDBRANCH   6  36
BRANCH   1  38
HETATM   38  O1  UNL     1     -10.470 -12.513  23.500  1.00  0.00    -0.384 OA
HETATM   39  C1  UNL     1     -10.349 -11.840  24.702  1.00  0.00     0.202 C
ENDBRANCH   1  38
TORSDOF 12
ENDMDL