MODEL 2
REMARK VINA RESULT: -6.793174428      2.371      6.298
REMARK  11 active torsions:
REMARK  status: ('A' for Active; 'I' for Inactive)
REMARK    1  A    between atoms: C3_4  and  O2_5
REMARK    2  A    between atoms: O2_5  and  C4_6
REMARK    3  A    between atoms: C8_12  and  C9_13
REMARK    4  A    between atoms: C10_19  and  C11_20
REMARK    5  A    between atoms: C11_20  and  C12_21
REMARK    6  A    between atoms: C12_21  and  N3_22
REMARK    7  A    between atoms: N4_26  and  O6_28
REMARK    8  A    between atoms: O6_28  and  C13_29
REMARK    9  A    between atoms: C14_32  and  O8_33
REMARK   10  A    between atoms: C15_35  and  O9_36
REMARK   11  A    between atoms: C16_38  and  O10_39
ROOT
HETATM    1  C4  UNL     1     -14.080 -16.348  15.559  1.00  0.00     0.301 C
HETATM    2  O3  UNL     1     -13.729 -17.677  15.332  1.00  0.00    -0.323 OA
HETATM    3  C5  UNL     1     -14.758 -18.261  14.639  1.00  0.00     0.161 C
HETATM    4  C6  UNL     1     -15.234 -19.502  15.368  1.00  0.00     0.078 C
HETATM    5  C7  UNL     1     -14.264 -18.720  13.264  1.00  0.00     0.078 C
HETATM    6  O4  UNL     1     -15.772 -17.347  14.458  1.00  0.00    -0.339 OA
HETATM    7  C8  UNL     1     -15.124 -16.128  14.494  1.00  0.00     0.234 C
ENDROOT
BRANCH   7   8
HETATM    8  C9  UNL     1     -16.030 -15.010  14.825  1.00  0.00     0.099 A
HETATM    9  N1  UNL     1     -17.173 -15.133  15.508  1.00  0.00    -0.241 N
HETATM   10  O5  UNL     1     -17.746 -13.985  15.635  1.00  0.00    -0.156 OA
ATOM     11  H1  UNL     1     -17.539 -16.011  15.877  1.00  0.00     0.196 HD
HETATM   12  N2  UNL     1     -17.011 -13.093  15.050  1.00  0.00    -0.238 N
HETATM   13  C10 UNL     1     -15.897 -13.677  14.510  1.00  0.00     0.110 A
ATOM     14  H2  UNL     1     -17.231 -12.099  15.000  1.00  0.00     0.197 HD
BRANCH  13  15
HETATM   15  C11 UNL     1     -14.835 -13.012  13.782  1.00  0.00     0.088 C
HETATM   16  N4  UNL     1     -13.618 -13.278  14.045  1.00  0.00    -0.257 N
ATOM     17  H4  UNL     1     -13.423 -13.964  14.775  1.00  0.00     0.195 HD
BRANCH  15  18
HETATM   18  C12 UNL     1     -15.166 -12.031  12.737  1.00  0.00     0.290 C
BRANCH  18  19
HETATM   19  N3  UNL     1     -14.918 -10.662  13.174  1.00  0.00    -0.074 N
ATOM     20  H33 UNL     1     -15.044 -10.567  14.181  1.00  0.00     0.274 HD
ATOM     21  H32 UNL     1     -13.926 -10.429  13.113  1.00  0.00     0.274 HD
ATOM     22  H31 UNL     1     -15.489  -9.989  12.664  1.00  0.00     0.274 HD
ENDBRANCH  18  19
ENDBRANCH  15  18
BRANCH  16  23
HETATM   23  O6  UNL     1     -12.562 -12.703  13.411  1.00  0.00    -0.183 OA
BRANCH  23  24
HETATM   24  C13 UNL     1     -11.590 -11.933  14.030  1.00  0.00     0.394 C
HETATM   25  N5  UNL     1     -10.311 -12.427  14.373  1.00  0.00    -0.031 NA
HETATM   26  O7  UNL     1     -11.880 -10.737  14.291  1.00  0.00    -0.240 OA
ENDBRANCH  23  24
ENDBRANCH  16  23
ENDBRANCH  13  15
ENDBRANCH   7   8
BRANCH   1  27
HETATM   27  O2  UNL     1     -12.942 -15.570  15.378  1.00  0.00    -0.326 OA
BRANCH  27  28
HETATM   28  C3  UNL     1     -11.768 -16.286  15.356  1.00  0.00     0.294 C
HETATM   29  O1  UNL     1     -10.740 -15.608  16.046  1.00  0.00    -0.351 OA
HETATM   30  C2  UNL     1      -9.621 -16.471  16.034  1.00  0.00     0.152 C
HETATM   31  C1  UNL     1      -8.625 -16.088  17.088  1.00  0.00     0.042 C
HETATM   32  C16 UNL     1      -9.058 -16.393  14.630  1.00  0.00     0.178 C
HETATM   33  C15 UNL     1     -10.040 -17.109  13.723  1.00  0.00     0.183 C
HETATM   34  C14 UNL     1     -11.384 -16.465  13.891  1.00  0.00     0.204 C
BRANCH  32  35
HETATM   35  O10 UNL     1      -9.031 -15.023  14.293  1.00  0.00    -0.390 OA
ATOM     36  H10 UNL     1      -8.817 -14.983  13.368  1.00  0.00     0.210 HD
ENDBRANCH  32  35
BRANCH  33  37
HETATM   37  O9  UNL     1      -9.682 -16.987  12.381  1.00  0.00    -0.390 OA
ATOM     38  H9  UNL     1      -8.735 -16.914  12.344  1.00  0.00     0.210 HD
ENDBRANCH  33  37
BRANCH  34  39
HETATM   39  O8  UNL     1     -11.403 -15.249  13.216  1.00  0.00    -0.388 OA
ATOM     40  H8  UNL     1     -11.498 -15.379  12.280  1.00  0.00     0.210 HD
ENDBRANCH  34  39
ENDBRANCH  27  28
ENDBRANCH   1  27
TORSDOF 11
ENDMDL