MODEL 5
REMARK VINA RESULT: -6.308952864      4.814      7.897
REMARK  9 active torsions:
REMARK  status: ('A' for Active; 'I' for Inactive)
REMARK    1  A    between atoms: N1_2  and  C2_5
REMARK    2  A    between atoms: N2_7  and  C4_8
REMARK    3  A    between atoms: N4_11  and  S1_12
REMARK    4  A    between atoms: C6_17  and  O4_18
REMARK    5  A    between atoms: C10_24  and  C11_25
REMARK    6  A    between atoms: C11_25  and  O7_27
REMARK    7  A    between atoms: C13_29  and  O8_30
REMARK    8  A    between atoms: C13_29  and  C14_32
REMARK    9  A    between atoms: C14_32  and  O10_34
ROOT
HETATM    1  C2  UNL     1     -12.619 -14.894  15.944  1.00  0.00     0.229 A
HETATM    2  C3  UNL     1     -13.447 -13.691  15.704  1.00  0.00     0.175 A
HETATM    3  N2  UNL     1     -14.136 -14.324  14.597  1.00  0.00    -0.332 N
HETATM    4  C7  UNL     1     -13.312 -15.493  14.758  1.00  0.00     0.273 A
HETATM    5  O5  UNL     1     -12.431 -15.634  13.650  1.00  0.00    -0.327 OA
HETATM    6  C8  UNL     1     -11.154 -16.197  13.852  1.00  0.00     0.061 C
HETATM    7  C9  UNL     1     -10.615 -17.200  12.932  1.00  0.00     0.077 C
HETATM    8  C10 UNL     1     -10.525 -15.742  14.913  1.00  0.00     0.093 C
HETATM    9  C13 UNL     1     -11.154 -14.713  15.762  1.00  0.00     0.220 C
ENDROOT
BRANCH   3  10
HETATM   10  C4  UNL     1     -15.209 -13.901  13.759  1.00  0.00     0.156 A
HETATM   11  N3  UNL     1     -15.257 -12.720  13.059  1.00  0.00    -0.265 N
HETATM   12  N4  UNL     1     -16.390 -12.633  12.387  1.00  0.00    -0.169 N
ATOM     13  H3  UNL     1     -14.523 -12.012  13.059  1.00  0.00     0.190 HD
HETATM   14  C5  UNL     1     -17.140 -13.723  12.596  1.00  0.00     0.172 A
HETATM   15  C6  UNL     1     -16.403 -14.518  13.454  1.00  0.00     0.129 A
BRANCH  12  16
HETATM   16  S1  UNL     1     -16.818 -11.290  11.392  1.00  0.00     0.230 S
HETATM   17  O1  UNL     1     -15.621 -10.978  10.532  1.00  0.00    -0.576 OA
HETATM   18  O2  UNL     1     -17.986 -11.630  10.530  1.00  0.00    -0.576 OA
HETATM   19  O3  UNL     1     -17.147  -9.917  12.295  1.00  0.00    -0.576 OA
ENDBRANCH  12  16
BRANCH  15  20
HETATM   20  O4  UNL     1     -16.836 -15.736  13.909  1.00  0.00    -0.356 OA
ATOM     21  H4  UNL     1     -17.544 -16.257  13.549  1.00  0.00     0.218 HD
ENDBRANCH  15  20
ENDBRANCH   3  10
BRANCH   1  22
HETATM   22  N1  UNL     1     -12.912 -15.498  17.215  1.00  0.00    -0.060 N
HETATM   23  C1  UNL     1     -13.333 -16.859  17.140  1.00  0.00     0.268 C
ATOM     24  H12 UNL     1     -13.598 -14.942  17.724  1.00  0.00     0.278 HD
ATOM     25  H11 UNL     1     -12.113 -15.408  17.843  1.00  0.00     0.278 HD
ENDBRANCH   1  22
BRANCH   9  26
HETATM   26  O8  UNL     1     -10.509 -14.776  17.022  1.00  0.00    -0.372 OA
ATOM     27  H8  UNL     1      -9.628 -15.114  16.912  1.00  0.00     0.211 HD
ENDBRANCH   9  26
BRANCH   9  28
HETATM   28  C14 UNL     1     -10.753 -13.406  15.168  1.00  0.00     0.301 C
HETATM   29  O9  UNL     1     -11.057 -13.083  13.974  1.00  0.00    -0.261 OA
BRANCH  28  30
HETATM   30  O10 UNL     1     -10.031 -12.483  15.890  1.00  0.00    -0.324 OA
HETATM   31  C15 UNL     1      -8.669 -12.197  15.708  1.00  0.00     0.213 C
ENDBRANCH  28  30
ENDBRANCH   9  28
BRANCH   8  32
HETATM   32  C11 UNL     1      -9.206 -16.234  15.247  1.00  0.00     0.295 C
HETATM   33  O6  UNL     1      -8.143 -15.612  14.899  1.00  0.00    -0.259 OA
BRANCH  32  34
HETATM   34  O7  UNL     1      -8.965 -17.410  15.966  1.00  0.00    -0.323 OA
HETATM   35  C12 UNL     1      -7.917 -17.494  16.911  1.00  0.00     0.213 C
ENDBRANCH  32  34
ENDBRANCH   8  32
TORSDOF 9
ENDMDL