MODEL 3
REMARK VINA RESULT: -7.020385929      1.516      3.040
REMARK  11 active torsions:
REMARK  status: ('A' for Active; 'I' for Inactive)
REMARK    1  A    between atoms: C2_2  and  N1_3
REMARK    2  A    between atoms: C2_2  and  C19_28
REMARK    3  A    between atoms: N1_3  and  C3_5
REMARK    4  A    between atoms: C3_5  and  O1_6
REMARK    5  A    between atoms: C3_5  and  C4_8
REMARK    6  A    between atoms: C4_8  and  C5_9
REMARK    7  A    between atoms: C4_8  and  C16_25
REMARK       I    between atoms: C5_9  and  N2_11
REMARK    8  A    between atoms: C10_17  and  C11_18
REMARK    9  A    between atoms: C11_18  and  O4_20
REMARK   10  A    between atoms: O4_20  and  C12_21
REMARK       I    between atoms: C19_28  and  N3_30
REMARK   11  A    between atoms: C23_34  and  C24_35
ROOT
HETATM    1  C4  UNL     1       6.434  23.333  21.942  1.00  0.00     0.040 C
ENDROOT
BRANCH   1   2
HETATM    2  C3  UNL     1       6.059  23.729  20.566  1.00  0.00     0.254 C
BRANCH   2   3
HETATM    3  N1  UNL     1       6.215  22.975  19.451  1.00  0.00    -0.359 N
ATOM      4  H1  UNL     1       6.835  23.428  18.780  1.00  0.00     0.162 HD
BRANCH   3   5
HETATM    5  C2  UNL     1       5.766  21.770  18.983  1.00  0.00     0.072 C
HETATM    6  C1  UNL     1       4.441  21.244  19.387  1.00  0.00     0.074 C
BRANCH   5   7
HETATM    7  C19 UNL     1       6.001  21.573  17.489  1.00  0.00     0.266 C
HETATM    8  O5  UNL     1       5.124  20.878  16.916  1.00  0.00    -0.266 OA
HETATM    9  N3  UNL     1       7.109  22.128  16.816  1.00  0.00    -0.334 N
HETATM   10  C20 UNL     1       8.175  22.939  17.322  1.00  0.00     0.127 C
HETATM   11  C23 UNL     1       7.334  21.935  15.390  1.00  0.00     0.176 C
HETATM   12  C21 UNL     1       8.876  23.538  16.114  1.00  0.00     0.022 C
HETATM   13  C22 UNL     1       7.880  23.309  15.016  1.00  0.00     0.036 C
BRANCH  11  14
HETATM   14  C24 UNL     1       8.333  20.910  15.092  1.00  0.00     0.254 C
HETATM   15  N4  UNL     1       9.147  21.124  13.925  1.00  0.00    -0.060 NA
HETATM   16  O6  UNL     1       8.545  19.872  15.755  1.00  0.00    -0.275 OA
ENDBRANCH  11  14
ENDBRANCH   5   7
ENDBRANCH   3   5
ENDBRANCH   2   3
BRANCH   2  17
HETATM   17  O1  UNL     1       6.701  25.016  20.342  1.00  0.00    -0.373 OA
ATOM     18  H1  UNL     1       6.694  25.501  21.159  1.00  0.00     0.212 HD
ENDBRANCH   2  17
ENDBRANCH   1   2
BRANCH   1  19
HETATM   19  C5  UNL     1       7.859  23.512  22.293  1.00  0.00     0.252 C
HETATM   20  O2  UNL     1       8.248  24.610  22.826  1.00  0.00    -0.268 OA
HETATM   21  N2  UNL     1       8.847  22.545  22.080  1.00  0.00    -0.324 N
HETATM   22  C6  UNL     1       8.554  21.202  21.502  1.00  0.00     0.202 C
HETATM   23  C10 UNL     1      10.282  22.528  22.263  1.00  0.00     0.206 C
HETATM   24  S1  UNL     1       9.761  21.305  20.100  1.00  0.00    -0.137 SA
HETATM   25  C7  UNL     1      10.829  22.640  20.832  1.00  0.00     0.032 C
HETATM   26  C8  UNL     1      10.422  23.913  20.176  1.00  0.00     0.029 C
HETATM   27  C9  UNL     1      12.271  22.302  20.741  1.00  0.00     0.029 C
BRANCH  23  28
HETATM   28  C11 UNL     1      10.863  23.344  23.235  1.00  0.00     0.284 C
HETATM   29  O3  UNL     1      11.562  24.357  23.075  1.00  0.00    -0.263 OA
BRANCH  28  30
HETATM   30  O4  UNL     1      10.654  23.012  24.604  1.00  0.00    -0.310 OA
BRANCH  30  31
HETATM   31  C12 UNL     1      11.454  22.097  25.286  1.00  0.00     0.060 C
HETATM   32  C13 UNL     1      11.759  22.661  26.661  1.00  0.00     0.045 C
HETATM   33  C14 UNL     1      12.697  21.692  24.560  1.00  0.00     0.045 C
HETATM   34  C15 UNL     1      10.604  20.848  25.530  1.00  0.00     0.045 C
ENDBRANCH  30  31
ENDBRANCH  28  30
ENDBRANCH  23  28
ENDBRANCH   1  19
BRANCH   1  35
HETATM   35  C16 UNL     1       5.716  22.217  22.605  1.00  0.00     0.024 A
HETATM   36  C17 UNL     1       5.102  22.503  23.992  1.00  0.00     0.010 A
HETATM   37  C18 UNL     1       4.268  22.136  22.861  1.00  0.00     0.010 A
ENDBRANCH   1  35
TORSDOF 11
ENDMDL