MODEL 5
REMARK VINA RESULT: -6.563361817      3.428      7.029
REMARK  13 active torsions:
REMARK  status: ('A' for Active; 'I' for Inactive)
REMARK    1  A    between atoms: C2_2  and  S1_3
REMARK    2  A    between atoms: S1_3  and  S2_4
REMARK    3  A    between atoms: S2_4  and  C3_5
REMARK    4  A    between atoms: C6_8  and  N1_9
REMARK    5  A    between atoms: C11_18  and  C12_19
REMARK    6  A    between atoms: C12_19  and  O4_20
REMARK    7  A    between atoms: C12_19  and  N3_22
REMARK    8  A    between atoms: N3_22  and  C13_24
REMARK    9  A    between atoms: C13_24  and  C14_25
REMARK   10  A    between atoms: C13_24  and  C18_29
REMARK   11  A    between atoms: C14_25  and  C15_26
REMARK   12  A    between atoms: C19_32  and  C20_33
REMARK   13  A    between atoms: C20_33  and  O6_35
ROOT
HETATM    1  C3  UNL     1       5.351  22.352  23.140  1.00  0.00     0.130 C
HETATM    2  C4  UNL     1       6.547  23.211  23.247  1.00  0.00     0.051 C
HETATM    3  C5  UNL     1       7.776  22.823  22.550  1.00  0.00     0.122 C
HETATM    4  C6  UNL     1       8.638  21.734  23.132  1.00  0.00     0.204 C
HETATM    5  C10 UNL     1       8.788  21.394  21.661  1.00  0.00     0.246 C
HETATM    6  O3  UNL     1       9.729  20.772  21.138  1.00  0.00    -0.271 OA
HETATM    7  N2  UNL     1       7.579  22.021  21.327  1.00  0.00    -0.330 N
HETATM    8  C11 UNL     1       6.493  22.087  20.394  1.00  0.00     0.175 C
HETATM    9  C19 UNL     1       5.457  21.035  20.838  1.00  0.00     0.116 C
HETATM   10  C22 UNL     1       5.443  21.149  22.321  1.00  0.00     0.150 C
HETATM   11  O7  UNL     1       5.519  20.084  22.895  1.00  0.00    -0.296 OA
ENDROOT
BRANCH   8  12
HETATM   12  C12 UNL     1       6.925  21.877  19.026  1.00  0.00     0.136 C
BRANCH  12  13
HETATM   13  O4  UNL     1       8.186  21.575  18.888  1.00  0.00    -0.348 OA
ATOM     14  H4  UNL     1       8.737  22.288  18.589  1.00  0.00     0.219 HD
ENDBRANCH  12  13
BRANCH  12  15
HETATM   15  N3  UNL     1       6.220  21.947  17.835  1.00  0.00    -0.360 N
ATOM     16  H3  UNL     1       5.303  22.392  17.814  1.00  0.00     0.162 HD
BRANCH  15  17
HETATM   17  C13 UNL     1       6.790  21.380  16.598  1.00  0.00     0.173 C
BRANCH  17  18
HETATM   18  C14 UNL     1       7.038  22.477  15.615  1.00  0.00     0.038 C
BRANCH  18  19
HETATM   19  C15 UNL     1       8.479  22.673  15.320  1.00  0.00    -0.020 C
HETATM   20  C16 UNL     1       9.035  23.743  16.277  1.00  0.00     0.009 C
HETATM   21  C17 UNL     1       9.355  21.484  15.469  1.00  0.00     0.009 C
ENDBRANCH  18  19
ENDBRANCH  17  18
BRANCH  17  22
HETATM   22  C18 UNL     1       5.981  20.247  16.143  1.00  0.00     0.253 C
HETATM   23  N4  UNL     1       4.600  20.048  16.374  1.00  0.00    -0.060 NA
HETATM   24  O5  UNL     1       6.526  19.299  15.451  1.00  0.00    -0.275 OA
ENDBRANCH  17  22
ENDBRANCH  15  17
ENDBRANCH  12  15
ENDBRANCH   8  12
BRANCH   9  25
HETATM   25  C20 UNL     1       4.076  21.352  20.329  1.00  0.00     0.128 C
HETATM   26  C21 UNL     1       3.002  20.924  21.311  1.00  0.00     0.040 C
BRANCH  25  27
HETATM   27  O6  UNL     1       3.827  20.766  19.066  1.00  0.00    -0.395 OA
ATOM     28  H6  UNL     1       2.963  20.374  19.018  1.00  0.00     0.210 HD
ENDBRANCH  25  27
ENDBRANCH   9  25
BRANCH   4  29
HETATM   29  N1  UNL     1       9.867  22.264  23.679  1.00  0.00    -0.310 N
HETATM   30  C7  UNL     1      10.370  23.585  23.341  1.00  0.00     0.156 C
HETATM   31  C8  UNL     1      11.841  23.530  23.697  1.00  0.00     0.200 C
HETATM   32  O1  UNL     1      11.976  22.377  24.508  1.00  0.00    -0.302 OA
HETATM   33  C9  UNL     1      10.790  21.678  24.596  1.00  0.00     0.363 C
HETATM   34  O2  UNL     1      10.481  20.693  25.318  1.00  0.00    -0.238 OA
ENDBRANCH   4  29
BRANCH   1  35
HETATM   35  S2  UNL     1       4.668  22.016  24.815  1.00  0.00    -0.085 SA
BRANCH  35  36
HETATM   36  S1  UNL     1       2.565  22.297  24.848  1.00  0.00    -0.097 SA
BRANCH  36  37
HETATM   37  C2  UNL     1       1.684  20.713  24.829  1.00  0.00     0.081 C
HETATM   38  C1  UNL     1       2.618  19.541  24.794  1.00  0.00     0.017 C
ENDBRANCH  36  37
ENDBRANCH  35  36
ENDBRANCH   1  35
TORSDOF 13
ENDMDL