MODEL 4
REMARK VINA RESULT: -6.726049877      2.600      6.263
REMARK  10 active torsions:
REMARK  status: ('A' for Active; 'I' for Inactive)
REMARK    1  A    between atoms: C2_2  and  C3_3
REMARK    2  A    between atoms: C3_3  and  N1_6
REMARK    3  A    between atoms: N1_6  and  S1_8
REMARK    4  A    between atoms: S1_8  and  O3_11
REMARK    5  A    between atoms: O3_11  and  C6_12
REMARK    6  A    between atoms: C10_16  and  C11_17
REMARK    7  A    between atoms: C11_17  and  N2_18
REMARK    8  A    between atoms: C11_17  and  C20_31
REMARK       I    between atoms: N2_18  and  C12_20
REMARK       I    between atoms: C12_20  and  N3_22
REMARK    9  A    between atoms: C20_31  and  O6_32
REMARK   10  A    between atoms: C20_31  and  N4_34
ROOT
HETATM    1  C11 UNL     1      10.475  22.569  20.333  1.00  0.00     0.151 C
ENDROOT
BRANCH   1   2
HETATM    2  C10 UNL     1       9.233  22.887  21.145  1.00  0.00     0.043 C
HETATM    3  C6  UNL     1       8.320  21.636  21.175  1.00  0.00     0.150 C
HETATM    4  C7  UNL     1       9.019  20.735  22.132  1.00  0.00     0.034 C
HETATM    5  C8  UNL     1       9.901  21.611  23.033  1.00  0.00     0.003 C
HETATM    6  C9  UNL     1       9.607  23.028  22.602  1.00  0.00     0.009 C
BRANCH   3   7
HETATM    7  O3  UNL     1       7.029  21.918  21.407  1.00  0.00    -0.254 OA
BRANCH   7   8
HETATM    8  S1  UNL     1       6.024  22.223  20.152  1.00  0.00     0.359 S
HETATM    9  O1  UNL     1       6.635  21.543  18.931  1.00  0.00    -0.176 OA
HETATM   10  O2  UNL     1       5.980  23.683  19.781  1.00  0.00    -0.176 OA
BRANCH   8  11
HETATM   11  N1  UNL     1       4.484  21.539  20.354  1.00  0.00    -0.284 N
ATOM     12  H1  UNL     1       3.894  21.293  19.559  1.00  0.00     0.175 HD
BRANCH  11  13
HETATM   13  C3  UNL     1       4.062  21.329  21.696  1.00  0.00     0.052 C
HETATM   14  C4  UNL     1       4.006  22.632  22.460  1.00  0.00     0.043 C
HETATM   15  C5  UNL     1       2.661  20.755  21.663  1.00  0.00     0.043 C
BRANCH  13  16
HETATM   16  C2  UNL     1       4.900  20.384  22.467  1.00  0.00    -0.006 C
HETATM   17  C1  UNL     1       4.896  20.327  23.787  1.00  0.00     0.009 C
ENDBRANCH  13  16
ENDBRANCH  11  13
ENDBRANCH   8  11
ENDBRANCH   7   8
ENDBRANCH   3   7
ENDBRANCH   1   2
BRANCH   1  18
HETATM   18  N2  UNL     1      10.141  21.832  19.136  1.00  0.00    -0.334 N
HETATM   19  C12 UNL     1       9.511  22.504  18.028  1.00  0.00     0.320 C
HETATM   20  O4  UNL     1       9.265  23.745  18.142  1.00  0.00    -0.247 OA
HETATM   21  N3  UNL     1       9.161  21.861  16.845  1.00  0.00    -0.313 N
HETATM   22  C13 UNL     1       9.366  20.464  16.543  1.00  0.00     0.171 A
HETATM   23  C17 UNL     1       8.532  22.447  15.692  1.00  0.00     0.031 C
HETATM   24  C14 UNL     1       8.343  19.683  15.841  1.00  0.00     0.157 A
HETATM   25  C15 UNL     1       9.399  20.359  15.033  1.00  0.00     0.090 A
HETATM   26  O5  UNL     1       7.346  18.973  15.756  1.00  0.00    -0.295 OA
HETATM   27  C16 UNL     1       9.015  21.691  14.479  1.00  0.00     0.045 C
HETATM   28  C18 UNL     1       8.917  23.900  15.491  1.00  0.00     0.038 C
HETATM   29  C19 UNL     1       7.022  22.400  15.778  1.00  0.00     0.038 C
ATOM     30  H2  UNL     1      10.351  20.835  19.076  1.00  0.00     0.164 HD
ENDBRANCH   1  18
BRANCH   1  31
HETATM   31  C20 UNL     1      11.327  23.739  20.037  1.00  0.00     0.380 C
BRANCH  31  32
HETATM   32  O6  UNL     1      10.550  24.885  20.385  1.00  0.00    -0.366 OA
ATOM     33  H6  UNL     1      11.174  25.582  20.548  1.00  0.00     0.212 HD
ENDBRANCH  31  32
BRANCH  31  34
HETATM   34  N4  UNL     1      12.650  23.797  20.503  1.00  0.00     0.123 N
HETATM   35  C21 UNL     1      13.062  25.014  21.083  1.00  0.00     0.302 C
HETATM   36  C22 UNL     1      14.535  25.333  20.957  1.00  0.00     0.198 C
HETATM   37  O7  UNL     1      15.118  24.902  19.795  1.00  0.00    -0.388 OA
HETATM   38  C23 UNL     1      14.989  23.510  19.776  1.00  0.00     0.198 C
HETATM   39  C24 UNL     1      13.543  23.214  19.557  1.00  0.00     0.302 C
ENDBRANCH  31  34
ENDBRANCH   1  31
TORSDOF 10
ENDMDL