MODEL 2
REMARK VINA RESULT: -7.116724966      1.118      1.404
REMARK  9 active torsions:
REMARK  status: ('A' for Active; 'I' for Inactive)
REMARK       I    between atoms: C2_2  and  N1_4
REMARK    1  A    between atoms: N1_4  and  C3_6
REMARK    2  A    between atoms: C3_6  and  C4_7
REMARK    3  A    between atoms: C4_7  and  C5_8
REMARK    4  A    between atoms: C5_8  and  C6_9
REMARK    5  A    between atoms: C6_9  and  C7_10
REMARK    6  A    between atoms: C7_10  and  N2_11
REMARK       I    between atoms: N2_11  and  C8_13
REMARK    7  A    between atoms: C8_13  and  C9_15
REMARK    8  A    between atoms: C9_15  and  N3_16
REMARK    9  A    between atoms: C9_15  and  C10_20
ROOT
HETATM    1  C10 UNL     1       9.278  22.825  21.216  1.00  0.00     0.127 C
HETATM    2  C11 UNL     1       8.033  23.508  21.759  1.00  0.00     0.214 C
HETATM    3  O3  UNL     1       7.549  24.560  21.318  1.00  0.00    -0.288 OA
HETATM    4  C12 UNL     1       7.336  22.896  22.892  1.00  0.00     0.255 C
HETATM    5  O4  UNL     1       6.109  22.934  23.073  1.00  0.00    -0.277 OA
HETATM    6  S1  UNL     1       8.361  22.048  24.063  1.00  0.00    -0.083 SA
HETATM    7  C13 UNL     1       9.887  21.579  23.180  1.00  0.00     0.107 C
HETATM    8  C14 UNL     1      10.338  22.623  22.191  1.00  0.00     0.089 C
HETATM    9  C15 UNL     1      10.468  23.828  23.111  1.00  0.00     0.236 C
HETATM   10  O5  UNL     1       9.576  24.716  23.352  1.00  0.00    -0.272 OA
HETATM   11  N4  UNL     1      11.760  23.797  23.658  1.00  0.00    -0.319 N
HETATM   12  C16 UNL     1      12.951  24.033  24.425  1.00  0.00     0.206 C
HETATM   13  C17 UNL     1      13.102  25.379  24.963  1.00  0.00     0.085 C
HETATM   14  N5  UNL     1      13.205  26.448  25.407  1.00  0.00    -0.195 NA
HETATM   15  C18 UNL     1      13.635  23.843  23.018  1.00  0.00     0.015 C
HETATM   16  C19 UNL     1      15.059  23.389  23.303  1.00  0.00     0.021 C
HETATM   17  C20 UNL     1      13.669  25.174  22.442  1.00  0.00     0.021 C
HETATM   18  C21 UNL     1      12.585  22.833  22.942  1.00  0.00     0.068 C
HETATM   19  C22 UNL     1      13.106  21.626  23.725  1.00  0.00     0.045 C
HETATM   20  C23 UNL     1      11.728  22.469  21.761  1.00  0.00    -0.030 C
HETATM   21  C24 UNL     1      12.287  22.719  20.452  1.00  0.00    -0.082 C
HETATM   22  C25 UNL     1      12.210  23.974  19.711  1.00  0.00     0.043 C
HETATM   23  C26 UNL     1      12.287  21.597  19.434  1.00  0.00     0.043 C
ENDROOT
BRANCH   1  24
HETATM   24  C9  UNL     1       8.721  21.657  20.422  1.00  0.00     0.287 C
BRANCH  24  25
HETATM   25  C8  UNL     1       8.699  22.040  18.969  1.00  0.00     0.249 C
HETATM   26  N2  UNL     1       8.211  21.310  17.899  1.00  0.00    -0.359 N
ATOM     27  H2  UNL     1       7.816  20.386  18.072  1.00  0.00     0.162 HD
HETATM   28  O2  UNL     1       9.193  23.195  18.719  1.00  0.00    -0.271 OA
BRANCH  26  29
HETATM   29  C7  UNL     1       8.244  21.821  16.530  1.00  0.00     0.122 C
BRANCH  29  30
HETATM   30  C6  UNL     1       8.041  20.810  15.481  1.00  0.00     0.021 C
BRANCH  30  31
HETATM   31  C5  UNL     1       7.159  19.646  15.846  1.00  0.00     0.014 C
BRANCH  31  32
HETATM   32  C4  UNL     1       5.693  20.033  15.505  1.00  0.00     0.104 C
BRANCH  32  33
HETATM   33  C3  UNL     1       4.810  20.017  16.585  1.00  0.00    -0.068 C
BRANCH  33  34
HETATM   34  N1  UNL     1       3.983  19.972  17.654  1.00  0.00    -0.297 N
HETATM   35  C2  UNL     1       4.193  20.782  18.847  1.00  0.00     0.224 C
HETATM   36  C1  UNL     1       3.272  20.683  19.998  1.00  0.00     0.118 C
HETATM   37  O1  UNL     1       5.180  21.553  18.841  1.00  0.00    -0.273 OA
ATOM     38  H1  UNL     1       3.178  19.345  17.624  1.00  0.00     0.178 HD
ENDBRANCH  33  34
ENDBRANCH  32  33
ENDBRANCH  31  32
ENDBRANCH  30  31
ENDBRANCH  29  30
ENDBRANCH  26  29
ENDBRANCH  24  25
BRANCH  24  39
HETATM   39  N3  UNL     1       7.300  21.440  20.736  1.00  0.00    -0.066 N
ATOM     40  H33 UNL     1       6.791  20.892  20.041  1.00  0.00     0.275 HD
ATOM     41  H32 UNL     1       7.130  20.804  21.516  1.00  0.00     0.275 HD
ATOM     42  H31 UNL     1       6.943  22.385  20.874  1.00  0.00     0.275 HD
ENDBRANCH  24  39
ENDBRANCH   1  24
TORSDOF 9
ENDMDL