MODEL 5
REMARK VINA RESULT: -6.876267418      3.124      6.093
REMARK  10 active torsions:
REMARK  status: ('A' for Active; 'I' for Inactive)
REMARK    1  A    between atoms: C2_2  and  C4_4
REMARK    2  A    between atoms: C4_4  and  N1_5
REMARK    3  A    between atoms: C4_4  and  C10_17
REMARK       I    between atoms: N1_5  and  C5_7
REMARK    4  A    between atoms: C5_7  and  C6_9
REMARK    5  A    between atoms: C6_9  and  N2_10
REMARK    6  A    between atoms: C9_14  and  O2_15
REMARK       I    between atoms: C10_17  and  N3_19
REMARK    7  A    between atoms: C14_23  and  C15_24
REMARK       I    between atoms: C15_24  and  N4_26
REMARK    8  A    between atoms: N4_26  and  C16_28
REMARK    9  A    between atoms: C17_29  and  C18_30
REMARK   10  A    between atoms: C22_36  and  C23_37
ROOT
HETATM    1  C10 UNL     1       9.854  22.470  18.279  1.00  0.00     0.243 C
HETATM    2  O3  UNL     1       9.193  23.440  18.715  1.00  0.00    -0.271 OA
HETATM    3  N3  UNL     1       9.306  21.728  17.184  1.00  0.00    -0.337 N
HETATM    4  C11 UNL     1      10.042  20.659  16.566  1.00  0.00     0.127 C
HETATM    5  C12 UNL     1       8.901  19.657  16.338  1.00  0.00     0.022 C
HETATM    6  C13 UNL     1       7.788  20.566  15.833  1.00  0.00     0.037 C
HETATM    7  C14 UNL     1       8.068  21.861  16.512  1.00  0.00     0.179 C
ENDROOT
BRANCH   1   8
HETATM    8  C4  UNL     1      11.136  22.197  18.943  1.00  0.00     0.180 C
BRANCH   8   9
HETATM    9  C2  UNL     1      10.988  21.246  20.123  1.00  0.00     0.009 C
HETATM   10  C1  UNL     1      11.393  21.866  21.436  1.00  0.00     0.012 C
HETATM   11  C3  UNL     1      11.637  19.917  19.904  1.00  0.00     0.012 C
ENDBRANCH   8   9
BRANCH   8  12
HETATM   12  N1  UNL     1      11.719  23.439  19.480  1.00  0.00    -0.346 N
HETATM   13  C5  UNL     1      13.114  23.687  19.527  1.00  0.00     0.246 C
HETATM   14  O1  UNL     1      13.882  22.774  19.078  1.00  0.00    -0.272 OA
ATOM     15  H1  UNL     1      11.087  24.157  19.835  1.00  0.00     0.163 HD
BRANCH  13  16
HETATM   16  C6  UNL     1      13.691  24.920  20.056  1.00  0.00     0.379 C
BRANCH  16  17
HETATM   17  N2  UNL     1      13.427  25.090  21.441  1.00  0.00     0.136 N
HETATM   18  C7  UNL     1      14.249  24.208  22.268  1.00  0.00     0.287 C
HETATM   19  C8  UNL     1      15.704  24.530  21.964  1.00  0.00     0.108 C
HETATM   20  S1  UNL     1      15.565  26.365  21.942  1.00  0.00    -0.105 SA
HETATM   21  C9  UNL     1      13.723  26.433  21.922  1.00  0.00     0.422 C
BRANCH  21  22
HETATM   22  O2  UNL     1      13.224  26.665  23.183  1.00  0.00    -0.360 OA
ATOM     23  H2  UNL     1      13.589  26.077  23.834  1.00  0.00     0.213 HD
ENDBRANCH  21  22
ENDBRANCH  16  17
ENDBRANCH  13  16
ENDBRANCH   8  12
ENDBRANCH   1   8
BRANCH   7  24
HETATM   24  C15 UNL     1       6.927  22.282  17.365  1.00  0.00     0.241 C
HETATM   25  O4  UNL     1       6.035  22.996  16.843  1.00  0.00    -0.271 OA
HETATM   26  N4  UNL     1       6.863  21.879  18.720  1.00  0.00    -0.351 N
ATOM     27  H4  UNL     1       7.617  21.299  19.089  1.00  0.00     0.163 HD
BRANCH  26  28
HETATM   28  C16 UNL     1       5.799  22.242  19.596  1.00  0.00     0.128 C
HETATM   29  C17 UNL     1       5.005  20.938  19.836  1.00  0.00     0.158 C
HETATM   30  O5  UNL     1       4.959  20.760  21.243  1.00  0.00    -0.313 OA
HETATM   31  C21 UNL     1       5.262  21.913  21.895  1.00  0.00     0.266 C
HETATM   32  O6  UNL     1       4.951  22.265  23.038  1.00  0.00    -0.265 OA
HETATM   33  C22 UNL     1       6.076  22.718  20.940  1.00  0.00     0.114 C
BRANCH  29  34
HETATM   34  C18 UNL     1       3.636  20.993  19.226  1.00  0.00     0.009 C
HETATM   35  C19 UNL     1       2.556  20.321  20.010  1.00  0.00     0.012 C
HETATM   36  C20 UNL     1       3.708  20.319  17.867  1.00  0.00     0.012 C
ENDBRANCH  29  34
BRANCH  33  37
HETATM   37  C23 UNL     1       7.493  22.852  21.412  1.00  0.00    -0.007 C
HETATM   38  C24 UNL     1       7.913  21.651  22.202  1.00  0.00     0.010 C
HETATM   39  C25 UNL     1       7.832  24.174  22.021  1.00  0.00     0.010 C
ENDBRANCH  33  37
ENDBRANCH  26  28
ENDBRANCH   7  24
TORSDOF 10
ENDMDL