MODEL 3
REMARK VINA RESULT: -7.749960608      2.539      7.167
REMARK  10 active torsions:
REMARK  status: ('A' for Active; 'I' for Inactive)
REMARK    1  A    between atoms: C2_2  and  C3_3
REMARK    2  A    between atoms: C3_3  and  N1_4
REMARK    3  A    between atoms: C3_3  and  C20_27
REMARK       I    between atoms: N1_4  and  C4_6
REMARK    4  A    between atoms: C4_6  and  C5_8
REMARK       I    between atoms: N2_16  and  C12_17
REMARK    5  A    between atoms: C12_17  and  C13_19
REMARK    6  A    between atoms: C13_19  and  C14_21
REMARK    7  A    between atoms: C14_21  and  C16_23
REMARK    8  A    between atoms: C20_27  and  C21_29
REMARK       I    between atoms: C21_29  and  N3_31
REMARK    9  A    between atoms: N3_31  and  C22_33
REMARK   10  A    between atoms: C22_33  and  C23_34
ROOT
HETATM    1  N1  UNL     1      10.904  22.779  20.859  1.00  0.00    -0.347 N
ATOM      2  H1  UNL     1      10.097  23.081  20.313  1.00  0.00     0.163 HD
HETATM    3  C4  UNL     1      10.702  22.255  22.148  1.00  0.00     0.241 C
HETATM    4  O1  UNL     1      11.685  21.864  22.859  1.00  0.00    -0.271 OA
ENDROOT
BRANCH   3   5
HETATM    5  C5  UNL     1       9.341  22.159  22.683  1.00  0.00     0.180 C
HETATM    6  C6  UNL     1       9.379  21.841  24.179  1.00  0.00     0.041 C
HETATM    7  C7  UNL     1       8.214  22.495  24.857  1.00  0.00     0.004 C
HETATM    8  C8  UNL     1       8.031  22.160  26.308  1.00  0.00     0.079 C
HETATM    9  C10 UNL     1       8.222  23.979  24.763  1.00  0.00     0.018 C
HETATM   10  S1  UNL     1       6.629  23.314  26.660  1.00  0.00    -0.168 SA
HETATM   11  C9  UNL     1       6.768  24.329  25.125  1.00  0.00     0.080 C
HETATM   12  C11 UNL     1       8.649  24.448  23.438  1.00  0.00     0.133 C
HETATM   13  N2  UNL     1       8.534  23.346  22.462  1.00  0.00    -0.332 N
HETATM   14  C12 UNL     1       7.672  23.534  21.386  1.00  0.00     0.290 C
HETATM   15  O2  UNL     1       7.025  24.659  21.386  1.00  0.00    -0.264 OA
BRANCH  14  16
HETATM   16  C13 UNL     1       7.377  22.685  20.266  1.00  0.00     0.221 C
HETATM   17  O3  UNL     1       8.310  22.181  19.601  1.00  0.00    -0.287 OA
BRANCH  16  18
HETATM   18  C14 UNL     1       5.992  22.353  19.826  1.00  0.00     0.069 C
HETATM   19  C15 UNL     1       5.898  21.900  18.408  1.00  0.00     0.019 C
BRANCH  18  20
HETATM   20  C16 UNL     1       5.186  21.555  20.767  1.00  0.00    -0.041 C
HETATM   21  C17 UNL     1       4.135  20.778  19.969  1.00  0.00     0.015 C
HETATM   22  C18 UNL     1       5.900  20.562  21.619  1.00  0.00     0.015 C
HETATM   23  C19 UNL     1       4.377  22.441  21.711  1.00  0.00     0.015 C
ENDBRANCH  18  20
ENDBRANCH  16  18
ENDBRANCH  14  16
ENDBRANCH   3   5
BRANCH   1  24
HETATM   24  C3  UNL     1      12.263  22.904  20.272  1.00  0.00     0.164 C
BRANCH  24  25
HETATM   25  C2  UNL     1      12.230  24.229  19.575  1.00  0.00     0.029 C
HETATM   26  C1  UNL     1      13.509  24.901  19.284  1.00  0.00     0.007 C
ENDBRANCH  24  25
BRANCH  24  27
HETATM   27  C20 UNL     1      12.506  21.735  19.434  1.00  0.00     0.238 C
HETATM   28  O4  UNL     1      13.737  21.471  19.190  1.00  0.00    -0.285 OA
BRANCH  27  29
HETATM   29  C21 UNL     1      11.543  20.836  18.841  1.00  0.00     0.289 C
HETATM   30  O5  UNL     1      11.310  19.735  19.370  1.00  0.00    -0.264 OA
HETATM   31  N3  UNL     1      10.836  21.159  17.655  1.00  0.00    -0.352 N
ATOM     32  H3  UNL     1      11.012  22.060  17.210  1.00  0.00     0.162 HD
BRANCH  31  33
HETATM   33  C22 UNL     1       9.877  20.264  17.054  1.00  0.00     0.157 C
BRANCH  33  34
HETATM   34  C23 UNL     1       9.262  20.815  15.805  1.00  0.00     0.169 C
HETATM   35  C24 UNL     1       7.924  20.111  15.595  1.00  0.00     0.159 C
HETATM   36  N4  UNL     1       7.123  21.119  14.885  1.00  0.00    -0.334 N
HETATM   37  C25 UNL     1       7.806  22.361  15.043  1.00  0.00     0.361 C
ATOM     38  H4  UNL     1       6.251  20.962  14.380  1.00  0.00     0.164 HD
HETATM   39  O6  UNL     1       7.486  23.420  14.431  1.00  0.00    -0.239 OA
HETATM   40  O7  UNL     1       8.836  22.155  15.960  1.00  0.00    -0.295 OA
ENDBRANCH  33  34
ENDBRANCH  31  33
ENDBRANCH  27  29
ENDBRANCH  24  27
ENDBRANCH   1  24
TORSDOF 10
ENDMDL