MODEL 4
REMARK VINA RESULT: -8.096508531      8.306     12.782
REMARK  9 active torsions:
REMARK  status: ('A' for Active; 'I' for Inactive)
REMARK    1  A    between atoms: C6_6  and  N1_7
REMARK       I    between atoms: N1_7  and  C7_9
REMARK    2  A    between atoms: C7_9  and  C8_11
REMARK    3  A    between atoms: C8_11  and  N2_12
REMARK       I    between atoms: N2_12  and  C9_14
REMARK    4  A    between atoms: C9_14  and  C10_16
REMARK    5  A    between atoms: C10_16  and  N3_17
REMARK       I    between atoms: N3_17  and  C11_19
REMARK    6  A    between atoms: C11_19  and  C12_21
REMARK    7  A    between atoms: C14_24  and  C15_25
REMARK    8  A    between atoms: C20_30  and  S1_31
REMARK    9  A    between atoms: S1_31  and  C21_34
ROOT
HETATM    1  C12 UNL     1       6.019  21.725  17.611  1.00  0.00     0.108 C
HETATM    2  C13 UNL     1       5.377  20.728  16.758  1.00  0.00     0.104 C
HETATM    3  N4  UNL     1       4.876  19.927  16.096  1.00  0.00    -0.191 NA
HETATM    4  C14 UNL     1       7.068  22.341  17.104  1.00  0.00     0.006 C
ENDROOT
BRANCH   1   5
HETATM    5  C11 UNL     1       5.475  21.972  18.939  1.00  0.00     0.262 C
HETATM    6  N3  UNL     1       4.443  21.163  19.464  1.00  0.00    -0.348 N
ATOM      7  H3  UNL     1       4.097  20.399  18.884  1.00  0.00     0.163 HD
HETATM    8  O3  UNL     1       5.943  22.926  19.611  1.00  0.00    -0.267 OA
BRANCH   6   9
HETATM    9  C10 UNL     1       3.850  21.345  20.759  1.00  0.00     0.225 C
BRANCH   9  10
HETATM   10  C9  UNL     1       2.612  20.543  20.970  1.00  0.00     0.235 C
HETATM   11  N2  UNL     1       2.171  20.246  22.287  1.00  0.00    -0.351 N
ATOM     12  H2  UNL     1       2.716  20.587  23.079  1.00  0.00     0.163 HD
HETATM   13  O2  UNL     1       1.988  20.149  19.959  1.00  0.00    -0.272 OA
BRANCH  11  14
HETATM   14  C8  UNL     1       0.986  19.485  22.537  1.00  0.00     0.225 C
BRANCH  14  15
HETATM   15  C7  UNL     1       0.949  18.877  23.909  1.00  0.00     0.235 C
HETATM   16  N1  UNL     1       0.337  17.632  24.098  1.00  0.00    -0.350 N
ATOM     17  H1  UNL     1      -0.065  17.192  23.270  1.00  0.00     0.163 HD
HETATM   18  O1  UNL     1       1.461  19.484  24.872  1.00  0.00    -0.272 OA
BRANCH  16  19
HETATM   19  C6  UNL     1       0.212  16.900  25.342  1.00  0.00     0.037 C
HETATM   20  C5  UNL     1       1.565  16.570  25.847  1.00  0.00     0.066 C
HETATM   21  C4  UNL     1       1.633  16.142  27.288  1.00  0.00     0.163 C
HETATM   22  C3  UNL     1       0.704  16.932  28.146  1.00  0.00     0.044 C
HETATM   23  O7  UNL     1       1.521  14.774  27.401  1.00  0.00    -0.235 OA
HETATM   24  C2  UNL     1      -0.692  17.048  27.571  1.00  0.00    -0.038 C
HETATM   25  C1  UNL     1      -1.454  17.970  28.535  1.00  0.00     0.015 C
HETATM   26  C18 UNL     1      -0.603  17.774  26.269  1.00  0.00     0.040 C
HETATM   27  C25 UNL     1      -1.403  15.738  27.487  1.00  0.00     0.037 C
HETATM   28  C20 UNL     1      -1.208  14.965  26.232  1.00  0.00     0.091 C
HETATM   29  C19 UNL     1      -0.643  15.693  25.071  1.00  0.00     0.058 C
HETATM   30  C24 UNL     1      -0.265  13.781  26.503  1.00  0.00     0.235 C
HETATM   31  O6  UNL     1       1.041  14.241  26.286  1.00  0.00    -0.239 OA
BRANCH  28  32
HETATM   32  S1  UNL     1      -2.805  14.405  25.692  1.00  0.00     0.159 S
HETATM   33  O4  UNL     1      -2.759  12.895  25.472  1.00  0.00    -0.227 OA
HETATM   34  O5  UNL     1      -2.966  14.966  24.281  1.00  0.00    -0.227 OA
BRANCH  32  35
HETATM   35  C21 UNL     1      -4.176  14.883  26.608  1.00  0.00     0.109 A
HETATM   36  C22 UNL     1      -5.478  14.087  26.496  1.00  0.00     0.021 A
HETATM   37  C23 UNL     1      -4.734  14.301  27.811  1.00  0.00     0.021 A
ENDBRANCH  32  35
ENDBRANCH  28  32
ENDBRANCH  16  19
ENDBRANCH  14  15
ENDBRANCH  11  14
ENDBRANCH   9  10
ENDBRANCH   6   9
ENDBRANCH   1   5
BRANCH   4  38
HETATM   38  C15 UNL     1       7.526  21.993  15.727  1.00  0.00     0.010 A
HETATM   39  C16 UNL     1       8.912  22.368  15.344  1.00  0.00     0.009 A
HETATM   40  C17 UNL     1       7.734  23.119  14.776  1.00  0.00     0.009 A
ENDBRANCH   4  38
TORSDOF 9
ENDMDL