MODEL 4
REMARK VINA RESULT: -8.076483431      5.145     11.314
REMARK  9 active torsions:
REMARK  status: ('A' for Active; 'I' for Inactive)
REMARK    1  A    between atoms: C1_2  and  C2_4
REMARK    2  A    between atoms: C2_4  and  C3_5
REMARK    3  A    between atoms: C3_5  and  C4_6
REMARK    4  A    between atoms: C4_6  and  N1_7
REMARK    5  A    between atoms: C4_6  and  C15_22
REMARK       I    between atoms: N1_7  and  C5_9
REMARK    6  A    between atoms: C5_9  and  C6_11
REMARK    7  A    between atoms: C8_13  and  N2_14
REMARK       I    between atoms: C15_22  and  N3_24
REMARK       I    between atoms: N4_27  and  C18_28
REMARK    8  A    between atoms: C18_28  and  C19_30
REMARK    9  A    between atoms: C19_30  and  C20_32
ROOT
HETATM    1  C4  UNL     1       2.690  20.232  24.287  1.00  0.00     0.177 C
ENDROOT
BRANCH   1   2
HETATM    2  C3  UNL     1       2.864  21.314  25.372  1.00  0.00     0.045 C
BRANCH   2   3
HETATM    3  C2  UNL     1       1.480  21.708  25.851  1.00  0.00     0.116 C
BRANCH   3   4
HETATM    4  C1  UNL     1       0.671  22.067  24.658  1.00  0.00     0.172 C
HETATM    5  O1  UNL     1      -0.474  21.538  24.466  1.00  0.00    -0.648 OA
HETATM    6  O2  UNL     1       1.120  22.976  23.719  1.00  0.00    -0.648 OA
ENDBRANCH   3   4
ENDBRANCH   2   3
ENDBRANCH   1   2
BRANCH   1   7
HETATM    7  N1  UNL     1       3.621  20.709  23.234  1.00  0.00    -0.342 N
HETATM    8  C5  UNL     1       3.139  20.771  21.914  1.00  0.00     0.276 C
HETATM    9  O3  UNL     1       1.965  20.433  21.654  1.00  0.00    -0.265 OA
ATOM     10  H1  UNL     1       4.577  20.982  23.459  1.00  0.00     0.163 HD
BRANCH   8  11
HETATM   11  C6  UNL     1       4.025  21.234  20.858  1.00  0.00     0.144 A
HETATM   12  C7  UNL     1       4.054  20.805  19.540  1.00  0.00     0.074 A
HETATM   13  C8  UNL     1       5.044  21.503  18.884  1.00  0.00     0.055 A
HETATM   14  C14 UNL     1       5.588  22.339  19.835  1.00  0.00     0.172 A
HETATM   15  O4  UNL     1       4.965  22.156  20.985  1.00  0.00    -0.315 OA
BRANCH  13  16
HETATM   16  N2  UNL     1       5.441  21.397  17.505  1.00  0.00    -0.379 N
HETATM   17  C9  UNL     1       4.853  20.428  16.618  1.00  0.00     0.123 C
HETATM   18  C10 UNL     1       5.828  19.733  15.727  1.00  0.00     0.020 C
HETATM   19  C11 UNL     1       7.003  20.558  15.319  1.00  0.00     0.003 C
HETATM   20  C12 UNL     1       7.576  21.346  16.457  1.00  0.00     0.020 C
HETATM   21  C13 UNL     1       6.459  22.271  16.957  1.00  0.00     0.123 C
ENDBRANCH  13  16
ENDBRANCH   8  11
ENDBRANCH   1   7
BRANCH   1  22
HETATM   22  C15 UNL     1       3.167  18.934  24.778  1.00  0.00     0.242 C
HETATM   23  O5  UNL     1       4.409  18.728  24.865  1.00  0.00    -0.271 OA
HETATM   24  N3  UNL     1       2.283  17.910  25.154  1.00  0.00    -0.347 N
HETATM   25  C16 UNL     1       0.847  17.990  25.062  1.00  0.00     0.145 C
HETATM   26  C26 UNL     1       2.848  16.651  25.685  1.00  0.00     0.145 C
HETATM   27  C17 UNL     1       0.319  17.805  26.491  1.00  0.00     0.146 C
HETATM   28  N4  UNL     1       0.735  16.472  26.869  1.00  0.00    -0.343 N
HETATM   29  C18 UNL     1      -0.076  15.363  27.094  1.00  0.00     0.290 C
HETATM   30  C25 UNL     1       2.211  16.290  27.011  1.00  0.00     0.146 C
HETATM   31  O6  UNL     1       0.528  14.273  27.444  1.00  0.00    -0.264 OA
BRANCH  29  32
HETATM   32  C19 UNL     1      -1.510  15.265  26.989  1.00  0.00     0.222 C
HETATM   33  O7  UNL     1      -2.068  15.147  25.878  1.00  0.00    -0.287 OA
BRANCH  32  34
HETATM   34  C20 UNL     1      -2.359  15.306  28.233  1.00  0.00     0.091 C
HETATM   35  C21 UNL     1      -3.636  14.558  27.950  1.00  0.00     0.016 C
HETATM   36  C22 UNL     1      -4.539  14.486  29.136  1.00  0.00     0.028 C
HETATM   37  C23 UNL     1      -4.481  15.836  29.851  1.00  0.00     0.232 C
HETATM   38  N5  UNL     1      -4.097  16.867  28.915  1.00  0.00    -0.074 N
HETATM   39  C24 UNL     1      -2.672  16.757  28.591  1.00  0.00     0.244 C
ATOM     40  H52 UNL     1      -4.679  16.856  28.078  1.00  0.00     0.277 HD
ATOM     41  H51 UNL     1      -4.338  17.798  29.255  1.00  0.00     0.277 HD
ENDBRANCH  32  34
ENDBRANCH  29  32
ENDBRANCH   1  22
TORSDOF 9
ENDMDL