MODEL 5
REMARK VINA RESULT: -7.628052609      3.497      6.483
REMARK  10 active torsions:
REMARK  status: ('A' for Active; 'I' for Inactive)
REMARK    1  A    between atoms: C2_2  and  C3_3
REMARK    2  A    between atoms: C2_2  and  C4_6
REMARK    3  A    between atoms: C3_3  and  O1_4
REMARK    4  A    between atoms: C6_8  and  N1_9
REMARK    5  A    between atoms: N1_9  and  C7_11
REMARK    6  A    between atoms: C7_11  and  C8_12
REMARK    7  A    between atoms: C8_12  and  C9_14
REMARK    8  A    between atoms: C9_14  and  C10_16
REMARK    9  A    between atoms: C10_16  and  S1_17
REMARK   10  A    between atoms: C14_24  and  C15_25
REMARK       I    between atoms: C15_25  and  N2_27
ROOT
HETATM    1  C4  UNL     1       7.535  22.530  23.313  1.00  0.00     0.023 C
HETATM    2  C5  UNL     1       8.875  21.810  23.243  1.00  0.00     0.040 C
HETATM    3  C6  UNL     1       9.691  22.177  22.073  1.00  0.00     0.031 C
HETATM    4  C11 UNL     1       9.796  23.675  22.166  1.00  0.00     0.036 C
HETATM    5  C12 UNL     1       8.437  24.226  21.709  1.00  0.00    -0.006 C
HETATM    6  C13 UNL     1       8.593  24.385  20.242  1.00  0.00     0.025 C
HETATM    7  C14 UNL     1       7.906  23.274  19.458  1.00  0.00     0.045 C
HETATM    8  C20 UNL     1       6.456  23.520  19.785  1.00  0.00     0.024 C
HETATM    9  C21 UNL     1       6.398  22.811  21.161  1.00  0.00    -0.008 C
HETATM   10  C22 UNL     1       6.861  21.477  20.688  1.00  0.00     0.011 C
HETATM   11  C23 UNL     1       8.148  21.893  20.018  1.00  0.00     0.006 C
HETATM   12  C24 UNL     1       9.359  21.652  20.736  1.00  0.00     0.036 C
HETATM   13  C25 UNL     1       7.275  23.479  22.183  1.00  0.00     0.002 C
ENDROOT
BRANCH   3  14
HETATM   14  N1  UNL     1      11.046  21.639  22.253  1.00  0.00    -0.386 N
ATOM     15  H1  UNL     1      11.275  20.680  21.993  1.00  0.00     0.159 HD
BRANCH  14  16
HETATM   16  C7  UNL     1      12.017  22.500  22.799  1.00  0.00     0.143 C
BRANCH  16  17
HETATM   17  C8  UNL     1      13.120  22.632  21.764  1.00  0.00     0.233 C
HETATM   18  O2  UNL     1      14.294  22.716  22.222  1.00  0.00    -0.283 OA
BRANCH  17  19
HETATM   19  C9  UNL     1      12.847  22.655  20.354  1.00  0.00     0.216 C
HETATM   20  O3  UNL     1      12.894  21.577  19.668  1.00  0.00    -0.288 OA
BRANCH  19  21
HETATM   21  C10 UNL     1      12.522  23.907  19.661  1.00  0.00     0.252 C
BRANCH  21  22
HETATM   22  S1  UNL     1      14.028  24.774  19.175  1.00  0.00     0.109 S
HETATM   23  O4  UNL     1      15.150  23.771  19.015  1.00  0.00    -0.595 OA
HETATM   24  O5  UNL     1      14.366  25.726  20.272  1.00  0.00    -0.595 OA
HETATM   25  O6  UNL     1      13.780  25.590  17.744  1.00  0.00    -0.595 OA
ENDBRANCH  21  22
ENDBRANCH  19  21
ENDBRANCH  17  19
ENDBRANCH  16  17
ENDBRANCH  14  16
ENDBRANCH   3  14
BRANCH   1  26
HETATM   26  C2  UNL     1       7.299  23.121  24.663  1.00  0.00    -0.061 C
HETATM   27  C1  UNL     1       6.427  23.991  25.034  1.00  0.00     0.017 C
BRANCH  26  28
HETATM   28  C3  UNL     1       8.201  22.565  25.749  1.00  0.00     0.198 C
BRANCH  28  29
HETATM   29  O1  UNL     1       7.539  21.549  26.460  1.00  0.00    -0.397 OA
ATOM     30  H1  UNL     1       8.111  21.187  27.126  1.00  0.00     0.209 HD
ENDBRANCH  28  29
ENDBRANCH  26  28
ENDBRANCH   1  26
BRANCH   7  31
HETATM   31  C15 UNL     1       8.306  23.371  18.056  1.00  0.00     0.229 C
HETATM   32  O7  UNL     1       9.348  24.134  17.953  1.00  0.00    -0.272 OA
HETATM   33  N2  UNL     1       7.820  22.844  16.889  1.00  0.00    -0.347 N
HETATM   34  C16 UNL     1       8.463  23.210  15.604  1.00  0.00     0.152 C
HETATM   35  C19 UNL     1       6.756  21.907  16.640  1.00  0.00     0.152 C
HETATM   36  C17 UNL     1       9.000  21.913  14.968  1.00  0.00     0.187 C
HETATM   37  O8  UNL     1       8.031  20.938  14.938  1.00  0.00    -0.388 OA
HETATM   38  C18 UNL     1       7.490  20.625  16.181  1.00  0.00     0.187 C
ENDBRANCH   7  31
TORSDOF 10
ENDMDL