MODEL 4
REMARK VINA RESULT: -6.915864368      5.460     10.540
REMARK  12 active torsions:
REMARK  status: ('A' for Active; 'I' for Inactive)
REMARK    1  A    between atoms: C2_2  and  C4_4
REMARK    2  A    between atoms: C4_4  and  C5_5
REMARK    3  A    between atoms: C5_5  and  N1_6
REMARK    4  A    between atoms: C5_5  and  C11_15
REMARK       I    between atoms: N1_6  and  C6_8
REMARK    5  A    between atoms: C6_8  and  O2_10
REMARK    6  A    between atoms: O2_10  and  C7_11
REMARK       I    between atoms: C11_15  and  N2_17
REMARK       I    between atoms: N2_17  and  C12_19
REMARK    7  A    between atoms: C12_19  and  C13_21
REMARK    8  A    between atoms: C13_21  and  C14_22
REMARK    9  A    between atoms: C13_21  and  N3_25
REMARK   10  A    between atoms: C18_27  and  O5_28
REMARK   11  A    between atoms: C19_30  and  C20_31
REMARK   12  A    between atoms: C21_33  and  C22_34
REMARK       I    between atoms: C22_34  and  N4_36
ROOT
HETATM    1  C11 UNL     1       6.255  22.106  20.661  1.00  0.00     0.247 C
HETATM    2  O3  UNL     1       7.014  21.296  21.294  1.00  0.00    -0.271 OA
HETATM    3  N2  UNL     1       4.879  21.986  20.968  1.00  0.00    -0.294 N
ATOM      4  H2  UNL     1       4.229  22.589  20.464  1.00  0.00     0.171 HD
HETATM    5  C12 UNL     1       4.339  21.100  21.916  1.00  0.00     0.258 C
HETATM    6  O4  UNL     1       5.046  20.329  22.573  1.00  0.00    -0.271 OA
ENDROOT
BRANCH   5   7
HETATM    7  C13 UNL     1       2.811  21.094  22.140  1.00  0.00     0.319 C
BRANCH   7   8
HETATM    8  C14 UNL     1       2.323  20.214  21.047  1.00  0.00     0.020 C
HETATM    9  C15 UNL     1       2.861  20.392  19.672  1.00  0.00     0.012 C
HETATM   10  C16 UNL     1       0.795  20.131  21.017  1.00  0.00     0.012 C
ENDBRANCH   7   8
BRANCH   7  11
HETATM   11  N3  UNL     1       2.570  20.789  23.494  1.00  0.00     0.119 N
HETATM   12  C17 UNL     1       2.560  22.035  24.296  1.00  0.00     0.307 C
HETATM   13  C18 UNL     1       1.053  22.319  24.379  1.00  0.00     0.159 C
HETATM   14  C19 UNL     1       0.598  20.960  24.849  1.00  0.00     0.120 C
HETATM   15  C21 UNL     1       1.454  20.056  23.878  1.00  0.00     0.328 C
BRANCH  13  16
HETATM   16  O5  UNL     1       0.765  23.340  25.249  1.00  0.00    -0.393 OA
ATOM     17  H5  UNL     1       0.085  23.102  25.868  1.00  0.00     0.210 HD
ENDBRANCH  13  16
BRANCH  14  18
HETATM   18  C20 UNL     1      -0.831  20.695  24.638  1.00  0.00     0.241 C
HETATM   19  O6  UNL     1      -1.688  21.511  24.922  1.00  0.00    -0.306 OA
ENDBRANCH  14  18
BRANCH  15  20
HETATM   20  C22 UNL     1       1.625  18.761  24.537  1.00  0.00     0.256 C
HETATM   21  O7  UNL     1       1.107  17.755  23.903  1.00  0.00    -0.271 OA
HETATM   22  N4  UNL     1       2.255  18.470  25.731  1.00  0.00    -0.327 N
HETATM   23  C23 UNL     1       2.381  17.092  26.301  1.00  0.00     0.154 C
HETATM   24  C25 UNL     1       2.920  19.240  26.748  1.00  0.00     0.296 C
HETATM   25  C24 UNL     1       2.056  17.411  27.744  1.00  0.00     0.190 C
HETATM   26  O8  UNL     1       2.507  18.704  27.968  1.00  0.00    -0.370 OA
ENDBRANCH  15  20
ENDBRANCH   7  11
ENDBRANCH   5   7
BRANCH   1  27
HETATM   27  C5  UNL     1       6.810  23.065  19.695  1.00  0.00     0.179 C
BRANCH  27  28
HETATM   28  C4  UNL     1       7.934  23.907  20.158  1.00  0.00     0.038 C
BRANCH  28  29
HETATM   29  C2  UNL     1       9.324  23.635  19.836  1.00  0.00    -0.020 C
HETATM   30  C1  UNL     1      10.146  24.601  19.097  1.00  0.00     0.009 C
HETATM   31  C3  UNL     1      10.040  23.349  21.178  1.00  0.00     0.009 C
ENDBRANCH  28  29
ENDBRANCH  27  28
BRANCH  27  32
HETATM   32  N1  UNL     1       7.442  22.213  18.645  1.00  0.00    -0.324 N
HETATM   33  C6  UNL     1       6.783  21.927  17.428  1.00  0.00     0.362 C
HETATM   34  O1  UNL     1       5.637  22.362  17.165  1.00  0.00    -0.238 OA
ATOM     35  H1  UNL     1       8.372  21.829  18.810  1.00  0.00     0.165 HD
BRANCH  33  36
HETATM   36  O2  UNL     1       7.405  21.139  16.474  1.00  0.00    -0.294 OA
BRANCH  36  37
HETATM   37  C7  UNL     1       8.545  21.659  15.801  1.00  0.00     0.061 C
HETATM   38  C8  UNL     1       9.800  20.989  16.379  1.00  0.00     0.046 C
HETATM   39  C9  UNL     1       8.679  23.140  15.927  1.00  0.00     0.046 C
HETATM   40  C10 UNL     1       8.444  21.308  14.336  1.00  0.00     0.046 C
ENDBRANCH  36  37
ENDBRANCH  33  36
ENDBRANCH  27  32
ENDBRANCH   1  27
TORSDOF 12
ENDMDL