MODEL 2
REMARK VINA RESULT: -6.719148101      1.285      3.118
REMARK  4 active torsions:
REMARK  status: ('A' for Active; 'I' for Inactive)
REMARK    1  A    between atoms: C2_2  and  O1_3
REMARK    2  A    between atoms: C7_9  and  O2_10
REMARK    3  A    between atoms: C9_13  and  C10_14
REMARK    4  A    between atoms: C10_14  and  N1_15
ROOT
HETATM    1  C1  UNL     1      -4.063   5.640  14.536  1.00  0.00     0.046 C
HETATM    2  C2  UNL     1      -4.647   4.859  13.401  1.00  0.00     0.060 C
HETATM    3  C3  UNL     1      -3.861   5.161  12.175  1.00  0.00     0.038 C
HETATM    4  C4  UNL     1      -3.281   3.908  11.585  1.00  0.00     0.008 C
HETATM    5  C5  UNL     1      -4.447   3.011  11.241  1.00  0.00    -0.005 C
HETATM    6  C6  UNL     1      -3.973   1.627  10.904  1.00  0.00     0.037 C
HETATM    7  C7  UNL     1      -4.304   1.245  12.343  1.00  0.00     0.123 C
HETATM    8  C8  UNL     1      -5.046   2.535  12.537  1.00  0.00     0.027 C
HETATM    9  C9  UNL     1      -4.740   3.363  13.726  1.00  0.00     0.055 C
ENDROOT
BRANCH   9  10
HETATM   10  C10 UNL     1      -5.946   3.284  14.674  1.00  0.00     0.280 C
BRANCH  10  11
HETATM   11  N1  UNL     1      -5.578   3.179  16.051  1.00  0.00     0.088 N
HETATM   12  C11 UNL     1      -6.686   2.889  16.928  1.00  0.00     0.272 C
HETATM   13  C12 UNL     1      -6.392   1.772  17.908  1.00  0.00     0.030 C
HETATM   14  C13 UNL     1      -6.112   0.496  17.170  1.00  0.00     0.003 C
HETATM   15  C14 UNL     1      -5.142   0.754  16.072  1.00  0.00     0.030 C
HETATM   16  C15 UNL     1      -4.582   2.137  16.164  1.00  0.00     0.272 C
ENDBRANCH  10  11
ENDBRANCH   9  10
BRANCH   2  17
HETATM   17  O1  UNL     1      -5.961   5.312  13.212  1.00  0.00    -0.390 OA
ATOM     18  H1  UNL     1      -6.051   5.547  12.296  1.00  0.00     0.210 HD
ENDBRANCH   2  17
BRANCH   7  19
HETATM   19  O2  UNL     1      -3.144   1.054  13.051  1.00  0.00    -0.395 OA
ATOM     20  H2  UNL     1      -3.344   0.960  13.975  1.00  0.00     0.210 HD
ENDBRANCH   7  19
TORSDOF 4
ENDMDL