MODEL 1
REMARK VINA RESULT: -7.547550528      0.000      0.000
REMARK  2 active torsions:
REMARK  status: ('A' for Active; 'I' for Inactive)
REMARK    1  A    between atoms: C2_3  and  N2_4
REMARK       I    between atoms: N2_4  and  C3_6
REMARK       I    between atoms: C3_6  and  N3_8
REMARK    2  A    between atoms: N3_8  and  C4_10
ROOT
HETATM    1  N1  UNL     1       2.631   4.023  10.304  1.00  0.00    -0.196 NA
HETATM    2  C1  UNL     1       1.669   4.569  10.681  1.00  0.00     0.078 C
HETATM    3  C2  UNL     1       0.471   5.231  11.151  1.00  0.00     0.248 C
ENDROOT
BRANCH   3   4
HETATM    4  N2  UNL     1       0.029   4.648  12.373  1.00  0.00    -0.331 N
HETATM    5  C3  UNL     1      -1.342   4.241  12.520  1.00  0.00     0.317 C
HETATM    6  O1  UNL     1      -2.130   4.408  11.555  1.00  0.00    -0.247 OA
HETATM    7  N3  UNL     1      -1.823   3.659  13.714  1.00  0.00    -0.338 N
ATOM      8  H3  UNL     1      -1.193   3.518  14.503  1.00  0.00     0.164 HD
ATOM      9  H2  UNL     1       0.684   4.521  13.144  1.00  0.00     0.165 HD
BRANCH   7  10
HETATM   10  C4  UNL     1      -3.203   3.266  13.816  1.00  0.00     0.091 C
HETATM   11  C5  UNL     1      -3.437   2.192  12.783  1.00  0.00     0.051 C
HETATM   12  C6  UNL     1      -4.205   1.077  13.468  1.00  0.00     0.171 C
HETATM   13  O2  UNL     1      -5.251   1.670  14.142  1.00  0.00    -0.380 OA
HETATM   14  C7  UNL     1      -4.845   2.196  15.394  1.00  0.00     0.062 C
HETATM   15  C8  UNL     1      -5.763   3.312  15.695  1.00  0.00     0.038 C
HETATM   16  C12 UNL     1      -4.753   1.081  16.344  1.00  0.00     0.038 C
HETATM   17  C13 UNL     1      -3.438   2.785  15.218  1.00  0.00     0.063 C
HETATM   18  C9  UNL     1      -6.844   3.032  16.692  1.00  0.00     0.003 C
HETATM   19  C10 UNL     1      -6.359   2.248  17.883  1.00  0.00     0.000 C
HETATM   20  C11 UNL     1      -5.867   0.939  17.332  1.00  0.00     0.003 C
ENDBRANCH   7  10
ENDBRANCH   3   4
TORSDOF 2
ENDMDL