MODEL 2
REMARK VINA RESULT: -5.837488943      2.626      6.233
REMARK  6 active torsions:
REMARK  status: ('A' for Active; 'I' for Inactive)
REMARK    1  A    between atoms: C3_3  and  C4_4
REMARK    2  A    between atoms: C4_4  and  N1_5
REMARK    3  A    between atoms: C7_8  and  O1_9
REMARK    4  A    between atoms: C7_8  and  C8_11
REMARK    5  A    between atoms: C8_11  and  O2_13
REMARK    6  A    between atoms: C8_11  and  C10_15
ROOT
HETATM    1  C1  UNL     1      -7.281   1.045  16.963  1.00  0.00     0.112 C
HETATM    2  C2  UNL     1      -6.747   2.254  16.321  1.00  0.00    -0.109 C
HETATM    3  C3  UNL     1      -6.312   3.238  15.773  1.00  0.00    -0.077 C
ENDROOT
BRANCH   3   4
HETATM    4  C4  UNL     1      -5.788   4.414  15.087  1.00  0.00     0.365 C
BRANCH   4   5
HETATM    5  N1  UNL     1      -4.360   4.239  14.959  1.00  0.00     0.099 N
HETATM    6  C5  UNL     1      -3.995   3.192  14.050  1.00  0.00     0.276 C
HETATM    7  C6  UNL     1      -3.785   3.680  12.632  1.00  0.00     0.071 C
HETATM    8  C7  UNL     1      -2.735   4.713  12.497  1.00  0.00     0.092 C
HETATM    9  C14 UNL     1      -2.452   5.223  13.929  1.00  0.00     0.071 C
HETATM   10  C15 UNL     1      -3.822   5.515  14.543  1.00  0.00     0.276 C
BRANCH   8  11
HETATM   11  O1  UNL     1      -3.254   5.870  11.870  1.00  0.00    -0.387 OA
ATOM     12  H1  UNL     1      -2.552   6.387  11.492  1.00  0.00     0.210 HD
ENDBRANCH   8  11
BRANCH   8  13
HETATM   13  C8  UNL     1      -1.423   4.313  11.939  1.00  0.00     0.091 C
HETATM   14  C9  UNL     1      -0.643   5.622  11.702  1.00  0.00     0.050 C
BRANCH  13  15
HETATM   15  O2  UNL     1      -0.707   3.669  12.962  1.00  0.00    -0.386 OA
ATOM     16  H2  UNL     1      -0.077   3.091  12.549  1.00  0.00     0.210 HD
ENDBRANCH  13  15
BRANCH  13  17
HETATM   17  C10 UNL     1      -1.387   3.495  10.714  1.00  0.00    -0.018 C
HETATM   18  C11 UNL     1      -1.784   2.048  10.870  1.00  0.00     0.018 C
HETATM   19  C12 UNL     1       0.064   3.465  10.215  1.00  0.00     0.018 C
HETATM   20  C13 UNL     1      -2.195   4.044   9.563  1.00  0.00     0.018 C
ENDBRANCH  13  17
ENDBRANCH   8  13
ENDBRANCH   4   5
ENDBRANCH   3   4
TORSDOF 6
ENDMDL