MODEL 1
REMARK VINA RESULT: -7.183376828      0.000      0.000
REMARK  3 active torsions:
REMARK  status: ('A' for Active; 'I' for Inactive)
REMARK    1  A    between atoms: O1_2  and  C2_3
REMARK       I    between atoms: N1_6  and  C5_7
REMARK       I    between atoms: C5_7  and  N3_12
REMARK    2  A    between atoms: N2_8  and  O2_10
REMARK    3  A    between atoms: N3_12  and  C6_14
ROOT
HETATM    1  C2  UNL     1      -6.386   1.779  16.446  1.00  0.00     0.123 C
HETATM    2  C3  UNL     1      -4.924   1.365  16.516  1.00  0.00     0.052 C
HETATM    3  C4  UNL     1      -4.372   1.331  15.129  1.00  0.00     0.143 C
HETATM    4  N1  UNL     1      -4.622   2.619  14.507  1.00  0.00    -0.216 N
HETATM    5  C5  UNL     1      -3.612   3.106  13.620  1.00  0.00     0.696 C
HETATM    6  N2  UNL     1      -2.466   3.373  14.109  1.00  0.00    -0.099 N
ATOM      7  H2  UNL     1      -2.348   3.217  15.110  1.00  0.00     0.213 HD
HETATM    8  N3  UNL     1      -3.825   3.304  12.231  1.00  0.00    -0.220 N
ATOM      9  H3  UNL     1      -3.989   4.253  11.892  1.00  0.00     0.178 HD
HETATM   10  C11 UNL     1      -5.791   3.412  14.721  1.00  0.00     0.143 C
HETATM   11  C12 UNL     1      -6.409   3.241  16.089  1.00  0.00     0.052 C
ENDROOT
BRANCH   6  12
HETATM   12  O2  UNL     1      -1.390   3.841  13.433  1.00  0.00    -0.276 OA
ATOM     13  H2  UNL     1      -0.589   4.183  13.812  1.00  0.00     0.245 HD
ENDBRANCH   6  12
BRANCH   8  14
HETATM   14  C6  UNL     1      -3.820   2.222  11.281  1.00  0.00     0.099 C
HETATM   15  C7  UNL     1      -2.880   1.137  11.689  1.00  0.00     0.026 C
HETATM   16  C8  UNL     1      -3.510  -0.180  11.304  1.00  0.00     0.002 C
HETATM   17  C9  UNL     1      -4.751   0.193  10.541  1.00  0.00     0.002 C
HETATM   18  C10 UNL     1      -5.165   1.486  11.256  1.00  0.00     0.026 C
ENDBRANCH   8  14
BRANCH   1  19
HETATM   19  O1  UNL     1      -6.943   1.509  17.680  1.00  0.00    -0.391 OA
HETATM   20  C1  UNL     1      -6.302   2.135  18.734  1.00  0.00     0.202 C
ENDBRANCH   1  19
TORSDOF 3
ENDMDL