MODEL 3
REMARK VINA RESULT: -6.434732235      2.283      3.906
REMARK  3 active torsions:
REMARK  status: ('A' for Active; 'I' for Inactive)
REMARK    1  A    between atoms: C2_2  and  O1_3
REMARK    2  A    between atoms: C2_2  and  C3_5
REMARK    3  A    between atoms: C3_5  and  N1_6
ROOT
HETATM    1  N1  UNL     1      -3.688   1.556  13.510  1.00  0.00     0.101 N
HETATM    2  C4  UNL     1      -4.034   1.403  14.899  1.00  0.00     0.274 C
HETATM    3  C5  UNL     1      -3.284   2.565  15.571  1.00  0.00     0.046 C
HETATM    4  C6  UNL     1      -3.269   3.565  14.535  1.00  0.00     0.039 A
HETATM    5  C7  UNL     1      -3.831   4.858  14.655  1.00  0.00     0.046 A
HETATM    6  C8  UNL     1      -4.917   4.935  13.630  1.00  0.00    -0.038 C
HETATM    7  C9  UNL     1      -4.856   6.115  12.727  1.00  0.00     0.015 C
HETATM    8  C10 UNL     1      -6.244   5.010  14.398  1.00  0.00     0.015 C
HETATM    9  C11 UNL     1      -4.895   3.606  12.867  1.00  0.00     0.052 C
HETATM   10  C12 UNL     1      -3.606   2.942  13.209  1.00  0.00     0.174 C
HETATM   11  C13 UNL     1      -2.461   3.340  12.345  1.00  0.00     0.077 C
HETATM   12  C14 UNL     1      -1.658   4.279  13.208  1.00  0.00     0.161 A
HETATM   13  O2  UNL     1      -2.128   5.523  13.341  1.00  0.00    -0.368 OA
HETATM   14  C15 UNL     1      -2.408   4.694  14.367  1.00  0.00     0.103 A
ENDROOT
BRANCH   1  15
HETATM   15  C3  UNL     1      -4.453   0.790  12.604  1.00  0.00     0.304 C
BRANCH  15  16
HETATM   16  C2  UNL     1      -3.636  -0.225  11.855  1.00  0.00     0.142 C
HETATM   17  C1  UNL     1      -3.190   0.220  10.501  1.00  0.00     0.041 C
BRANCH  16  18
HETATM   18  O1  UNL     1      -4.453  -1.360  11.689  1.00  0.00    -0.394 OA
ATOM     19  H1  UNL     1      -4.596  -1.482  10.758  1.00  0.00     0.210 HD
ENDBRANCH  16  18
ENDBRANCH  15  16
ENDBRANCH   1  15
TORSDOF 3
ENDMDL