MODEL 3
REMARK VINA RESULT: -6.666752461      2.693      5.122
REMARK  2 active torsions:
REMARK  status: ('A' for Active; 'I' for Inactive)
REMARK    1  A    between atoms: C5_6  and  N2_7
REMARK    2  A    between atoms: N2_7  and  C6_9
ROOT
HETATM    1  N1  UNL     1      -3.705   0.709  16.213  1.00  0.00    -0.196 NA
HETATM    2  C1  UNL     1      -3.771   1.636  15.526  1.00  0.00     0.069 C
HETATM    3  C2  UNL     1      -3.861   2.817  14.637  1.00  0.00     0.050 C
HETATM    4  C3  UNL     1      -3.729   2.343  13.233  1.00  0.00     0.027 C
HETATM    5  C4  UNL     1      -4.457   3.107  12.206  1.00  0.00     0.033 C
HETATM    6  C5  UNL     1      -4.265   4.620  12.293  1.00  0.00     0.033 C
HETATM    7  C7  UNL     1      -2.929   4.970  12.843  1.00  0.00     0.035 C
HETATM    8  C8  UNL     1      -2.839   5.039  14.338  1.00  0.00    -0.010 C
HETATM    9  C9  UNL     1      -3.989   5.709  15.003  1.00  0.00     0.009 C
HETATM   10  C10 UNL     1      -5.230   4.929  14.605  1.00  0.00    -0.010 C
HETATM   11  C11 UNL     1      -5.168   3.485  14.941  1.00  0.00     0.029 C
HETATM   12  C12 UNL     1      -5.390   5.169  13.120  1.00  0.00     0.035 C
HETATM   13  C13 UNL     1      -2.665   3.677  14.966  1.00  0.00     0.029 C
ENDROOT
BRANCH   6  14
HETATM   14  N2  UNL     1      -4.406   5.134  10.954  1.00  0.00    -0.360 N
ATOM     15  H2  UNL     1      -3.963   4.565  10.232  1.00  0.00     0.162 HD
BRANCH  14  16
HETATM   16  C6  UNL     1      -5.040   6.269  10.482  1.00  0.00     0.181 C
HETATM   17  N3  UNL     1      -6.330   6.128   9.838  1.00  0.00    -0.070 NA
HETATM   18  S1  UNL     1      -4.455   7.768  10.594  1.00  0.00    -0.044 SA
ENDBRANCH  14  16
ENDBRANCH   6  14
TORSDOF 2
ENDMDL