MODEL 4
REMARK VINA RESULT: -6.373976278      1.430      5.321
REMARK  4 active torsions:
REMARK  status: ('A' for Active; 'I' for Inactive)
REMARK    1  A    between atoms: C4_5  and  C5_6
REMARK       I    between atoms: C5_6  and  N2_8
REMARK    2  A    between atoms: N2_8  and  C6_10
REMARK    3  A    between atoms: C6_10  and  N3_12
REMARK    4  A    between atoms: N3_12  and  C7_14
ROOT
HETATM    1  C1  UNL     1      -2.980  -1.562  10.985  1.00  0.00     0.060 C
HETATM    2  C2  UNL     1      -3.128  -0.162  11.527  1.00  0.00     0.024 C
HETATM    3  C3  UNL     1      -2.018   0.715  11.288  1.00  0.00     0.095 C
HETATM    4  N1  UNL     1      -1.107   1.411  11.083  1.00  0.00    -0.192 NA
HETATM    5  C4  UNL     1      -4.224   0.178  12.167  1.00  0.00     0.092 C
ENDROOT
BRANCH   5   6
HETATM    6  C5  UNL     1      -4.444   1.500  12.717  1.00  0.00     0.248 C
HETATM    7  O1  UNL     1      -5.339   2.231  12.179  1.00  0.00    -0.268 OA
HETATM    8  N2  UNL     1      -3.691   1.968  13.814  1.00  0.00    -0.300 N
ATOM      9  H2  UNL     1      -2.982   1.357  14.220  1.00  0.00     0.171 HD
BRANCH   8  10
HETATM   10  C6  UNL     1      -3.885   3.267  14.377  1.00  0.00     0.174 C
HETATM   11  S1  UNL     1      -2.732   4.407  14.193  1.00  0.00    -0.041 SA
BRANCH  10  12
HETATM   12  N3  UNL     1      -5.053   3.590  15.107  1.00  0.00    -0.362 N
ATOM     13  H3  UNL     1      -5.399   4.549  15.087  1.00  0.00     0.162 HD
BRANCH  12  14
HETATM   14  C7  UNL     1      -5.760   2.619  15.870  1.00  0.00     0.083 C
HETATM   15  C8  UNL     1      -4.912   1.703  16.709  1.00  0.00     0.025 C
HETATM   16  C9  UNL     1      -5.976   1.131  17.662  1.00  0.00     0.002 C
HETATM   17  C10 UNL     1      -6.641   2.395  18.129  1.00  0.00     0.002 C
HETATM   18  C11 UNL     1      -6.717   3.226  16.865  1.00  0.00     0.025 C
ENDBRANCH  12  14
ENDBRANCH  10  12
ENDBRANCH   8  10
ENDBRANCH   5   6
TORSDOF 4
ENDMDL