MODEL 1
REMARK VINA RESULT: -6.747391679      0.000      0.000
REMARK  3 active torsions:
REMARK  status: ('A' for Active; 'I' for Inactive)
REMARK    1  A    between atoms: O1_1  and  C1_3
REMARK    2  A    between atoms: N1_6  and  C4_7
REMARK    3  A    between atoms: C4_7  and  C5_8
ROOT
HETATM    1  C5  UNL     1      -3.848   2.218  12.995  1.00  0.00     0.053 C
HETATM    2  C6  UNL     1      -3.380   3.605  13.259  1.00  0.00     0.061 C
HETATM    3  N2  UNL     1      -3.501   4.102  14.564  1.00  0.00    -0.401 N
ATOM      4  H2  UNL     1      -3.352   5.091  14.766  1.00  0.00     0.158 HD
HETATM    5  C7  UNL     1      -3.839   3.181  15.601  1.00  0.00     0.128 C
HETATM    6  C8  UNL     1      -4.966   2.258  15.260  1.00  0.00    -0.024 C
HETATM    7  C9  UNL     1      -6.277   2.934  15.607  1.00  0.00     0.011 C
HETATM    8  C10 UNL     1      -6.819   2.241  16.834  1.00  0.00     0.001 C
HETATM    9  C11 UNL     1      -5.542   1.677  17.445  1.00  0.00     0.001 C
HETATM   10  C12 UNL     1      -4.892   1.077  16.212  1.00  0.00     0.011 C
HETATM   11  C13 UNL     1      -4.987   1.760  13.860  1.00  0.00     0.022 C
ENDROOT
BRANCH   1  12
HETATM   12  C4  UNL     1      -4.338   2.127  11.566  1.00  0.00     0.282 C
BRANCH  12  13
HETATM   13  N1  UNL     1      -3.477   1.370  10.709  1.00  0.00     0.089 N
HETATM   14  C3  UNL     1      -2.262   0.961  11.345  1.00  0.00     0.275 C
HETATM   15  C2  UNL     1      -1.981  -0.515  11.189  1.00  0.00     0.062 C
HETATM   16  C1  UNL     1      -3.057  -1.371  11.798  1.00  0.00     0.121 C
HETATM   17  C15 UNL     1      -4.380  -0.817  11.352  1.00  0.00     0.062 C
HETATM   18  C14 UNL     1      -4.252   0.206  10.248  1.00  0.00     0.275 C
BRANCH  16  19
HETATM   19  O1  UNL     1      -2.847  -2.688  11.373  1.00  0.00    -0.395 OA
ATOM     20  H1  UNL     1      -3.314  -2.806  10.554  1.00  0.00     0.210 HD
ENDBRANCH  16  19
ENDBRANCH  12  13
ENDBRANCH   1  12
TORSDOF 3
ENDMDL