MODEL 2
REMARK VINA RESULT: -7.075362007      2.086      4.091
REMARK  1 active torsions:
REMARK  status: ('A' for Active; 'I' for Inactive)
REMARK    1  A    between atoms: C4_5  and  C5_6
ROOT
HETATM    1  C1  UNL     1      -6.210   4.133  14.773  1.00  0.00     0.148 C
HETATM    2  N1  UNL     1      -4.922   3.945  14.184  1.00  0.00    -0.395 N
HETATM    3  C2  UNL     1      -3.973   4.596  14.980  1.00  0.00     0.148 C
HETATM    4  C3  UNL     1      -4.655   2.947  13.300  1.00  0.00     0.007 C
HETATM    5  C4  UNL     1      -4.594   1.505  13.631  1.00  0.00     0.138 C
HETATM    6  C6  UNL     1      -3.459   0.937  12.756  1.00  0.00     0.015 C
HETATM    7  C7  UNL     1      -3.788  -0.425  12.243  1.00  0.00     0.007 C
HETATM    8  C8  UNL     1      -4.774  -0.177  11.125  1.00  0.00     0.001 C
HETATM    9  C9  UNL     1      -4.750   1.303  10.818  1.00  0.00     0.011 C
HETATM   10  C10 UNL     1      -3.566   1.810  11.558  1.00  0.00    -0.027 C
HETATM   11  C11 UNL     1      -2.303   1.689  10.730  1.00  0.00     0.016 C
HETATM   12  C12 UNL     1      -3.718   3.194  12.149  1.00  0.00    -0.001 C
HETATM   13  C13 UNL     1      -4.334   4.050  11.045  1.00  0.00     0.022 C
HETATM   14  C14 UNL     1      -2.382   3.724  12.424  1.00  0.00     0.022 C
ENDROOT
BRANCH   5  15
HETATM   15  C5  UNL     1      -4.431   1.045  15.023  1.00  0.00     0.183 C
HETATM   16  O1  UNL     1      -5.058  -0.132  15.378  1.00  0.00    -0.647 OA
HETATM   17  O2  UNL     1      -3.219   1.301  15.564  1.00  0.00    -0.647 OA
ENDBRANCH   5  15
TORSDOF 1
ENDMDL