MODEL 5
REMARK VINA RESULT: -6.668462738      0.911      1.176
REMARK  3 active torsions:
REMARK  status: ('A' for Active; 'I' for Inactive)
REMARK       I    between atoms: C1_2  and  N1_3
REMARK    1  A    between atoms: C1_2  and  C10_15
REMARK    2  A    between atoms: C2_5  and  C3_6
REMARK    3  A    between atoms: C9_12  and  O2_13
ROOT
HETATM    1  O1  UNL     1      -6.158   4.844  15.602  1.00  0.00    -0.273 OA
HETATM    2  C1  UNL     1      -5.645   3.856  15.043  1.00  0.00     0.227 C
HETATM    3  N1  UNL     1      -4.761   4.037  13.961  1.00  0.00    -0.340 N
ATOM      4  H1  UNL     1      -4.153   4.855  13.939  1.00  0.00     0.167 HD
HETATM    5  C2  UNL     1      -4.714   3.190  13.007  1.00  0.00     0.071 C
ENDROOT
BRANCH   2   6
HETATM    6  C10 UNL     1      -5.975   2.502  15.525  1.00  0.00     0.104 C
HETATM    7  C11 UNL     1      -7.001   2.512  16.627  1.00  0.00     0.017 C
HETATM    8  C12 UNL     1      -7.220   1.061  17.041  1.00  0.00     0.028 C
HETATM    9  C13 UNL     1      -5.889   0.547  17.573  1.00  0.00     0.232 C
HETATM   10  N2  UNL     1      -4.958   0.518  16.464  1.00  0.00    -0.074 N
HETATM   11  C14 UNL     1      -4.698   1.888  16.062  1.00  0.00     0.246 C
ATOM     12  H22 UNL     1      -4.106  -0.000  16.678  1.00  0.00     0.277 HD
ATOM     13  H21 UNL     1      -5.282  -0.065  15.692  1.00  0.00     0.277 HD
ENDBRANCH   2   6
BRANCH   5  14
HETATM   14  C3  UNL     1      -3.805   3.322  11.839  1.00  0.00     0.053 C
HETATM   15  C4  UNL     1      -2.404   3.480  12.359  1.00  0.00     0.012 C
HETATM   16  C5  UNL     1      -1.475   3.523  11.180  1.00  0.00     0.001 C
HETATM   17  C6  UNL     1      -1.392   4.858  10.534  1.00  0.00     0.000 C
HETATM   18  C7  UNL     1      -2.271   5.905  11.139  1.00  0.00     0.002 C
HETATM   19  C8  UNL     1      -3.713   5.714  11.028  1.00  0.00     0.032 C
HETATM   20  C9  UNL     1      -4.230   4.329  10.853  1.00  0.00     0.127 C
BRANCH  20  21
HETATM   21  O2  UNL     1      -4.015   3.882   9.538  1.00  0.00    -0.395 OA
ATOM     22  H2  UNL     1      -4.826   3.852   9.045  1.00  0.00     0.210 HD
ENDBRANCH  20  21
ENDBRANCH   5  14
TORSDOF 3
ENDMDL