MODEL 2
REMARK VINA RESULT: -6.885386798      1.545      3.782
REMARK  4 active torsions:
REMARK  status: ('A' for Active; 'I' for Inactive)
REMARK    1  A    between atoms: C7_8  and  O2_9
REMARK    2  A    between atoms: C8_11  and  O3_12
REMARK    3  A    between atoms: C10_15  and  C11_16
REMARK    4  A    between atoms: C11_16  and  C12_17
ROOT
HETATM    1  C1  UNL     1      -4.049   6.281  15.258  1.00  0.00     0.012 C
HETATM    2  C2  UNL     1      -5.118   5.319  14.750  1.00  0.00     0.009 C
HETATM    3  C3  UNL     1      -5.036   5.294  13.257  1.00  0.00     0.173 C
HETATM    4  O1  UNL     1      -5.234   4.038  12.730  1.00  0.00    -0.377 OA
HETATM    5  C4  UNL     1      -4.231   3.161  13.108  1.00  0.00     0.089 C
HETATM    6  C5  UNL     1      -4.595   1.749  12.679  1.00  0.00     0.043 C
HETATM    7  C6  UNL     1      -4.288   1.701  11.187  1.00  0.00     0.037 C
HETATM    8  C7  UNL     1      -3.633   3.025  10.856  1.00  0.00     0.150 C
HETATM    9  C8  UNL     1      -3.039   3.423  12.178  1.00  0.00     0.181 C
HETATM   10  C9  UNL     1      -3.841   3.254  14.544  1.00  0.00     0.045 C
HETATM   11  C10 UNL     1      -4.897   3.955  15.355  1.00  0.00    -0.006 C
ENDROOT
BRANCH   9  12
HETATM   12  O3  UNL     1      -2.063   2.474  12.524  1.00  0.00    -0.390 OA
ATOM     13  H3  UNL     1      -2.074   2.419  13.472  1.00  0.00     0.210 HD
ENDBRANCH   9  12
BRANCH   8  14
HETATM   14  O2  UNL     1      -2.686   2.900   9.848  1.00  0.00    -0.393 OA
ATOM     15  H2  UNL     1      -3.072   2.613   9.029  1.00  0.00     0.210 HD
ENDBRANCH   8  14
BRANCH  11  16
HETATM   16  C11 UNL     1      -6.170   3.146  15.448  1.00  0.00     0.010 C
BRANCH  16  17
HETATM   17  C12 UNL     1      -5.974   1.888  16.263  1.00  0.00    -0.014 A
HETATM   18  C13 UNL     1      -7.253   1.331  16.848  1.00  0.00     0.005 A
HETATM   19  C14 UNL     1      -6.213   1.905  17.734  1.00  0.00     0.005 A
ENDBRANCH  16  17
ENDBRANCH  11  16
TORSDOF 4
ENDMDL