MODEL 2
REMARK VINA RESULT: -6.595533528      3.121      3.452
REMARK  2 active torsions:
REMARK  status: ('A' for Active; 'I' for Inactive)
REMARK    1  A    between atoms: C2_2  and  C3_3
REMARK       I    between atoms: C3_3  and  N1_5
REMARK    2  A    between atoms: N1_5  and  C4_7
ROOT
HETATM    1  C1  UNL     1      -3.623   5.967  14.519  1.00  0.00     0.027 C
HETATM    2  C2  UNL     1      -4.190   4.681  13.894  1.00  0.00     0.053 C
HETATM    3  C8  UNL     1      -5.360   4.282  14.708  1.00  0.00     0.023 C
HETATM    4  C9  UNL     1      -5.021   3.011  15.469  1.00  0.00     0.041 C
HETATM    5  C10 UNL     1      -4.712   1.995  14.366  1.00  0.00     0.185 C
HETATM    6  C11 UNL     1      -4.687   0.666  14.979  1.00  0.00     0.084 C
HETATM    7  N2  UNL     1      -4.670  -0.405  15.462  1.00  0.00    -0.195 NA
HETATM    8  N3  UNL     1      -3.437   2.321  13.827  1.00  0.00    -0.405 N
ATOM      9  H3  UNL     1      -2.806   1.601  13.477  1.00  0.00     0.154 HD
HETATM   10  C12 UNL     1      -3.083   3.694  13.800  1.00  0.00     0.134 C
ENDROOT
BRANCH   2  11
HETATM   11  C3  UNL     1      -4.669   5.073  12.545  1.00  0.00     0.228 C
HETATM   12  O1  UNL     1      -4.750   4.223  11.625  1.00  0.00    -0.273 OA
HETATM   13  N1  UNL     1      -5.050   6.415  12.248  1.00  0.00    -0.355 N
ATOM     14  H1  UNL     1      -4.990   7.120  12.983  1.00  0.00     0.162 HD
BRANCH  13  15
HETATM   15  C4  UNL     1      -5.519   6.810  10.938  1.00  0.00     0.094 C
HETATM   16  C5  UNL     1      -6.869   7.454  11.124  1.00  0.00     0.036 C
HETATM   17  C6  UNL     1      -7.297   7.914   9.729  1.00  0.00     0.076 C
HETATM   18  S1  UNL     1      -5.750   8.777   9.237  1.00  0.00    -0.167 SA
HETATM   19  C7  UNL     1      -4.609   7.824  10.317  1.00  0.00     0.099 C
ENDBRANCH  13  15
ENDBRANCH   2  11
TORSDOF 2
ENDMDL