MODEL 5
REMARK VINA RESULT: -5.740270398      2.394      5.231
REMARK  3 active torsions:
REMARK  status: ('A' for Active; 'I' for Inactive)
REMARK       I    between atoms: N1_2  and  C2_4
REMARK       I    between atoms: C2_4  and  N2_6
REMARK    1  A    between atoms: N2_6  and  C3_8
REMARK    2  A    between atoms: C7_13  and  S1_14
REMARK    3  A    between atoms: S1_14  and  C8_15
ROOT
HETATM    1  C3  UNL     1      -3.783   2.115  15.509  1.00  0.00     0.131 C
HETATM    2  C4  UNL     1      -4.628   1.646  16.701  1.00  0.00     0.032 C
HETATM    3  C5  UNL     1      -5.811   2.578  16.910  1.00  0.00     0.014 C
HETATM    4  C6  UNL     1      -5.233   0.355  16.161  1.00  0.00     0.175 C
HETATM    5  O2  UNL     1      -5.464   0.752  14.853  1.00  0.00    -0.373 OA
HETATM    6  C7  UNL     1      -4.128   1.100  14.470  1.00  0.00     0.206 C
ENDROOT
BRANCH   1   7
HETATM    7  N2  UNL     1      -4.095   3.474  15.182  1.00  0.00    -0.335 N
HETATM    8  C2  UNL     1      -3.064   4.383  14.849  1.00  0.00     0.316 C
HETATM    9  N1  UNL     1      -3.334   5.739  14.539  1.00  0.00    -0.347 N
HETATM   10  O1  UNL     1      -1.844   4.008  14.817  1.00  0.00    -0.247 OA
HETATM   11  C1  UNL     1      -2.249   6.613  14.167  1.00  0.00     0.151 C
ATOM     12  H1  UNL     1      -4.289   6.094  14.577  1.00  0.00     0.163 HD
ATOM     13  H2  UNL     1      -5.065   3.788  15.189  1.00  0.00     0.164 HD
ENDBRANCH   1   7
BRANCH   6  14
HETATM   14  S1  UNL     1      -4.172   1.732  12.784  1.00  0.00    -0.126 SA
BRANCH  14  15
HETATM   15  C8  UNL     1      -3.920   0.372  11.635  1.00  0.00    -0.000 C
HETATM   16  C9  UNL     1      -2.511   0.419  11.096  1.00  0.00     0.026 C
HETATM   17  C10 UNL     1      -4.949   0.389  10.546  1.00  0.00     0.026 C
HETATM   18  C11 UNL     1      -4.012  -0.987  12.345  1.00  0.00     0.026 C
ENDBRANCH  14  15
ENDBRANCH   6  14
TORSDOF 3
ENDMDL