MODEL 3
REMARK VINA RESULT: -7.053875105      1.367      1.769
REMARK  6 active torsions:
REMARK  status: ('A' for Active; 'I' for Inactive)
REMARK    1  A    between atoms: C2_2  and  N1_3
REMARK    2  A    between atoms: N1_3  and  C3_5
REMARK    3  A    between atoms: C3_5  and  N2_7
REMARK    4  A    between atoms: N2_7  and  O1_9
REMARK    5  A    between atoms: O1_9  and  C4_10
REMARK    6  A    between atoms: C4_10  and  C5_12
ROOT
HETATM    1  O1  UNL     1      -4.814   0.297  14.748  1.00  0.00    -0.197 OA
ENDROOT
BRANCH   1   2
HETATM    2  N2  UNL     1      -4.251   0.109  13.526  1.00  0.00    -0.232 N
ATOM      3  H2  UNL     1      -3.981  -0.832  13.242  1.00  0.00     0.197 HD
BRANCH   2   4
HETATM    4  C3  UNL     1      -4.032   1.184  12.645  1.00  0.00     0.192 C
HETATM    5  S1  UNL     1      -5.133   1.487  11.480  1.00  0.00    -0.039 SA
BRANCH   4   6
HETATM    6  N1  UNL     1      -2.868   1.982  12.777  1.00  0.00    -0.366 N
ATOM      7  H1  UNL     1      -2.529   2.245  13.703  1.00  0.00     0.161 HD
BRANCH   6   8
HETATM    8  C2  UNL     1      -2.157   2.427  11.582  1.00  0.00     0.117 C
HETATM    9  C1  UNL     1      -1.389   1.283  10.981  1.00  0.00     0.026 C
ENDBRANCH   6   8
ENDBRANCH   4   6
ENDBRANCH   2   4
ENDBRANCH   1   2
BRANCH   1  10
HETATM   10  C4  UNL     1      -4.254   1.074  15.745  1.00  0.00     0.285 C
HETATM   11  O2  UNL     1      -3.020   1.060  15.945  1.00  0.00    -0.263 OA
BRANCH  10  12
HETATM   12  C5  UNL     1      -5.109   1.915  16.567  1.00  0.00     0.092 C
HETATM   13  C6  UNL     1      -6.110   2.721  15.728  1.00  0.00     0.020 C
HETATM   14  C7  UNL     1      -7.316   2.691  16.631  1.00  0.00    -0.013 C
HETATM   15  C8  UNL     1      -6.954   3.225  17.998  1.00  0.00     0.005 C
HETATM   16  C11 UNL     1      -7.349   1.180  16.933  1.00  0.00     0.010 C
HETATM   17  C9  UNL     1      -6.214   2.101  18.717  1.00  0.00     0.006 C
HETATM   18  C10 UNL     1      -5.945   1.157  17.561  1.00  0.00    -0.001 C
ENDBRANCH  10  12
ENDBRANCH   1  10
TORSDOF 6
ENDMDL