MODEL 4
REMARK VINA RESULT: -6.523776096      2.585      4.701
REMARK  4 active torsions:
REMARK  status: ('A' for Active; 'I' for Inactive)
REMARK    1  A    between atoms: C2_2  and  C3_3
REMARK    2  A    between atoms: C7_7  and  C8_8
REMARK    3  A    between atoms: C8_8  and  O1_9
REMARK    4  A    between atoms: C12_15  and  C13_16
ROOT
HETATM    1  C3  UNL     1      -4.860   3.241  14.713  1.00  0.00    -0.001 C
HETATM    2  C4  UNL     1      -4.842   2.436  16.004  1.00  0.00     0.012 C
HETATM    3  C5  UNL     1      -3.804   1.367  15.741  1.00  0.00     0.003 C
HETATM    4  C6  UNL     1      -4.134   1.057  14.290  1.00  0.00     0.045 C
HETATM    5  C7  UNL     1      -4.308   2.405  13.615  1.00  0.00     0.189 C
HETATM    6  N1  UNL     1      -3.080   2.934  13.319  1.00  0.00     0.120 N
HETATM    7  C9  UNL     1      -2.982   4.311  13.825  1.00  0.00     0.226 C
HETATM    8  C10 UNL     1      -3.396   5.158  12.634  1.00  0.00     0.038 C
HETATM    9  C11 UNL     1      -2.990   4.322  11.443  1.00  0.00     0.049 C
HETATM   10  C12 UNL     1      -2.415   3.056  12.127  1.00  0.00     0.324 C
HETATM   11  C14 UNL     1      -3.910   4.406  14.967  1.00  0.00     0.048 C
ENDROOT
BRANCH   5  12
HETATM   12  C8  UNL     1      -5.258   2.163  12.476  1.00  0.00     0.206 C
BRANCH  12  13
HETATM   13  O1  UNL     1      -5.213   0.866  11.971  1.00  0.00    -0.398 OA
ATOM     14  H1  UNL     1      -5.079   0.199  12.634  1.00  0.00     0.209 HD
ENDBRANCH  12  13
ENDBRANCH   5  12
BRANCH   1  15
HETATM   15  C2  UNL     1      -6.211   3.831  14.579  1.00  0.00     0.008 C
HETATM   16  C1  UNL     1      -6.199   5.173  15.317  1.00  0.00     0.006 C
ENDBRANCH   1  15
BRANCH  10  17
HETATM   17  C13 UNL     1      -2.050   2.023  11.216  1.00  0.00     0.207 C
HETATM   18  O2  UNL     1      -0.857   1.547  11.332  1.00  0.00    -0.646 OA
HETATM   19  O3  UNL     1      -2.771   1.431  10.211  1.00  0.00    -0.646 OA
ENDBRANCH  10  17
TORSDOF 4
ENDMDL