MODEL 5
REMARK VINA RESULT: -6.165197357      1.683      2.783
REMARK  4 active torsions:
REMARK  status: ('A' for Active; 'I' for Inactive)
REMARK    1  A    between atoms: C6_6  and  O1_7
REMARK    2  A    between atoms: C12_14  and  O2_15
REMARK    3  A    between atoms: C13_17  and  C14_18
REMARK    4  A    between atoms: C14_18  and  O3_19
ROOT
HETATM    1  C1  UNL     1      -3.954   6.536  15.132  1.00  0.00     0.015 C
HETATM    2  C2  UNL     1      -4.379   5.610  14.291  1.00  0.00    -0.084 C
HETATM    3  C3  UNL     1      -4.675   6.149  12.937  1.00  0.00     0.034 C
HETATM    4  C4  UNL     1      -4.422   5.144  11.832  1.00  0.00     0.007 C
HETATM    5  C5  UNL     1      -3.311   4.249  12.198  1.00  0.00     0.039 C
HETATM    6  C6  UNL     1      -3.517   3.117  13.069  1.00  0.00     0.072 C
HETATM    7  C7  UNL     1      -4.882   2.512  13.215  1.00  0.00     0.030 C
HETATM    8  C8  UNL     1      -5.590   3.551  14.096  1.00  0.00     0.018 C
HETATM    9  C9  UNL     1      -4.472   4.261  14.855  1.00  0.00     0.028 C
HETATM   10  C10 UNL     1      -3.307   3.392  14.565  1.00  0.00     0.021 C
HETATM   11  C11 UNL     1      -1.980   3.859  14.921  1.00  0.00     0.022 C
HETATM   12  C12 UNL     1      -3.588   1.975  15.088  1.00  0.00     0.136 C
HETATM   13  C13 UNL     1      -4.621   1.383  14.185  1.00  0.00     0.046 C
ENDROOT
BRANCH  13  14
HETATM   14  C14 UNL     1      -4.342   0.075  13.603  1.00  0.00     0.174 C
BRANCH  14  15
HETATM   15  O3  UNL     1      -4.737   0.075  12.263  1.00  0.00    -0.395 OA
HETATM   16  C15 UNL     1      -3.964  -0.931  11.649  1.00  0.00     0.201 C
ENDBRANCH  14  15
ENDBRANCH  13  14
BRANCH  12  17
HETATM   17  O2  UNL     1      -4.030   2.144  16.400  1.00  0.00    -0.394 OA
ATOM     18  H2  UNL     1      -4.039   3.083  16.545  1.00  0.00     0.210 HD
ENDBRANCH  12  17
BRANCH   6  19
HETATM   19  O1  UNL     1      -2.523   2.148  12.784  1.00  0.00    -0.389 OA
ATOM     20  H1  UNL     1      -2.137   1.865  13.605  1.00  0.00     0.210 HD
ENDBRANCH   6  19
TORSDOF 4
ENDMDL