MODEL 4
REMARK VINA RESULT: -6.973750405      1.267      1.516
REMARK  2 active torsions:
REMARK  status: ('A' for Active; 'I' for Inactive)
REMARK    1  A    between atoms: N1_1  and  C1_5
REMARK    2  A    between atoms: C1_5  and  C2_6
ROOT
HETATM    1  C2  UNL     1      -3.903   2.543  12.592  1.00  0.00     0.016 C
HETATM    2  C3  UNL     1      -3.657   3.573  11.521  1.00  0.00     0.008 C
HETATM    3  C4  UNL     1      -4.056   4.965  11.958  1.00  0.00     0.033 C
HETATM    4  C5  UNL     1      -3.527   5.302  13.321  1.00  0.00     0.186 C
HETATM    5  C6  UNL     1      -2.560   4.223  13.727  1.00  0.00     0.038 C
HETATM    6  C7  UNL     1      -3.358   2.924  13.930  1.00  0.00    -0.000 C
HETATM    7  C8  UNL     1      -4.350   3.252  14.955  1.00  0.00     0.027 C
HETATM    8  C9  UNL     1      -5.327   4.307  14.410  1.00  0.00     0.193 C
HETATM    9  C10 UNL     1      -6.384   4.297  15.464  1.00  0.00     0.065 C
HETATM   10  C11 UNL     1      -6.174   3.103  16.320  1.00  0.00     0.128 C
HETATM   11  O1  UNL     1      -7.284   2.411  16.691  1.00  0.00    -0.385 OA
HETATM   12  C12 UNL     1      -6.874   1.422  17.597  1.00  0.00     0.168 C
HETATM   13  C13 UNL     1      -5.871   0.479  17.026  1.00  0.00     0.027 C
HETATM   14  C14 UNL     1      -4.702   1.187  16.354  1.00  0.00     0.010 C
HETATM   15  C15 UNL     1      -5.266   2.220  15.444  1.00  0.00     0.021 C
HETATM   16  N2  UNL     1      -4.577   5.512  14.301  1.00  0.00    -0.066 N
ATOM     17  H21 UNL     1      -5.160   6.321  14.085  1.00  0.00     0.278 HD
ATOM     18  H22 UNL     1      -4.220   5.837  15.199  1.00  0.00     0.278 HD
ENDROOT
BRANCH   1  19
HETATM   19  C1  UNL     1      -3.187   1.267  12.141  1.00  0.00     0.234 C
BRANCH  19  20
HETATM   20  N1  UNL     1      -1.874   1.561  11.606  1.00  0.00    -0.079 N
ATOM     21  H13 UNL     1      -1.934   2.005  10.690  1.00  0.00     0.274 HD
ATOM     22  H12 UNL     1      -1.422   2.319  12.118  1.00  0.00     0.274 HD
ATOM     23  H11 UNL     1      -1.289   0.726  11.579  1.00  0.00     0.274 HD
ENDBRANCH  19  20
ENDBRANCH   1  19
TORSDOF 2
ENDMDL