MODEL 2
REMARK VINA RESULT: -7.005710606      1.202      1.918
REMARK  5 active torsions:
REMARK  status: ('A' for Active; 'I' for Inactive)
REMARK    1  A    between atoms: C3_3  and  C4_4
REMARK    2  A    between atoms: N1_9  and  O1_10
REMARK    3  A    between atoms: O1_10  and  C9_11
REMARK    4  A    between atoms: C10_12  and  O2_13
REMARK    5  A    between atoms: C14_18  and  O3_19
ROOT
HETATM    1  C9  UNL     1      -3.513   1.423  12.838  1.00  0.00     0.181 C
HETATM    2  C10 UNL     1      -2.717   1.757  11.559  1.00  0.00     0.156 C
HETATM    3  C11 UNL     1      -3.486   0.961  10.570  1.00  0.00     0.047 C
HETATM    4  C12 UNL     1      -3.698  -0.360  11.325  1.00  0.00     0.019 C
HETATM    5  C13 UNL     1      -4.549   0.516  12.232  1.00  0.00     0.049 C
HETATM    6  C14 UNL     1      -4.929   1.255  10.965  1.00  0.00     0.131 C
ENDROOT
BRANCH   1   7
HETATM    7  O1  UNL     1      -4.070   2.515  13.408  1.00  0.00    -0.295 OA
BRANCH   7   8
HETATM    8  N1  UNL     1      -5.123   2.369  14.190  1.00  0.00    -0.192 NA
HETATM    9  C2  UNL     1      -5.200   3.152  15.406  1.00  0.00     0.088 A
HETATM   10  C1  UNL     1      -6.404   4.019  15.482  1.00  0.00     0.029 C
HETATM   11  C3  UNL     1      -5.053   2.002  16.295  1.00  0.00     0.028 A
HETATM   12  C8  UNL     1      -4.917   1.191  15.053  1.00  0.00     0.128 A
BRANCH  11  13
HETATM   13  C4  UNL     1      -6.136   1.531  17.183  1.00  0.00    -0.045 C
HETATM   14  C5  UNL     1      -6.142   2.326  18.499  1.00  0.00     0.015 C
HETATM   15  C6  UNL     1      -5.778   0.093  17.591  1.00  0.00     0.015 C
HETATM   16  C7  UNL     1      -7.518   1.533  16.660  1.00  0.00     0.015 C
ENDBRANCH  11  13
ENDBRANCH   7   8
ENDBRANCH   1   7
BRANCH   2  17
HETATM   17  O2  UNL     1      -1.452   1.195  11.694  1.00  0.00    -0.392 OA
ATOM     18  H2  UNL     1      -0.899   1.835  12.127  1.00  0.00     0.210 HD
ENDBRANCH   2  17
BRANCH   6  19
HETATM   19  O3  UNL     1      -5.173   2.608  11.116  1.00  0.00    -0.395 OA
ATOM     20  H3  UNL     1      -4.945   2.925  11.982  1.00  0.00     0.210 HD
ENDBRANCH   6  19
TORSDOF 5
ENDMDL