MODEL 4
REMARK VINA RESULT: -6.442679467      2.698      5.290
REMARK  4 active torsions:
REMARK  status: ('A' for Active; 'I' for Inactive)
REMARK    1  A    between atoms: C2_2  and  N1_4
REMARK    2  A    between atoms: C10_11  and  O1_12
REMARK    3  A    between atoms: C11_14  and  C12_15
REMARK    4  A    between atoms: C12_15  and  O2_16
ROOT
HETATM    1  N1  UNL     1      -4.361   5.161  14.099  1.00  0.00     0.092 N
HETATM    2  C4  UNL     1      -3.581   4.587  15.166  1.00  0.00     0.273 C
HETATM    3  C5  UNL     1      -3.833   3.105  15.263  1.00  0.00     0.040 C
HETATM    4  C6  UNL     1      -5.314   2.813  15.429  1.00  0.00    -0.029 C
HETATM    5  C7  UNL     1      -5.785   3.490  16.672  1.00  0.00     0.010 C
HETATM    6  C8  UNL     1      -6.930   2.887  17.375  1.00  0.00     0.003 C
HETATM    7  C9  UNL     1      -7.339   1.522  16.948  1.00  0.00     0.032 C
HETATM    8  C10 UNL     1      -6.085   0.740  16.637  1.00  0.00     0.125 C
HETATM    9  C11 UNL     1      -5.497   1.339  15.399  1.00  0.00     0.046 C
HETATM   10  C13 UNL     1      -6.011   3.448  14.241  1.00  0.00     0.040 C
HETATM   11  C14 UNL     1      -5.047   4.147  13.323  1.00  0.00     0.273 C
ENDROOT
BRANCH   9  12
HETATM   12  C12 UNL     1      -4.247   0.564  15.069  1.00  0.00     0.172 C
BRANCH  12  13
HETATM   13  O2  UNL     1      -4.558  -0.811  15.144  1.00  0.00    -0.400 OA
ATOM     14  H2  UNL     1      -4.336  -1.113  16.017  1.00  0.00     0.209 HD
ENDBRANCH  12  13
ENDBRANCH   9  12
BRANCH   8  15
HETATM   15  O1  UNL     1      -5.239   0.613  17.698  1.00  0.00    -0.395 OA
ATOM     16  H1  UNL     1      -5.076   1.429  18.158  1.00  0.00     0.210 HD
ENDBRANCH   8  15
BRANCH   1  17
HETATM   17  C2  UNL     1      -3.580   6.036  13.251  1.00  0.00     0.215 C
HETATM   18  C1  UNL     1      -2.587   5.350  12.376  1.00  0.00     0.042 C
HETATM   19  C3  UNL     1      -2.818   6.962  14.176  1.00  0.00     0.042 C
ENDBRANCH   1  17
TORSDOF 4
ENDMDL