MODEL 3
REMARK VINA RESULT: -5.952612674      0.193      1.053
REMARK  3 active torsions:
REMARK  status: ('A' for Active; 'I' for Inactive)
REMARK    1  A    between atoms: N1_2  and  C3_4
REMARK    2  A    between atoms: C7_8  and  N2_9
REMARK    3  A    between atoms: N2_9  and  N3_11
ROOT
HETATM    1  C3  UNL     1      96.040 -39.961  14.538  1.00  0.00     0.102 C
HETATM    2  C4  UNL     1      96.945 -40.403  15.640  1.00  0.00     0.027 C
HETATM    3  C5  UNL     1      98.054 -39.376  15.526  1.00  0.00     0.004 C
HETATM    4  C6  UNL     1      97.456 -38.170  14.799  1.00  0.00     0.029 C
HETATM    5  C7  UNL     1      95.980 -38.454  14.821  1.00  0.00     0.123 C
ENDROOT
BRANCH   5   6
HETATM    6  N2  UNL     1      95.247 -37.756  13.814  1.00  0.00    -0.316 N
ATOM      7  H2  UNL     1      95.558 -37.769  12.844  1.00  0.00     0.182 HD
BRANCH   6   8
HETATM    8  N3  UNL     1      94.097 -37.057  14.181  1.00  0.00    -0.253 N
HETATM    9  N4  UNL     1      92.960 -37.507  13.963  1.00  0.00    -0.331 N
ATOM     10  H42 UNL     1      92.882 -38.415  13.503  1.00  0.00     0.178 HD
ATOM     11  H41 UNL     1      92.119 -36.996  14.231  1.00  0.00     0.178 HD
ATOM     12  H3  UNL     1      94.192 -36.151  14.640  1.00  0.00     0.207 HD
ENDBRANCH   6   8
ENDBRANCH   5   6
BRANCH   1  13
HETATM   13  N1  UNL     1      94.849 -40.623  14.341  1.00  0.00    -0.415 N
HETATM   14  C1  UNL     1      94.376 -40.800  13.011  1.00  0.00     0.143 C
HETATM   15  C2  UNL     1      93.906 -40.651  15.391  1.00  0.00     0.143 C
ENDBRANCH   1  13
TORSDOF 3
ENDMDL