MODEL 1
REMARK VINA RESULT: -5.289492174      0.000      0.000
REMARK  3 active torsions:
REMARK  status: ('A' for Active; 'I' for Inactive)
REMARK    1  A    between atoms: N1_2  and  C4_5
REMARK    2  A    between atoms: C4_5  and  C5_6
REMARK    3  A    between atoms: C8_10  and  N2_11
ROOT
HETATM    1  C5  UNL     1      94.466 -40.068  14.547  1.00  0.00     0.068 C
HETATM    2  C6  UNL     1      93.748 -40.754  15.655  1.00  0.00     0.176 C
HETATM    3  O1  UNL     1      92.564 -41.291  15.120  1.00  0.00    -0.389 OA
HETATM    4  C7  UNL     1      92.935 -41.644  13.801  1.00  0.00     0.200 C
HETATM    5  C8  UNL     1      93.559 -40.337  13.367  1.00  0.00     0.214 C
ENDROOT
BRANCH   1   6
HETATM    6  C4  UNL     1      95.844 -40.580  14.262  1.00  0.00     0.245 C
BRANCH   6   7
HETATM    7  N1  UNL     1      96.917 -39.728  14.658  1.00  0.00    -0.078 N
HETATM    8  C1  UNL     1      98.100 -39.843  13.866  1.00  0.00     0.271 C
HETATM    9  C2  UNL     1      96.447 -38.334  14.578  1.00  0.00     0.271 C
HETATM   10  C3  UNL     1      97.317 -39.905  16.049  1.00  0.00     0.271 C
ENDBRANCH   6   7
ENDBRANCH   1   6
BRANCH   5  11
HETATM   11  N2  UNL     1      94.263 -40.427  12.123  1.00  0.00    -0.072 N
ATOM     12  H23 UNL     1      93.851 -39.805  11.427  1.00  0.00     0.274 HD
ATOM     13  H22 UNL     1      95.188 -40.005  12.198  1.00  0.00     0.274 HD
ATOM     14  H21 UNL     1      94.327 -41.380  11.765  1.00  0.00     0.274 HD
ENDBRANCH   5  11
TORSDOF 3
ENDMDL