MODEL 2
REMARK VINA RESULT: -5.408836611      1.285      1.959
REMARK  5 active torsions:
REMARK  status: ('A' for Active; 'I' for Inactive)
REMARK    1  A    between atoms: N1_2  and  C3_4
REMARK    2  A    between atoms: C5_6  and  C6_7
REMARK    3  A    between atoms: C6_7  and  S1_8
REMARK    4  A    between atoms: S1_8  and  N2_9
REMARK    5  A    between atoms: S1_8  and  N3_12
ROOT
HETATM    1  C6  UNL     1      94.402 -40.848  13.151  1.00  0.00     0.111 C
ENDROOT
BRANCH   1   2
HETATM    2  C5  UNL     1      95.648 -40.086  13.513  1.00  0.00     0.001 C
HETATM    3  C4  UNL     1      96.596 -40.891  14.384  1.00  0.00     0.041 C
HETATM    4  C3  UNL     1      96.724 -39.666  15.264  1.00  0.00     0.223 C
HETATM    5  C7  UNL     1      95.410 -39.187  14.684  1.00  0.00     0.041 C
BRANCH   4   6
HETATM    6  N1  UNL     1      97.777 -38.758  14.906  1.00  0.00     0.084 N
HETATM    7  C1  UNL     1      97.650 -37.593  15.785  1.00  0.00     0.309 C
HETATM    8  C2  UNL     1      99.102 -39.281  15.123  1.00  0.00     0.309 C
ENDBRANCH   4   6
ENDBRANCH   1   2
BRANCH   1   9
HETATM    9  S1  UNL     1      93.176 -39.802  12.994  1.00  0.00    -0.043 SA
BRANCH   9  10
HETATM   10  N2  UNL     1      91.892 -40.323  13.295  1.00  0.00    -0.367 N
ATOM     11  H22 UNL     1      91.882 -41.116  13.935  1.00  0.00     0.165 HD
ATOM     12  H21 UNL     1      91.136 -39.639  13.302  1.00  0.00     0.165 HD
ENDBRANCH   9  10
BRANCH   9  13
HETATM   13  N3  UNL     1      93.209 -38.705  11.892  1.00  0.00    -0.367 N
ATOM     14  H32 UNL     1      93.862 -38.873  11.126  1.00  0.00     0.165 HD
ATOM     15  H31 UNL     1      93.063 -37.725  12.132  1.00  0.00     0.165 HD
ENDBRANCH   9  13
ENDBRANCH   1   9
TORSDOF 5
ENDMDL