MODEL 5
REMARK VINA RESULT: -5.535356176      1.242      2.926
REMARK  2 active torsions:
REMARK  status: ('A' for Active; 'I' for Inactive)
REMARK    1  A    between atoms: N2_4  and  N3_5
REMARK    2  A    between atoms: N3_5  and  N4_7
ROOT
HETATM    1  C1  UNL     1      93.441 -41.573  14.480  1.00  0.00     0.311 C
HETATM    2  N1  UNL     1      94.732 -41.004  14.245  1.00  0.00     0.100 N
HETATM    3  C2  UNL     1      94.577 -39.703  13.623  1.00  0.00     0.387 C
HETATM    4  N2  UNL     1      95.730 -38.916  14.006  1.00  0.00    -0.177 NA
HETATM    5  C3  UNL     1      96.497 -39.732  14.889  1.00  0.00     0.055 C
HETATM    6  C4  UNL     1      97.366 -40.679  14.056  1.00  0.00     0.035 C
HETATM    7  C5  UNL     1      97.285 -39.014  15.912  1.00  0.00     0.035 C
HETATM    8  C6  UNL     1      95.409 -40.633  15.496  1.00  0.00     0.299 C
ENDROOT
BRANCH   4   9
HETATM    9  N3  UNL     1      95.420 -37.664  14.483  1.00  0.00    -0.246 N
ATOM     10  H3  UNL     1      96.018 -37.277  15.213  1.00  0.00     0.203 HD
BRANCH   9  11
HETATM   11  N4  UNL     1      94.346 -36.881  14.044  1.00  0.00    -0.239 N
HETATM   12  N5  UNL     1      93.133 -37.227  14.193  1.00  0.00    -0.330 N
ATOM     13  H52 UNL     1      92.951 -38.118  14.654  1.00  0.00     0.178 HD
ATOM     14  H51 UNL     1      92.350 -36.657  13.872  1.00  0.00     0.178 HD
ATOM     15  H4  UNL     1      94.546 -35.993  13.585  1.00  0.00     0.209 HD
ENDBRANCH   9  11
ENDBRANCH   4   9
TORSDOF 2
ENDMDL