MODEL 2
REMARK VINA RESULT: -6.417282834      1.097      1.863
REMARK  3 active torsions:
REMARK  status: ('A' for Active; 'I' for Inactive)
REMARK    1  A    between atoms: N2_4  and  C1_6
REMARK    2  A    between atoms: C1_6  and  N3_7
REMARK    3  A    between atoms: N3_7  and  C2_9
ROOT
HETATM    1  C2  UNL     1      95.855 -39.795  14.230  1.00  0.00     0.221 C
HETATM    2  O1  UNL     1      96.292 -40.795  15.056  1.00  0.00    -0.366 OA
HETATM    3  C3  UNL     1      96.809 -40.441  16.263  1.00  0.00     0.175 C
HETATM    4  C4  UNL     1      97.750 -39.264  16.206  1.00  0.00     0.010 C
HETATM    5  C5  UNL     1      98.937 -39.582  15.327  1.00  0.00     0.007 C
HETATM    6  C6  UNL     1      98.283 -39.638  13.956  1.00  0.00     0.009 C
HETATM    7  C7  UNL     1      97.020 -38.808  14.055  1.00  0.00     0.034 C
HETATM    8  C8  UNL     1      97.131 -38.122  15.418  1.00  0.00     0.015 C
ENDROOT
BRANCH   1   9
HETATM    9  N3  UNL     1      94.685 -39.173  14.690  1.00  0.00    -0.380 N
ATOM     10  H3  UNL     1      94.631 -38.825  15.647  1.00  0.00     0.157 HD
BRANCH   9  11
HETATM   11  C1  UNL     1      93.585 -39.034  13.819  1.00  0.00     0.257 C
BRANCH  11  12
HETATM   12  N2  UNL     1      93.071 -37.700  13.962  1.00  0.00    -0.325 N
HETATM   13  N1  UNL     1      93.882 -36.782  14.169  1.00  0.00    -0.348 N
ATOM     14  H12 UNL     1      94.880 -36.987  14.232  1.00  0.00     0.176 HD
ATOM     15  H11 UNL     1      93.517 -35.835  14.271  1.00  0.00     0.176 HD
ATOM     16  H2  UNL     1      92.071 -37.513  13.896  1.00  0.00     0.181 HD
ENDBRANCH  11  12
ENDBRANCH   9  11
ENDBRANCH   1   9
TORSDOF 3
ENDMDL