MODEL 1
REMARK VINA RESULT: -5.323438796      0.000      0.000
REMARK  4 active torsions:
REMARK  status: ('A' for Active; 'I' for Inactive)
REMARK    1  A    between atoms: N1_2  and  C2_3
REMARK    2  A    between atoms: C2_3  and  C3_4
REMARK    3  A    between atoms: C3_4  and  C4_5
REMARK    4  A    between atoms: C4_5  and  N2_6
ROOT
HETATM    1  C1  UNL     1      96.596 -40.633  13.819  1.00  0.00     0.273 C
HETATM    2  N1  UNL     1      96.252 -39.903  15.050  1.00  0.00    -0.065 N
HETATM    3  C5  UNL     1      95.701 -38.612  14.686  1.00  0.00     0.257 C
HETATM    4  C6  UNL     1      94.398 -38.769  13.981  1.00  0.00     0.146 C
HETATM    5  N3  UNL     1      93.468 -39.519  14.734  1.00  0.00    -0.399 N
ATOM      6  H3  UNL     1      92.487 -39.243  14.777  1.00  0.00     0.158 HD
HETATM    7  C7  UNL     1      93.929 -40.653  15.421  1.00  0.00     0.083 C
HETATM    8  C8  UNL     1      95.355 -40.722  15.792  1.00  0.00     0.281 C
ENDROOT
BRANCH   2   9
HETATM    9  C2  UNL     1      97.439 -39.624  15.840  1.00  0.00     0.239 C
BRANCH   9  10
HETATM   10  C3  UNL     1      97.755 -38.163  15.912  1.00  0.00     0.055 C
BRANCH  10  11
HETATM   11  C4  UNL     1      99.247 -38.004  15.713  1.00  0.00     0.231 C
BRANCH  11  12
HETATM   12  N2  UNL     1      99.650 -36.619  15.800  1.00  0.00    -0.079 N
ATOM     13  H23 UNL     1     100.271 -36.362  15.033  1.00  0.00     0.274 HD
ATOM     14  H22 UNL     1      98.874 -35.990  15.592  1.00  0.00     0.274 HD
ATOM     15  H21 UNL     1     100.069 -36.407  16.705  1.00  0.00     0.274 HD
ENDBRANCH  11  12
ENDBRANCH  10  11
ENDBRANCH   9  10
ENDBRANCH   2   9
TORSDOF 4
ENDMDL