MODEL 4
REMARK VINA RESULT: -6.560919821      1.086      1.105
REMARK  3 active torsions:
REMARK  status: ('A' for Active; 'I' for Inactive)
REMARK    1  A    between atoms: C2_2  and  C3_3
REMARK    2  A    between atoms: C8_9  and  N2_10
REMARK    3  A    between atoms: N2_10  and  N3_12
ROOT
HETATM    1  C3  UNL     1      94.936 -39.243  14.074  1.00  0.00     0.049 C
HETATM    2  C4  UNL     1      96.077 -38.813  15.009  1.00  0.00     0.102 C
HETATM    3  C5  UNL     1      97.076 -39.856  15.100  1.00  0.00     0.064 C
HETATM    4  N1  UNL     1      97.863 -40.698  15.174  1.00  0.00    -0.197 NA
HETATM    5  C6  UNL     1      96.550 -37.582  14.297  1.00  0.00     0.022 C
HETATM    6  C7  UNL     1      95.217 -36.834  14.145  1.00  0.00     0.029 C
HETATM    7  C8  UNL     1      94.364 -37.944  13.552  1.00  0.00     0.109 C
ENDROOT
BRANCH   1   8
HETATM    8  C2  UNL     1      93.956 -40.080  14.776  1.00  0.00    -0.029 C
HETATM    9  C1  UNL     1      93.607 -41.268  14.298  1.00  0.00     0.007 C
ENDBRANCH   1   8
BRANCH   7  10
HETATM   10  N2  UNL     1      92.967 -37.787  13.835  1.00  0.00    -0.317 N
ATOM     11  H2  UNL     1      92.643 -37.668  14.795  1.00  0.00     0.182 HD
BRANCH  10  12
HETATM   12  N3  UNL     1      92.065 -37.800  12.784  1.00  0.00    -0.253 N
HETATM   13  N4  UNL     1      91.357 -38.816  12.507  1.00  0.00    -0.331 N
ATOM     14  H42 UNL     1      91.468 -39.645  13.090  1.00  0.00     0.178 HD
ATOM     15  H41 UNL     1      90.692 -38.825  11.733  1.00  0.00     0.178 HD
ATOM     16  H3  UNL     1      91.967 -36.963  12.211  1.00  0.00     0.207 HD
ENDBRANCH  10  12
ENDBRANCH   7  10
TORSDOF 3
ENDMDL