MODEL 3
REMARK VINA RESULT: -7.491930173      1.980      2.509
REMARK  12 active torsions:
REMARK  status: ('A' for Active; 'I' for Inactive)
REMARK    1  A    between atoms: C7_7  and  O1_9
REMARK    2  A    between atoms: O1_9  and  C9_10
REMARK    3  A    between atoms: C9_10  and  C10_12
REMARK    4  A    between atoms: C15_19  and  N1_20
REMARK    5  A    between atoms: N1_20  and  C16_22
REMARK    6  A    between atoms: C16_22  and  C17_23
REMARK    7  A    between atoms: C16_22  and  C21_27
REMARK    8  A    between atoms: C17_23  and  C18_24
REMARK       I    between atoms: C21_27  and  N2_29
REMARK    9  A    between atoms: N2_29  and  C22_31
REMARK   10  A    between atoms: C22_31  and  C23_32
REMARK   11  A    between atoms: C23_32  and  C24_33
REMARK   12  A    between atoms: C24_33  and  O5_34
ROOT
HETATM    1  C1  UNL     1      36.277 -19.190  18.418  1.00  0.00     0.043 C
HETATM    2  C2  UNL     1      36.276 -19.661  19.799  1.00  0.00    -0.085 C
HETATM    3  C3  UNL     1      36.890 -20.770  20.147  1.00  0.00    -0.019 C
HETATM    4  C4  UNL     1      36.850 -21.198  21.567  1.00  0.00     0.021 C
HETATM    5  C5  UNL     1      37.713 -22.409  21.790  1.00  0.00     0.012 C
HETATM    6  C6  UNL     1      37.524 -23.061  23.091  1.00  0.00     0.039 C
HETATM    7  C7  UNL     1      36.166 -23.041  23.712  1.00  0.00     0.067 C
HETATM    8  C8  UNL     1      36.383 -23.695  25.090  1.00  0.00     0.047 C
HETATM    9  C11 UNL     1      35.440 -21.792  23.825  1.00  0.00     0.039 C
HETATM   10  C12 UNL     1      36.121 -20.486  23.777  1.00  0.00     0.017 C
HETATM   11  C13 UNL     1      36.969 -20.161  22.593  1.00  0.00     0.009 C
HETATM   12  C14 UNL     1      38.384 -19.930  23.151  1.00  0.00     0.191 C
HETATM   13  O3  UNL     1      38.569 -18.557  23.468  1.00  0.00    -0.322 OA
HETATM   14  C15 UNL     1      37.489 -17.749  23.787  1.00  0.00     0.216 C
HETATM   15  N3  UNL     1      36.444 -17.879  22.996  1.00  0.00    -0.351 N
ATOM     16  H3  UNL     1      35.582 -17.346  23.116  1.00  0.00     0.163 HD
HETATM   17  C25 UNL     1      36.634 -18.831  21.961  1.00  0.00     0.100 C
HETATM   18  C26 UNL     1      35.600 -18.895  20.881  1.00  0.00     0.059 C
ENDROOT
BRANCH  14  19
HETATM   19  N1  UNL     1      37.465 -16.836  24.874  1.00  0.00    -0.343 N
ATOM     20  H1  UNL     1      36.975 -15.943  24.830  1.00  0.00     0.164 HD
BRANCH  19  21
HETATM   21  C16 UNL     1      38.213 -17.283  26.087  1.00  0.00     0.177 C
BRANCH  21  22
HETATM   22  C17 UNL     1      37.632 -18.606  26.490  1.00  0.00     0.038 C
BRANCH  22  23
HETATM   23  C18 UNL     1      38.567 -19.538  27.158  1.00  0.00    -0.020 C
HETATM   24  C19 UNL     1      40.012 -19.327  26.677  1.00  0.00     0.009 C
HETATM   25  C20 UNL     1      38.268 -20.994  26.711  1.00  0.00     0.009 C
ENDBRANCH  22  23
ENDBRANCH  21  22
BRANCH  21  26
HETATM   26  C21 UNL     1      37.989 -16.290  27.156  1.00  0.00     0.240 C
HETATM   27  O4  UNL     1      39.016 -15.602  27.494  1.00  0.00    -0.271 OA
HETATM   28  N2  UNL     1      36.784 -16.032  27.832  1.00  0.00    -0.359 N
ATOM     29  H2  UNL     1      35.932 -16.549  27.617  1.00  0.00     0.162 HD
BRANCH  28  30
HETATM   30  C22 UNL     1      36.804 -14.981  28.867  1.00  0.00     0.125 C
BRANCH  30  31
HETATM   31  C23 UNL     1      35.755 -13.939  28.613  1.00  0.00     0.046 C
BRANCH  31  32
HETATM   32  C24 UNL     1      36.053 -13.273  27.288  1.00  0.00     0.165 C
BRANCH  32  33
HETATM   33  O5  UNL     1      37.397 -12.897  27.215  1.00  0.00    -0.401 OA
ATOM     34  H5  UNL     1      37.630 -12.333  27.944  1.00  0.00     0.209 HD
ENDBRANCH  32  33
ENDBRANCH  31  32
ENDBRANCH  30  31
ENDBRANCH  28  30
ENDBRANCH  21  26
ENDBRANCH  19  21
ENDBRANCH  14  19
BRANCH   7  35
HETATM   35  O1  UNL     1      35.395 -24.002  22.980  1.00  0.00    -0.310 OA
BRANCH  35  36
HETATM   36  C9  UNL     1      34.940 -25.184  23.467  1.00  0.00     0.273 C
HETATM   37  O2  UNL     1      33.938 -25.227  24.185  1.00  0.00    -0.264 OA
BRANCH  36  38
HETATM   38  C10 UNL     1      35.651 -26.441  23.134  1.00  0.00     0.225 C
HETATM   39 CL1  UNL     1      36.137 -27.310  24.591  1.00  0.00    -0.120 Cl
ENDBRANCH  36  38
ENDBRANCH  35  36
ENDBRANCH   7  35
TORSDOF 12
ENDMDL