MODEL 5
REMARK VINA RESULT: -7.601936464      4.665     11.250
REMARK  12 active torsions:
REMARK  status: ('A' for Active; 'I' for Inactive)
REMARK    1  A    between atoms: C2_2  and  C5_5
REMARK    2  A    between atoms: C5_5  and  C6_6
REMARK    3  A    between atoms: C6_6  and  C7_7
REMARK    4  A    between atoms: C7_7  and  C8_8
REMARK    5  A    between atoms: C8_8  and  C9_9
REMARK    6  A    between atoms: C9_9  and  C10_10
REMARK       I    between atoms: C10_10  and  N1_12
REMARK    7  A    between atoms: N2_15  and  C13_16
REMARK    8  A    between atoms: C15_21  and  C16_22
REMARK    9  A    between atoms: C21_30  and  O3_31
REMARK   10  A    between atoms: O3_31  and  C22_32
REMARK   11  A    between atoms: C22_32  and  C23_33
REMARK   12  A    between atoms: C23_33  and  N5_34
ROOT
HETATM    1  C13 UNL     1      38.848 -20.872  26.702  1.00  0.00     0.683 A
HETATM    2  N3  UNL     1      38.982 -20.103  27.808  1.00  0.00    -0.155 N
ATOM      3  H3  UNL     1      38.306 -19.352  27.948  1.00  0.00     0.187 HD
HETATM    4  C14 UNL     1      39.936 -20.260  28.728  1.00  0.00     0.272 A
HETATM    5  O2  UNL     1      40.000 -19.501  29.742  1.00  0.00    -0.267 OA
HETATM    6  C15 UNL     1      40.862 -21.275  28.556  1.00  0.00     0.061 A
HETATM    7  C26 UNL     1      40.755 -22.070  27.448  1.00  0.00     0.124 A
HETATM    8  N6  UNL     1      39.772 -21.853  26.568  1.00  0.00    -0.201 N
ATOM      9  H6  UNL     1      39.715 -22.460  25.751  1.00  0.00     0.183 HD
ENDROOT
BRANCH   6  10
HETATM   10  C16 UNL     1      41.908 -21.439  29.557  1.00  0.00     0.009 A
HETATM   11  C17 UNL     1      41.761 -21.879  30.858  1.00  0.00     0.102 A
HETATM   12  N4  UNL     1      42.974 -21.871  31.437  1.00  0.00    -0.362 N
HETATM   13  C18 UNL     1      43.918 -21.442  30.569  1.00  0.00     0.082 A
ATOM     14  H4  UNL     1      43.158 -22.150  32.401  1.00  0.00     0.165 HD
HETATM   15  C19 UNL     1      45.279 -21.247  30.640  1.00  0.00     0.146 A
HETATM   16  C25 UNL     1      43.244 -21.172  29.393  1.00  0.00     0.009 A
HETATM   17  F1  UNL     1      45.876 -21.530  31.823  1.00  0.00    -0.204 F
HETATM   18  C20 UNL     1      45.966 -20.791  29.556  1.00  0.00     0.081 A
HETATM   19  C21 UNL     1      45.325 -20.504  28.342  1.00  0.00     0.072 A
HETATM   20  C24 UNL     1      43.973 -20.711  28.312  1.00  0.00     0.051 A
BRANCH  19  21
HETATM   21  O3  UNL     1      46.023 -20.055  27.276  1.00  0.00    -0.349 OA
BRANCH  21  22
HETATM   22  C22 UNL     1      46.335 -20.668  26.096  1.00  0.00     0.203 C
BRANCH  22  23
HETATM   23  C23 UNL     1      47.764 -20.495  25.689  1.00  0.00     0.256 C
BRANCH  23  24
HETATM   24  N5  UNL     1      48.589 -20.811  26.860  1.00  0.00    -0.077 N
ATOM     25  H53 UNL     1      49.580 -20.616  26.715  1.00  0.00     0.274 HD
ATOM     26  H52 UNL     1      48.442 -20.168  27.638  1.00  0.00     0.274 HD
ATOM     27  H51 UNL     1      48.405 -21.783  27.105  1.00  0.00     0.274 HD
ENDBRANCH  23  24
ENDBRANCH  22  23
ENDBRANCH  21  22
ENDBRANCH  19  21
ENDBRANCH   6  10
BRANCH   1  28
HETATM   28  N2  UNL     1      37.819 -20.658  25.756  1.00  0.00    -0.214 N
HETATM   29  C12 UNL     1      36.477 -21.087  26.070  1.00  0.00     0.161 C
HETATM   30  C11 UNL     1      35.617 -21.129  24.814  1.00  0.00     0.146 C
HETATM   31  N1  UNL     1      36.397 -21.584  23.699  1.00  0.00    -0.349 N
HETATM   32  C10 UNL     1      36.005 -22.750  23.000  1.00  0.00     0.219 C
HETATM   33  C28 UNL     1      37.578 -20.818  23.327  1.00  0.00     0.146 C
HETATM   34  O1  UNL     1      36.715 -23.128  22.044  1.00  0.00    -0.273 OA
HETATM   35  C27 UNL     1      38.092 -20.030  24.501  1.00  0.00     0.161 C
BRANCH  32  36
HETATM   36  C9  UNL     1      34.803 -23.483  23.386  1.00  0.00     0.103 C
BRANCH  36  37
HETATM   37  C8  UNL     1      35.000 -24.723  24.164  1.00  0.00     0.009 C
BRANCH  37  38
HETATM   38  C7  UNL     1      35.312 -25.996  23.519  1.00  0.00     0.000 C
BRANCH  38  39
HETATM   39  C6  UNL     1      36.420 -26.831  24.008  1.00  0.00     0.001 C
BRANCH  39  40
HETATM   40  C5  UNL     1      37.136 -26.439  25.237  1.00  0.00     0.008 C
BRANCH  40  41
HETATM   41  C2  UNL     1      38.587 -26.083  24.879  1.00  0.00    -0.051 C
HETATM   42  C1  UNL     1      38.974 -26.967  23.708  1.00  0.00     0.014 C
HETATM   43  C3  UNL     1      39.498 -26.398  26.038  1.00  0.00     0.014 C
HETATM   44  C4  UNL     1      38.711 -24.638  24.503  1.00  0.00     0.014 C
ENDBRANCH  40  41
ENDBRANCH  39  40
ENDBRANCH  38  39
ENDBRANCH  37  38
ENDBRANCH  36  37
ENDBRANCH  32  36
ENDBRANCH   1  28
TORSDOF 12
ENDMDL