MODEL 3
REMARK VINA RESULT: -7.217080211      3.589      8.066
REMARK  13 active torsions:
REMARK  status: ('A' for Active; 'I' for Inactive)
REMARK    1  A    between atoms: O1_2  and  C2_3
REMARK    2  A    between atoms: C4_5  and  N1_6
REMARK    3  A    between atoms: N1_6  and  C5_8
REMARK    4  A    between atoms: C8_15  and  N4_16
REMARK    5  A    between atoms: N4_16  and  C9_18
REMARK    6  A    between atoms: C9_18  and  C10_19
REMARK    7  A    between atoms: C10_19  and  C11_20
REMARK    8  A    between atoms: C11_20  and  O2_21
REMARK    9  A    between atoms: C18_32  and  O3_33
REMARK   10  A    between atoms: O3_33  and  C19_34
REMARK   11  A    between atoms: C19_34  and  C20_35
REMARK   12  A    between atoms: C20_35  and  C21_36
REMARK   13  A    between atoms: C21_36  and  N6_37
ROOT
HETATM    1  C2  UNL     1      40.681 -19.122  25.086  1.00  0.00     0.104 A
HETATM    2  C3  UNL     1      40.304 -19.927  26.128  1.00  0.00     0.070 A
HETATM    3  C4  UNL     1      39.601 -19.507  27.238  1.00  0.00     0.063 A
HETATM    4  C12 UNL     1      39.255 -18.148  27.282  1.00  0.00     0.004 A
HETATM    5  C13 UNL     1      38.526 -17.679  28.356  1.00  0.00     0.018 A
HETATM    6  C14 UNL     1      38.125 -16.360  28.446  1.00  0.00     0.043 A
HETATM    7  C15 UNL     1      38.484 -15.526  27.415  1.00  0.00     0.117 A
HETATM    8  F1  UNL     1      38.094 -14.222  27.493  1.00  0.00    -0.206 F
HETATM    9  C16 UNL     1      39.212 -16.002  26.349  1.00  0.00     0.057 A
HETATM   10  C17 UNL     1      39.625 -17.319  26.241  1.00  0.00     0.015 A
HETATM   11  C18 UNL     1      40.322 -17.757  25.157  1.00  0.00     0.113 A
ENDROOT
BRANCH   3  12
HETATM   12  N1  UNL     1      39.215 -20.305  28.322  1.00  0.00    -0.190 N
ATOM     13  H1  UNL     1      38.299 -20.119  28.730  1.00  0.00     0.184 HD
BRANCH  12  14
HETATM   14  C5  UNL     1      39.908 -21.247  28.849  1.00  0.00     0.698 A
HETATM   15  N2  UNL     1      39.535 -22.537  28.833  1.00  0.00    -0.180 N
HETATM   16  C6  UNL     1      40.340 -23.441  29.425  1.00  0.00     0.109 A
ATOM     17  H2  UNL     1      38.665 -22.825  28.385  1.00  0.00     0.185 HD
HETATM   18  C7  UNL     1      39.907 -24.873  29.389  1.00  0.00     0.090 C
HETATM   19  N3  UNL     1      41.484 -23.108  30.021  1.00  0.00    -0.180 N
HETATM   20  C8  UNL     1      41.895 -21.797  30.058  1.00  0.00     0.694 A
ATOM     21  H3  UNL     1      42.058 -23.831  30.455  1.00  0.00     0.185 HD
HETATM   22  N5  UNL     1      41.087 -20.916  29.467  1.00  0.00    -0.022 N
ATOM     23  H5  UNL     1      41.363 -19.935  29.474  1.00  0.00     0.203 HD
BRANCH  20  24
HETATM   24  N4  UNL     1      42.998 -21.518  30.648  1.00  0.00    -0.225 N
ATOM     25  H4  UNL     1      43.044 -21.719  31.646  1.00  0.00     0.177 HD
BRANCH  24  26
HETATM   26  C9  UNL     1      44.160 -20.959  30.059  1.00  0.00     0.140 C
BRANCH  26  27
HETATM   27  C10 UNL     1      45.356 -21.371  30.915  1.00  0.00     0.046 C
BRANCH  27  28
HETATM   28  C11 UNL     1      44.820 -21.797  32.260  1.00  0.00     0.165 C
BRANCH  28  29
HETATM   29  O2  UNL     1      44.780 -23.195  32.251  1.00  0.00    -0.401 OA
ATOM     30  H2  UNL     1      44.524 -23.454  31.373  1.00  0.00     0.209 HD
ENDBRANCH  28  29
ENDBRANCH  27  28
ENDBRANCH  26  27
ENDBRANCH  24  26
ENDBRANCH  20  24
ENDBRANCH  12  14
ENDBRANCH   3  12
BRANCH   1  31
HETATM   31  O1  UNL     1      41.390 -19.613  23.993  1.00  0.00    -0.353 OA
HETATM   32  C1  UNL     1      42.182 -20.775  24.147  1.00  0.00     0.210 C
ENDBRANCH   1  31
BRANCH  11  33
HETATM   33  O3  UNL     1      40.730 -17.008  24.085  1.00  0.00    -0.347 OA
BRANCH  33  34
HETATM   34  C19 UNL     1      40.031 -16.522  23.019  1.00  0.00     0.177 C
BRANCH  34  35
HETATM   35  C20 UNL     1      38.741 -16.989  22.528  1.00  0.00     0.046 C
BRANCH  35  36
HETATM   36  C21 UNL     1      38.644 -18.346  21.907  1.00  0.00     0.124 C
BRANCH  36  37
HETATM   37  N6  UNL     1      37.479 -19.040  22.427  1.00  0.00    -0.393 N
HETATM   38  C22 UNL     1      37.503 -20.443  22.363  1.00  0.00     0.122 C
HETATM   39  C23 UNL     1      37.727 -21.106  23.726  1.00  0.00     0.029 C
HETATM   40  C24 UNL     1      36.564 -20.665  24.591  1.00  0.00    -0.042 C
HETATM   41  C25 UNL     1      35.296 -21.048  23.877  1.00  0.00     0.015 C
HETATM   42  C26 UNL     1      36.641 -21.310  25.957  1.00  0.00     0.015 C
HETATM   43  C27 UNL     1      36.691 -19.170  24.760  1.00  0.00     0.053 C
HETATM   44  C28 UNL     1      36.809 -18.409  23.492  1.00  0.00     0.059 C
ENDBRANCH  36  37
ENDBRANCH  35  36
ENDBRANCH  34  35
ENDBRANCH  33  34
ENDBRANCH  11  33
TORSDOF 13
ENDMDL