MODEL 2
REMARK VINA RESULT: -7.286284345      1.015      1.861
REMARK  14 active torsions:
REMARK  status: ('A' for Active; 'I' for Inactive)
REMARK    1  A    between atoms: C2_2  and  N1_3
REMARK    2  A    between atoms: N1_3  and  C3_4
REMARK       I    between atoms: N1_3  and  C21_36
REMARK    3  A    between atoms: C3_4  and  C4_5
REMARK    4  A    between atoms: C4_5  and  O1_6
REMARK    5  A    between atoms: O1_6  and  N2_7
REMARK    6  A    between atoms: C5_9  and  C6_10
REMARK    7  A    between atoms: C10_17  and  N4_18
REMARK    8  A    between atoms: N4_18  and  C12_20
REMARK    9  A    between atoms: C12_20  and  C13_21
REMARK   10  A    between atoms: C16_24  and  N5_25
REMARK   11  A    between atoms: N5_25  and  C17_27
REMARK   12  A    between atoms: C21_36  and  C22_38
REMARK   13  A    between atoms: C22_38  and  O3_39
REMARK   14  A    between atoms: C22_38  and  C23_41
ROOT
HETATM    1  C6  UNL     1      36.076 -20.140  23.324  1.00  0.00     0.035 A
HETATM    2  C7  UNL     1      36.197 -19.302  22.194  1.00  0.00     0.144 A
HETATM    3  F1  UNL     1      35.735 -19.759  20.982  1.00  0.00    -0.204 F
HETATM    4  C8  UNL     1      36.750 -18.074  22.269  1.00  0.00     0.131 A
HETATM    5  N3  UNL     1      37.195 -17.628  23.417  1.00  0.00    -0.360 N
ATOM      6  H3  UNL     1      37.609 -16.697  23.449  1.00  0.00     0.165 HD
HETATM    7  C9  UNL     1      37.131 -18.334  24.546  1.00  0.00     0.075 A
HETATM    8  C10 UNL     1      37.605 -17.782  25.709  1.00  0.00     0.102 A
HETATM    9  C16 UNL     1      37.490 -18.566  26.867  1.00  0.00     0.136 A
HETATM   10  N7  UNL     1      36.946 -19.785  26.814  1.00  0.00    -0.349 N
ATOM     11  H7  UNL     1      36.880 -20.324  27.677  1.00  0.00     0.166 HD
HETATM   12  C19 UNL     1      36.477 -20.339  25.676  1.00  0.00     0.104 A
HETATM   13  C20 UNL     1      36.559 -19.620  24.505  1.00  0.00     0.023 A
ENDROOT
BRANCH   1  14
HETATM   14  C5  UNL     1      35.479 -21.441  23.176  1.00  0.00     0.129 C
HETATM   15  N2  UNL     1      34.394 -21.820  22.663  1.00  0.00    -0.277 N
ATOM     16  H2  UNL     1      33.781 -21.111  22.260  1.00  0.00     0.193 HD
BRANCH  15  17
HETATM   17  O1  UNL     1      33.991 -23.115  22.614  1.00  0.00    -0.279 OA
BRANCH  17  18
HETATM   18  C4  UNL     1      34.363 -24.127  23.511  1.00  0.00     0.221 C
BRANCH  18  19
HETATM   19  C3  UNL     1      35.689 -24.768  23.115  1.00  0.00     0.154 C
BRANCH  19  20
HETATM   20  N1  UNL     1      36.051 -25.826  24.023  1.00  0.00    -0.348 N
HETATM   21  C21 UNL     1      35.408 -27.065  24.060  1.00  0.00     0.249 C
HETATM   22  O2  UNL     1      35.702 -27.877  25.001  1.00  0.00    -0.270 OA
BRANCH  20  23
HETATM   23  C2  UNL     1      37.116 -25.570  25.017  1.00  0.00     0.121 C
HETATM   24  C1  UNL     1      37.577 -24.131  24.924  1.00  0.00     0.026 C
ENDBRANCH  20  23
BRANCH  21  25
HETATM   25  C22 UNL     1      34.397 -27.544  23.104  1.00  0.00     0.217 C
BRANCH  25  26
HETATM   26  O3  UNL     1      33.645 -28.605  23.728  1.00  0.00    -0.385 OA
ATOM     27  H3  UNL     1      32.788 -28.645  23.321  1.00  0.00     0.210 HD
ENDBRANCH  25  26
BRANCH  25  28
HETATM   28  C23 UNL     1      35.076 -28.326  21.957  1.00  0.00    -0.017 C
HETATM   29  C24 UNL     1      36.537 -28.135  22.004  1.00  0.00     0.017 C
HETATM   30  C25 UNL     1      34.735 -29.800  22.157  1.00  0.00     0.017 C
HETATM   31  C26 UNL     1      34.452 -27.843  20.665  1.00  0.00     0.017 C
ENDBRANCH  25  28
ENDBRANCH  21  25
ENDBRANCH  19  20
ENDBRANCH  18  19
ENDBRANCH  17  18
ENDBRANCH  15  17
ENDBRANCH   1  14
BRANCH   8  32
HETATM   32  N4  UNL     1      38.227 -16.533  25.850  1.00  0.00    -0.380 N
HETATM   33  C11 UNL     1      37.353 -15.386  26.143  1.00  0.00     0.150 C
BRANCH  32  34
HETATM   34  C12 UNL     1      39.627 -16.331  25.848  1.00  0.00     0.126 C
BRANCH  34  35
HETATM   35  C13 UNL     1      40.397 -16.346  24.595  1.00  0.00    -0.005 C
HETATM   36  C14 UNL     1      40.644 -17.633  23.915  1.00  0.00     0.011 C
HETATM   37  C15 UNL     1      39.785 -15.399  23.541  1.00  0.00     0.011 C
ENDBRANCH  34  35
ENDBRANCH  32  34
ENDBRANCH   8  32
BRANCH   9  38
HETATM   38  N5  UNL     1      37.908 -18.116  27.981  1.00  0.00    -0.331 N
ATOM     39  H5  UNL     1      37.336 -17.411  28.447  1.00  0.00     0.168 HD
BRANCH  38  40
HETATM   40  C17 UNL     1      39.095 -18.512  28.621  1.00  0.00     0.072 C
HETATM   41  C18 UNL     1      40.107 -19.299  27.876  1.00  0.00     0.088 C
HETATM   42  N6  UNL     1      39.256 -18.167  29.857  1.00  0.00    -0.389 N
ATOM     43  H62 UNL     1      38.560 -17.625  30.370  1.00  0.00     0.157 HD
ATOM     44  H61 UNL     1      40.118 -18.454  30.322  1.00  0.00     0.157 HD
ENDBRANCH  38  40
ENDBRANCH   9  38
TORSDOF 14
ENDMDL