MODEL 3
REMARK VINA RESULT: -8.159364817      1.353      1.890
REMARK  12 active torsions:
REMARK  status: ('A' for Active; 'I' for Inactive)
REMARK    1  A    between atoms: C4_4  and  C5_5
REMARK    2  A    between atoms: C5_5  and  C6_6
REMARK    3  A    between atoms: C7_9  and  C8_10
REMARK    4  A    between atoms: C11_13  and  O1_14
REMARK    5  A    between atoms: O1_14  and  C12_15
REMARK    6  A    between atoms: C12_15  and  C13_16
REMARK    7  A    between atoms: C13_16  and  C14_17
REMARK    8  A    between atoms: N5_35  and  C26_36
REMARK    9  A    between atoms: C26_36  and  C27_37
REMARK   10  A    between atoms: C26_36  and  C28_40
REMARK   11  A    between atoms: C27_37  and  O2_38
REMARK   12  A    between atoms: C28_40  and  O3_41
ROOT
HETATM    1  C6  UNL     1      40.709 -21.493  29.198  1.00  0.00     0.097 A
HETATM    2  N1  UNL     1      42.044 -21.300  29.094  1.00  0.00    -0.329 N
ATOM      3  H1  UNL     1      42.526 -21.001  28.247  1.00  0.00     0.168 HD
HETATM    4  C7  UNL     1      42.644 -21.559  30.269  1.00  0.00     0.131 A
HETATM    5  N3  UNL     1      41.644 -21.915  31.092  1.00  0.00    -0.283 N
ATOM      6  H3  UNL     1      41.763 -22.178  32.071  1.00  0.00     0.188 HD
HETATM    7  N4  UNL     1      40.493 -21.878  30.463  1.00  0.00    -0.287 N
ATOM      8  H4  UNL     1      39.585 -22.105  30.869  1.00  0.00     0.188 HD
ENDROOT
BRANCH   4   9
HETATM    9  C8  UNL     1      44.066 -21.466  30.564  1.00  0.00     0.009 A
HETATM   10  C9  UNL     1      44.898 -20.626  29.862  1.00  0.00     0.018 A
HETATM   11  C10 UNL     1      46.256 -20.563  30.170  1.00  0.00     0.037 A
HETATM   12  C11 UNL     1      46.826 -21.315  31.164  1.00  0.00     0.068 A
HETATM   13  C22 UNL     1      45.970 -22.167  31.873  1.00  0.00     0.037 A
HETATM   14  C23 UNL     1      44.651 -22.215  31.560  1.00  0.00     0.018 A
BRANCH  12  15
HETATM   15  O1  UNL     1      48.129 -21.327  31.535  1.00  0.00    -0.351 OA
BRANCH  15  16
HETATM   16  C12 UNL     1      48.864 -22.154  32.354  1.00  0.00     0.181 C
BRANCH  16  17
HETATM   17  C13 UNL     1      50.320 -21.955  32.438  1.00  0.00     0.079 C
BRANCH  17  18
HETATM   18  C14 UNL     1      50.895 -21.480  33.737  1.00  0.00    -0.009 C
HETATM   19  C15 UNL     1      50.312 -22.075  34.977  1.00  0.00     0.064 C
HETATM   20  C16 UNL     1      51.008 -21.636  36.233  1.00  0.00    -0.007 C
HETATM   21  C17 UNL     1      50.027 -21.156  37.275  1.00  0.00     0.018 C
HETATM   22  C18 UNL     1      51.699 -22.859  36.828  1.00  0.00     0.018 C
HETATM   23  C19 UNL     1      52.054 -20.593  36.030  1.00  0.00     0.216 C
HETATM   24  F1  UNL     1      53.330 -21.177  35.929  1.00  0.00    -0.243 F
HETATM   25  C20 UNL     1      51.902 -19.666  34.894  1.00  0.00     0.100 C
HETATM   26  N2  UNL     1      51.118 -20.079  33.807  1.00  0.00    -0.369 N
HETATM   27  C21 UNL     1      51.356 -19.413  32.570  1.00  0.00     0.154 C
ENDBRANCH  17  18
ENDBRANCH  16  17
ENDBRANCH  15  16
ENDBRANCH  12  15
ENDBRANCH   4   9
BRANCH   1  28
HETATM   28  C5  UNL     1      39.674 -21.321  28.136  1.00  0.00     0.083 C
BRANCH  28  29
HETATM   29  C4  UNL     1      39.748 -19.878  27.635  1.00  0.00    -0.001 C
HETATM   30  C3  UNL     1      38.583 -19.659  26.712  1.00  0.00     0.030 C
HETATM   31  C2  UNL     1      38.693 -18.225  26.214  1.00  0.00     0.080 C
HETATM   32  C1  UNL     1      40.089 -18.086  25.622  1.00  0.00     0.032 C
HETATM   33  N5  UNL     1      38.521 -17.310  27.269  1.00  0.00    -0.380 N
HETATM   34  C25 UNL     1      38.999 -17.628  28.536  1.00  0.00     0.059 C
HETATM   35  C24 UNL     1      39.658 -18.927  28.768  1.00  0.00     0.049 C
BRANCH  33  36
HETATM   36  C26 UNL     1      38.387 -15.950  26.915  1.00  0.00     0.131 C
BRANCH  36  37
HETATM   37  C27 UNL     1      37.761 -15.100  27.968  1.00  0.00     0.191 C
BRANCH  37  38
HETATM   38  O2  UNL     1      37.473 -13.809  27.516  1.00  0.00    -0.399 OA
ATOM     39  H2  UNL     1      36.841 -13.802  26.808  1.00  0.00     0.209 HD
ENDBRANCH  37  38
ENDBRANCH  36  37
BRANCH  36  40
HETATM   40  C28 UNL     1      37.569 -15.747  25.635  1.00  0.00     0.191 C
BRANCH  40  41
HETATM   41  O3  UNL     1      38.269 -14.940  24.738  1.00  0.00    -0.399 OA
ATOM     42  H3  UNL     1      37.828 -14.106  24.631  1.00  0.00     0.209 HD
ENDBRANCH  40  41
ENDBRANCH  36  40
ENDBRANCH  33  36
ENDBRANCH  28  29
ENDBRANCH   1  28
TORSDOF 12
ENDMDL