MODEL 5
REMARK VINA RESULT: -7.603661920      6.137     11.795
REMARK  11 active torsions:
REMARK  status: ('A' for Active; 'I' for Inactive)
REMARK    1  A    between atoms: O1_2  and  C2_3
REMARK    2  A    between atoms: C3_4  and  N1_5
REMARK       I    between atoms: N1_5  and  C4_7
REMARK    3  A    between atoms: C4_7  and  C5_9
REMARK    4  A    between atoms: C9_13  and  O3_14
REMARK    5  A    between atoms: O3_14  and  C10_15
REMARK    6  A    between atoms: C10_15  and  C11_16
REMARK    7  A    between atoms: C11_16  and  C12_17
REMARK    8  A    between atoms: C12_17  and  O4_18
REMARK    9  A    between atoms: C19_26  and  O5_27
REMARK   10  A    between atoms: N2_30  and  C22_31
REMARK   11  A    between atoms: C22_31  and  C23_32
ROOT
HETATM    1  C2  UNL     1      40.977 -22.383  29.306  1.00  0.00     0.129 A
HETATM    2  C3  UNL     1      40.027 -22.259  28.275  1.00  0.00     0.072 A
HETATM    3  C16 UNL     1      39.895 -23.374  27.484  1.00  0.00     0.040 A
HETATM    4  C17 UNL     1      40.617 -24.543  27.652  1.00  0.00    -0.044 A
HETATM    5  C18 UNL     1      41.527 -24.599  28.673  1.00  0.00     0.002 A
HETATM    6  C19 UNL     1      41.722 -23.510  29.524  1.00  0.00     0.112 A
HETATM    7  C21 UNL     1      42.316 -25.824  28.880  1.00  0.00     0.159 C
HETATM    8  N2  UNL     1      41.734 -27.009  28.376  1.00  0.00    -0.406 N
HETATM    9  C27 UNL     1      40.433 -26.901  27.806  1.00  0.00     0.122 C
HETATM   10  C28 UNL     1      40.462 -25.745  26.793  1.00  0.00     0.058 C
ENDROOT
BRANCH   2  11
HETATM   11  N1  UNL     1      39.304 -21.061  28.123  1.00  0.00    -0.320 N
HETATM   12  C4  UNL     1      39.691 -19.893  27.467  1.00  0.00     0.257 C
HETATM   13  O2  UNL     1      40.837 -19.797  26.916  1.00  0.00    -0.267 OA
ATOM     14  H1  UNL     1      38.377 -21.046  28.548  1.00  0.00     0.169 HD
BRANCH  12  15
HETATM   15  C5  UNL     1      38.860 -18.713  27.360  1.00  0.00     0.044 A
HETATM   16  C6  UNL     1      38.683 -17.824  28.363  1.00  0.00    -0.043 A
HETATM   17  C7  UNL     1      39.212 -18.027  29.754  1.00  0.00     0.049 C
HETATM   18  C8  UNL     1      37.929 -16.657  28.205  1.00  0.00     0.044 A
HETATM   19  C9  UNL     1      37.350 -16.411  26.986  1.00  0.00     0.069 A
HETATM   20  C13 UNL     1      37.499 -17.286  25.935  1.00  0.00     0.044 A
HETATM   21  C14 UNL     1      38.262 -18.444  26.134  1.00  0.00    -0.043 A
HETATM   22  C15 UNL     1      38.424 -19.371  24.987  1.00  0.00     0.049 C
BRANCH  19  23
HETATM   23  O3  UNL     1      36.603 -15.245  26.848  1.00  0.00    -0.351 OA
BRANCH  23  24
HETATM   24  C10 UNL     1      36.842 -14.114  27.667  1.00  0.00     0.178 C
BRANCH  24  25
HETATM   25  C11 UNL     1      35.549 -13.323  27.742  1.00  0.00     0.053 C
BRANCH  25  26
HETATM   26  C12 UNL     1      34.810 -13.785  28.990  1.00  0.00     0.166 C
BRANCH  26  27
HETATM   27  O4  UNL     1      34.678 -15.168  29.002  1.00  0.00    -0.401 OA
ATOM     28  H4  UNL     1      34.616 -15.493  29.893  1.00  0.00     0.209 HD
ENDBRANCH  26  27
ENDBRANCH  25  26
ENDBRANCH  24  25
ENDBRANCH  23  24
ENDBRANCH  19  23
ENDBRANCH  12  15
ENDBRANCH   2  11
BRANCH   1  29
HETATM   29  O1  UNL     1      41.176 -21.291  30.162  1.00  0.00    -0.351 OA
HETATM   30  C1  UNL     1      40.412 -21.189  31.374  1.00  0.00     0.210 C
ENDBRANCH   1  29
BRANCH   6  31
HETATM   31  O5  UNL     1      42.656 -23.588  30.561  1.00  0.00    -0.352 OA
HETATM   32  C20 UNL     1      43.970 -23.084  30.424  1.00  0.00     0.210 C
ENDBRANCH   6  31
BRANCH   8  33
HETATM   33  C22 UNL     1      41.955 -28.196  29.124  1.00  0.00     0.150 C
BRANCH  33  34
HETATM   34  C23 UNL     1      43.132 -28.973  28.645  1.00  0.00     0.206 C
HETATM   35  C24 UNL     1      43.479 -30.052  29.681  1.00  0.00     0.073 C
HETATM   36  C25 UNL     1      44.453 -30.900  28.891  1.00  0.00     0.197 C
HETATM   37  F1  UNL     1      45.744 -30.489  29.214  1.00  0.00    -0.248 F
HETATM   38  C26 UNL     1      44.117 -30.626  27.452  1.00  0.00     0.269 C
HETATM   39  N3  UNL     1      42.948 -29.742  27.460  1.00  0.00    -0.067 N
ATOM     40  H32 UNL     1      42.051 -30.224  27.402  1.00  0.00     0.277 HD
ATOM     41  H31 UNL     1      42.826 -29.191  26.611  1.00  0.00     0.277 HD
ENDBRANCH  33  34
ENDBRANCH   8  33
TORSDOF 11
ENDMDL