MODEL 5
REMARK VINA RESULT: -7.056039644      2.964      7.944
REMARK  13 active torsions:
REMARK  status: ('A' for Active; 'I' for Inactive)
REMARK    1  A    between atoms: O1_2  and  C2_3
REMARK    2  A    between atoms: C5_6  and  C6_7
REMARK    3  A    between atoms: C6_7  and  C7_8
REMARK    4  A    between atoms: N1_9  and  C8_11
REMARK    5  A    between atoms: C8_11  and  C9_12
REMARK    6  A    between atoms: C8_11  and  C15_20
REMARK    7  A    between atoms: C9_12  and  C10_13
REMARK    8  A    between atoms: C10_13  and  N2_14
REMARK    9  A    between atoms: N3_24  and  C19_25
REMARK   10  A    between atoms: C19_25  and  O3_26
REMARK   11  A    between atoms: N4_28  and  O4_30
REMARK   12  A    between atoms: C20_32  and  C21_33
REMARK   13  A    between atoms: C25_38  and  O5_39
ROOT
HETATM    1  C8  UNL     1      39.745 -21.453  27.828  1.00  0.00     0.088 C
ENDROOT
BRANCH   1   2
HETATM    2  N1  UNL     1      39.970 -22.485  26.961  1.00  0.00    -0.397 N
HETATM    3  C7  UNL     1      39.292 -23.341  26.172  1.00  0.00     0.060 C
ATOM      4  H1  UNL     1      40.972 -22.663  26.887  1.00  0.00     0.159 HD
BRANCH   3   5
HETATM    5  C6  UNL     1      38.548 -23.102  24.939  1.00  0.00     0.082 C
BRANCH   5   6
HETATM    6  C5  UNL     1      37.485 -24.140  24.745  1.00  0.00    -0.051 A
HETATM    7  C4  UNL     1      37.804 -25.448  25.036  1.00  0.00     0.010 A
HETATM    8  C3  UNL     1      36.875 -26.479  24.849  1.00  0.00     0.040 A
HETATM    9  C2  UNL     1      35.610 -26.140  24.355  1.00  0.00     0.101 A
HETATM   10  C25 UNL     1      35.306 -24.825  24.069  1.00  0.00     0.102 A
HETATM   11  C24 UNL     1      36.242 -23.806  24.260  1.00  0.00     0.047 A
BRANCH   9  12
HETATM   12  O1  UNL     1      34.662 -27.094  24.148  1.00  0.00    -0.353 OA
HETATM   13  C1  UNL     1      34.540 -28.021  23.126  1.00  0.00     0.210 C
ENDBRANCH   9  12
BRANCH  10  14
HETATM   14  O5  UNL     1      34.037 -24.553  23.583  1.00  0.00    -0.353 OA
HETATM   15  C26 UNL     1      33.936 -23.722  22.443  1.00  0.00     0.210 C
ENDBRANCH  10  14
ENDBRANCH   5   6
ENDBRANCH   3   5
ENDBRANCH   1   2
BRANCH   1  16
HETATM   16  C9  UNL     1      39.166 -20.194  27.331  1.00  0.00     0.055 C
BRANCH  16  17
HETATM   17  C10 UNL     1      39.987 -18.971  27.210  1.00  0.00     0.274 C
BRANCH  17  18
HETATM   18  N2  UNL     1      39.204 -17.771  27.534  1.00  0.00     0.092 N
HETATM   19  C11 UNL     1      37.796 -18.139  27.401  1.00  0.00     0.298 C
HETATM   20  C12 UNL     1      37.014 -17.012  28.062  1.00  0.00     0.198 C
HETATM   21  O2  UNL     1      37.235 -15.863  27.296  1.00  0.00    -0.388 OA
HETATM   22  C13 UNL     1      38.566 -15.514  27.224  1.00  0.00     0.198 C
HETATM   23  C14 UNL     1      39.439 -16.661  26.681  1.00  0.00     0.298 C
ENDBRANCH  17  18
ENDBRANCH  16  17
ENDBRANCH   1  16
BRANCH   1  24
HETATM   24  C15 UNL     1      41.001 -21.125  28.677  1.00  0.00     0.033 C
HETATM   25  C16 UNL     1      40.569 -21.044  30.117  1.00  0.00     0.010 C
HETATM   26  C17 UNL     1      39.990 -22.335  30.607  1.00  0.00     0.020 C
HETATM   27  C18 UNL     1      40.852 -23.516  30.221  1.00  0.00     0.127 C
HETATM   28  N3  UNL     1      42.126 -22.973  29.717  1.00  0.00    -0.339 N
HETATM   29  C20 UNL     1      42.095 -22.155  28.550  1.00  0.00     0.116 C
BRANCH  28  30
HETATM   30  C19 UNL     1      43.247 -23.378  30.484  1.00  0.00     0.239 C
HETATM   31  N4  UNL     1      43.735 -22.773  31.480  1.00  0.00    -0.233 N
ATOM     32  H4  UNL     1      43.310 -21.901  31.794  1.00  0.00     0.198 HD
BRANCH  30  33
HETATM   33  O3  UNL     1      43.856 -24.577  30.067  1.00  0.00    -0.331 OA
ATOM     34  H3  UNL     1      44.739 -24.487  29.729  1.00  0.00     0.221 HD
ENDBRANCH  30  33
BRANCH  31  35
HETATM   35  O4  UNL     1      44.832 -23.270  32.151  1.00  0.00    -0.287 OA
ATOM     36  H4  UNL     1      45.551 -22.704  32.406  1.00  0.00     0.244 HD
ENDBRANCH  31  35
ENDBRANCH  28  30
BRANCH  29  37
HETATM   37  C21 UNL     1      43.406 -21.692  28.052  1.00  0.00     0.051 C
HETATM   38  C22 UNL     1      43.219 -20.844  26.796  1.00  0.00     0.034 C
HETATM   39  C23 UNL     1      44.193 -20.804  28.993  1.00  0.00     0.034 C
HETATM   40 CL1  UNL     1      44.367 -23.100  27.543  1.00  0.00    -0.118 Cl
ENDBRANCH  29  37
ENDBRANCH   1  24
TORSDOF 13
ENDMDL