MODEL 5
REMARK VINA RESULT: -6.462460493      3.053      6.081
REMARK  14 active torsions:
REMARK  status: ('A' for Active; 'I' for Inactive)
REMARK    1  A    between atoms: C2_2  and  C4_4
REMARK    2  A    between atoms: C4_4  and  C5_5
REMARK    3  A    between atoms: C5_5  and  C6_6
REMARK    4  A    between atoms: C15_16  and  C16_17
REMARK    5  A    between atoms: C19_22  and  C20_23
REMARK    6  A    between atoms: C20_23  and  O3_24
REMARK    7  A    between atoms: C20_23  and  C21_26
REMARK    8  A    between atoms: C21_26  and  C22_27
REMARK    9  A    between atoms: C22_27  and  O4_28
REMARK   10  A    between atoms: C23_30  and  C24_31
REMARK   11  A    between atoms: C24_31  and  C25_32
REMARK   12  A    between atoms: C25_32  and  N1_33
REMARK   13  A    between atoms: C25_32  and  C27_37
REMARK   14  A    between atoms: C27_37  and  O6_39
ROOT
HETATM    1  C6  UNL     1      37.839 -21.641  25.365  1.00  0.00    -0.002 C
HETATM    2  C7  UNL     1      38.244 -23.184  25.395  1.00  0.00     0.009 C
HETATM    3  C8  UNL     1      38.680 -23.637  24.030  1.00  0.00     0.014 C
HETATM    4  C9  UNL     1      39.126 -23.335  26.424  1.00  0.00    -0.010 C
HETATM    5  C10 UNL     1      40.123 -24.162  27.037  1.00  0.00    -0.004 C
HETATM    6  C11 UNL     1      40.563 -25.370  26.932  1.00  0.00    -0.014 C
HETATM    7  C12 UNL     1      41.646 -25.577  27.905  1.00  0.00     0.033 C
HETATM    8  C13 UNL     1      42.072 -24.150  28.316  1.00  0.00     0.078 C
HETATM    9  C14 UNL     1      40.859 -23.359  28.126  1.00  0.00     0.193 C
HETATM   10  O1  UNL     1      40.029 -23.180  29.213  1.00  0.00    -0.341 OA
HETATM   11  C15 UNL     1      40.004 -21.808  29.511  1.00  0.00     0.183 C
HETATM   12  C17 UNL     1      40.199 -21.154  28.133  1.00  0.00     0.162 C
HETATM   13  O2  UNL     1      41.042 -22.052  27.596  1.00  0.00    -0.342 OA
HETATM   14  C18 UNL     1      38.954 -20.691  27.495  1.00  0.00     0.029 C
HETATM   15  C19 UNL     1      38.568 -19.262  27.452  1.00  0.00     0.026 C
HETATM   16  C23 UNL     1      38.658 -19.276  25.910  1.00  0.00    -0.000 C
HETATM   17  C29 UNL     1      38.808 -20.763  26.019  1.00  0.00     0.002 C
ENDROOT
BRANCH  16  18
HETATM   18  C24 UNL     1      39.800 -18.430  25.445  1.00  0.00     0.049 C
BRANCH  18  19
HETATM   19  C25 UNL     1      39.785 -17.649  24.212  1.00  0.00     0.284 C
BRANCH  19  20
HETATM   20  N1  UNL     1      38.590 -18.264  23.464  1.00  0.00    -0.066 N
HETATM   21  C26 UNL     1      39.075 -19.033  22.358  1.00  0.00     0.267 C
ATOM     22  H12 UNL     1      37.986 -18.809  24.080  1.00  0.00     0.277 HD
ATOM     23  H11 UNL     1      37.908 -17.561  23.179  1.00  0.00     0.277 HD
ENDBRANCH  19  20
BRANCH  19  24
HETATM   24  C27 UNL     1      39.438 -16.239  24.186  1.00  0.00     0.289 C
HETATM   25  O5  UNL     1      39.239 -15.547  25.243  1.00  0.00    -0.263 OA
BRANCH  24  26
HETATM   26  O6  UNL     1      39.288 -15.546  23.008  1.00  0.00    -0.325 OA
HETATM   27  C28 UNL     1      40.378 -15.538  22.066  1.00  0.00     0.213 C
ENDBRANCH  24  26
ENDBRANCH  19  24
ENDBRANCH  18  19
ENDBRANCH  16  18
BRANCH  15  28
HETATM   28  C20 UNL     1      39.366 -18.243  28.185  1.00  0.00     0.125 C
BRANCH  28  29
HETATM   29  O3  UNL     1      39.266 -18.637  29.559  1.00  0.00    -0.395 OA
ATOM     30  H3  UNL     1      39.460 -17.844  30.046  1.00  0.00     0.210 HD
ENDBRANCH  28  29
BRANCH  28  31
HETATM   31  C21 UNL     1      38.582 -16.929  28.226  1.00  0.00     0.058 C
BRANCH  31  32
HETATM   32  C22 UNL     1      37.110 -17.120  28.067  1.00  0.00     0.166 C
BRANCH  32  33
HETATM   33  O4  UNL     1      36.534 -17.275  29.305  1.00  0.00    -0.401 OA
ATOM     34  H4  UNL     1      35.592 -17.179  29.229  1.00  0.00     0.209 HD
ENDBRANCH  32  33
ENDBRANCH  31  32
ENDBRANCH  28  31
ENDBRANCH  15  28
BRANCH   1  35
HETATM   35  C5  UNL     1      36.398 -21.600  25.601  1.00  0.00     0.010 C
BRANCH  35  36
HETATM   36  C4  UNL     1      35.472 -20.680  24.911  1.00  0.00     0.033 C
BRANCH  36  37
HETATM   37  C2  UNL     1      35.326 -21.111  23.443  1.00  0.00    -0.093 C
HETATM   38  C1  UNL     1      35.463 -20.184  22.537  1.00  0.00     0.014 C
HETATM   39  C3  UNL     1      35.046 -22.527  23.161  1.00  0.00     0.042 C
ENDBRANCH  36  37
ENDBRANCH  35  36
ENDBRANCH   1  35
BRANCH  11  40
HETATM   40  C16 UNL     1      41.262 -21.585  30.353  1.00  0.00     0.256 C
HETATM   41  F1  UNL     1      40.805 -21.278  31.629  1.00  0.00    -0.253 F
ENDBRANCH  11  40
TORSDOF 14
ENDMDL