MODEL 1
REMARK VINA RESULT: -7.684962094      0.000      0.000
REMARK  12 active torsions:
REMARK  status: ('A' for Active; 'I' for Inactive)
REMARK    1  A    between atoms: C2_2  and  C3_3
REMARK    2  A    between atoms: C3_3  and  O1_4
REMARK    3  A    between atoms: O1_4  and  C4_5
REMARK    4  A    between atoms: C6_7  and  N1_8
REMARK    5  A    between atoms: N1_8  and  C7_10
REMARK    6  A    between atoms: C10_15  and  N3_16
REMARK    7  A    between atoms: C19_30  and  O2_31
REMARK    8  A    between atoms: O2_31  and  C20_32
REMARK    9  A    between atoms: C20_32  and  C21_33
REMARK   10  A    between atoms: C21_33  and  C22_34
REMARK   11  A    between atoms: C22_34  and  N5_35
REMARK   12  A    between atoms: C27_41  and  O4_42
ROOT
HETATM    1  C4  UNL     1      39.542 -23.149  26.855  1.00  0.00     0.107 A
HETATM    2  C5  UNL     1      39.747 -22.065  27.670  1.00  0.00     0.070 A
HETATM    3  C6  UNL     1      38.985 -20.945  27.444  1.00  0.00     0.054 A
HETATM    4  C18 UNL     1      38.031 -20.917  26.411  1.00  0.00     0.070 A
HETATM    5  C19 UNL     1      37.838 -22.012  25.603  1.00  0.00     0.107 A
HETATM    6  C27 UNL     1      38.622 -23.157  25.841  1.00  0.00     0.135 A
ENDROOT
BRANCH   3   7
HETATM    7  N1  UNL     1      39.178 -19.810  28.275  1.00  0.00    -0.191 N
ATOM      8  H1  UNL     1      39.485 -19.935  29.239  1.00  0.00     0.184 HD
BRANCH   7   9
HETATM    9  C7  UNL     1      38.966 -18.622  27.820  1.00  0.00     0.684 A
HETATM   10  N2  UNL     1      37.947 -17.876  28.293  1.00  0.00    -0.190 N
HETATM   11  C8  UNL     1      37.685 -16.629  27.847  1.00  0.00     0.073 A
ATOM     12  H2  UNL     1      37.348 -18.271  29.018  1.00  0.00     0.184 HD
HETATM   13  C9  UNL     1      38.515 -16.134  26.870  1.00  0.00     0.018 A
HETATM   14  C17 UNL     1      36.680 -15.625  28.169  1.00  0.00     0.037 A
HETATM   15  C10 UNL     1      39.570 -16.875  26.363  1.00  0.00     0.123 A
HETATM   16  C11 UNL     1      38.058 -14.776  26.535  1.00  0.00     0.084 A
HETATM   17  N4  UNL     1      39.758 -18.108  26.863  1.00  0.00    -0.176 N
ATOM     18  H4  UNL     1      40.528 -18.674  26.504  1.00  0.00     0.186 HD
HETATM   19  C12 UNL     1      36.899 -14.517  27.386  1.00  0.00    -0.038 A
HETATM   20  C13 UNL     1      36.095 -13.385  27.466  1.00  0.00     0.008 A
HETATM   21  C14 UNL     1      35.053 -13.387  28.359  1.00  0.00     0.004 A
HETATM   22  C15 UNL     1      34.817 -14.507  29.163  1.00  0.00     0.043 A
HETATM   23  C16 UNL     1      35.632 -15.613  29.060  1.00  0.00     0.129 A
HETATM   24  F1  UNL     1      35.395 -16.672  29.832  1.00  0.00    -0.205 F
BRANCH  15  25
HETATM   25  N3  UNL     1      40.365 -16.444  25.450  1.00  0.00    -0.385 N
ATOM     26  H32 UNL     1      40.457 -16.972  24.582  1.00  0.00     0.157 HD
ATOM     27  H31 UNL     1      40.919 -15.593  25.543  1.00  0.00     0.157 HD
ENDBRANCH  15  25
ENDBRANCH   7   9
ENDBRANCH   3   7
BRANCH   1  28
HETATM   28  O1  UNL     1      40.328 -24.291  27.096  1.00  0.00    -0.348 OA
BRANCH  28  29
HETATM   29  C3  UNL     1      40.011 -25.227  28.087  1.00  0.00     0.175 C
BRANCH  29  30
HETATM   30  C2  UNL     1      40.319 -26.605  27.507  1.00  0.00     0.022 C
HETATM   31  C1  UNL     1      40.643 -27.598  28.574  1.00  0.00     0.007 C
ENDBRANCH  29  30
ENDBRANCH  28  29
ENDBRANCH   1  28
BRANCH   5  32
HETATM   32  O2  UNL     1      36.959 -22.086  24.590  1.00  0.00    -0.348 OA
BRANCH  32  33
HETATM   33  C20 UNL     1      35.594 -21.919  24.488  1.00  0.00     0.177 C
BRANCH  33  34
HETATM   34  C21 UNL     1      35.222 -21.120  23.290  1.00  0.00     0.057 C
BRANCH  34  35
HETATM   35  C22 UNL     1      36.449 -20.905  22.431  1.00  0.00     0.274 C
BRANCH  35  36
HETATM   36  N5  UNL     1      36.658 -19.554  22.061  1.00  0.00     0.092 N
HETATM   37  C23 UNL     1      38.016 -19.240  21.767  1.00  0.00     0.298 C
HETATM   38  C24 UNL     1      38.802 -19.139  23.029  1.00  0.00     0.198 C
HETATM   39  O3  UNL     1      38.288 -18.316  23.986  1.00  0.00    -0.388 OA
HETATM   40  C25 UNL     1      36.953 -18.215  24.110  1.00  0.00     0.198 C
HETATM   41  C26 UNL     1      36.122 -18.559  22.922  1.00  0.00     0.298 C
ENDBRANCH  35  36
ENDBRANCH  34  35
ENDBRANCH  33  34
ENDBRANCH  32  33
ENDBRANCH   5  32
BRANCH   6  42
HETATM   42  O4  UNL     1      38.449 -24.265  25.049  1.00  0.00    -0.351 OA
HETATM   43  C28 UNL     1      37.540 -25.302  25.327  1.00  0.00     0.210 C
ENDBRANCH   6  42
TORSDOF 12
ENDMDL