MODEL 3
REMARK VINA RESULT: -7.280950349      0.966      1.360
REMARK  10 active torsions:
REMARK  status: ('A' for Active; 'I' for Inactive)
REMARK    1  A    between atoms: O1_2  and  C2_3
REMARK    2  A    between atoms: C2_3  and  C3_4
REMARK    3  A    between atoms: C3_4  and  N1_6
REMARK    4  A    between atoms: N1_6  and  C5_8
REMARK    5  A    between atoms: C5_8  and  C6_9
REMARK    6  A    between atoms: C8_13  and  C9_14
REMARK    7  A    between atoms: N4_19  and  C12_21
REMARK    8  A    between atoms: C19_32  and  O4_33
REMARK    9  A    between atoms: O4_33  and  C20_34
REMARK   10  A    between atoms: C20_34  and  C21_35
ROOT
HETATM    1  C6  UNL     1      37.418 -19.188  25.624  1.00  0.00     0.010 A
HETATM    2  C7  UNL     1      37.221 -20.527  25.414  1.00  0.00     0.100 A
HETATM    3  N2  UNL     1      38.003 -21.200  26.279  1.00  0.00    -0.362 N
ATOM      4  H2  UNL     1      38.077 -22.213  26.367  1.00  0.00     0.165 HD
HETATM    5  C8  UNL     1      38.687 -20.263  27.022  1.00  0.00     0.078 A
HETATM    6  C19 UNL     1      38.342 -19.044  26.620  1.00  0.00     0.105 A
ENDROOT
BRANCH   5   7
HETATM    7  C9  UNL     1      39.696 -20.753  27.944  1.00  0.00     0.011 A
HETATM    8  C10 UNL     1      40.927 -20.066  27.959  1.00  0.00     0.103 A
HETATM    9  N3  UNL     1      41.967 -20.482  28.603  1.00  0.00    -0.350 N
HETATM   10  C11 UNL     1      41.986 -21.601  29.346  1.00  0.00     0.123 A
ATOM     11  H3  UNL     1      42.822 -19.929  28.544  1.00  0.00     0.166 HD
HETATM   12  N4  UNL     1      42.961 -22.077  29.929  1.00  0.00    -0.370 N
HETATM   13  C17 UNL     1      40.779 -22.322  29.369  1.00  0.00     0.078 A
ATOM     14  H4  UNL     1      42.774 -22.931  30.456  1.00  0.00     0.161 HD
HETATM   15 CL1  UNL     1      40.699 -23.846  30.227  1.00  0.00    -0.080 Cl
HETATM   16  C18 UNL     1      39.658 -21.891  28.666  1.00  0.00     0.043 A
BRANCH  12  17
HETATM   17  C12 UNL     1      44.328 -21.617  29.982  1.00  0.00     0.084 C
HETATM   18  C13 UNL     1      44.709 -21.223  31.352  1.00  0.00     0.040 C
HETATM   19  C14 UNL     1      45.860 -22.001  31.920  1.00  0.00     0.142 C
HETATM   20  S1  UNL     1      47.194 -21.971  30.739  1.00  0.00     0.144 S
HETATM   21  O2  UNL     1      47.551 -20.557  30.453  1.00  0.00    -0.228 OA
HETATM   22  O3  UNL     1      48.355 -22.803  31.201  1.00  0.00    -0.228 OA
HETATM   23  C15 UNL     1      46.520 -22.631  29.213  1.00  0.00     0.142 C
HETATM   24  C16 UNL     1      45.078 -22.840  29.435  1.00  0.00     0.040 C
ENDBRANCH  12  17
ENDBRANCH   5   7
BRANCH   6  25
HETATM   25  O4  UNL     1      38.707 -17.786  26.964  1.00  0.00    -0.347 OA
BRANCH  25  26
HETATM   26  C20 UNL     1      38.586 -17.083  28.156  1.00  0.00     0.191 C
BRANCH  26  27
HETATM   27  C21 UNL     1      37.246 -16.336  27.992  1.00  0.00     0.072 C
HETATM   28  C22 UNL     1      37.024 -15.366  29.107  1.00  0.00     0.027 C
HETATM   29  C23 UNL     1      36.360 -14.400  28.214  1.00  0.00     0.075 C
HETATM   30  S2  UNL     1      37.556 -14.823  26.925  1.00  0.00    -0.162 SA
ENDBRANCH  26  27
ENDBRANCH  25  26
ENDBRANCH   6  25
BRANCH   1  31
HETATM   31  C5  UNL     1      36.727 -18.069  24.762  1.00  0.00     0.157 C
BRANCH  31  32
HETATM   32  N1  UNL     1      37.856 -17.448  24.247  1.00  0.00    -0.411 N
ATOM     33  H1  UNL     1      38.358 -16.858  24.910  1.00  0.00     0.153 HD
BRANCH  32  34
HETATM   34  C3  UNL     1      38.402 -17.499  23.004  1.00  0.00     0.096 C
HETATM   35  C4  UNL     1      37.316 -18.170  22.070  1.00  0.00     0.034 C
BRANCH  34  36
HETATM   36  C2  UNL     1      39.642 -18.228  22.786  1.00  0.00     0.191 C
BRANCH  36  37
HETATM   37  O1  UNL     1      40.463 -18.320  23.945  1.00  0.00    -0.394 OA
HETATM   38  C1  UNL     1      40.899 -19.651  24.051  1.00  0.00     0.201 C
ENDBRANCH  36  37
ENDBRANCH  34  36
ENDBRANCH  32  34
ENDBRANCH  31  32
ENDBRANCH   1  31
TORSDOF 10
ENDMDL