MODEL 2
REMARK VINA RESULT: -8.174981112      2.156      3.871
REMARK  12 active torsions:
REMARK  status: ('A' for Active; 'I' for Inactive)
REMARK    1  A    between atoms: C3_3  and  N1_4
REMARK       I    between atoms: N1_4  and  C4_6
REMARK    2  A    between atoms: C4_6  and  C5_8
REMARK    3  A    between atoms: C5_8  and  N2_9
REMARK    4  A    between atoms: N2_9  and  C6_11
REMARK    5  A    between atoms: C7_16  and  C8_17
REMARK    6  A    between atoms: C11_21  and  C12_22
REMARK    7  A    between atoms: C12_22  and  N5_23
REMARK    8  A    between atoms: N5_23  and  C13_25
REMARK    9  A    between atoms: C13_25  and  C14_26
REMARK   10  A    between atoms: C19_31  and  C20_32
REMARK   11  A    between atoms: C20_32  and  O2_33
REMARK   12  A    between atoms: C20_32  and  N6_35
ROOT
HETATM    1  C6  UNL     1      37.538 -21.207  27.004  1.00  0.00     0.130 A
HETATM    2  N3  UNL     1      36.268 -21.010  26.707  1.00  0.00    -0.285 N
ATOM      3  H3  UNL     1      35.684 -20.253  27.061  1.00  0.00     0.188 HD
HETATM    4  N4  UNL     1      35.890 -21.934  25.894  1.00  0.00    -0.300 N
ATOM      5  H4  UNL     1      34.947 -22.007  25.511  1.00  0.00     0.186 HD
HETATM    6  C7  UNL     1      36.905 -22.805  25.605  1.00  0.00     0.064 A
HETATM    7  C11 UNL     1      37.974 -22.361  26.301  1.00  0.00     0.050 A
ENDROOT
BRANCH   7   8
HETATM    8  C12 UNL     1      39.363 -22.798  26.281  1.00  0.00     0.100 C
BRANCH   8   9
HETATM    9  N5  UNL     1      39.784 -23.926  27.006  1.00  0.00    -0.397 N
ATOM     10  H5  UNL     1      39.246 -24.379  27.746  1.00  0.00     0.158 HD
BRANCH   9  11
HETATM   11  C13 UNL     1      41.126 -24.367  26.542  1.00  0.00     0.128 C
BRANCH  11  12
HETATM   12  C14 UNL     1      41.496 -25.689  27.120  1.00  0.00     0.036 C
HETATM   13  C15 UNL     1      40.327 -26.365  27.724  1.00  0.00     0.011 C
HETATM   14  C16 UNL     1      40.628 -27.506  28.628  1.00  0.00     0.001 C
HETATM   15  C17 UNL     1      42.055 -27.943  28.612  1.00  0.00     0.004 C
HETATM   16  C18 UNL     1      43.037 -26.834  28.754  1.00  0.00     0.039 C
HETATM   17  C19 UNL     1      42.758 -25.623  27.888  1.00  0.00    -0.024 C
BRANCH  17  18
HETATM   18  C20 UNL     1      43.078 -24.346  28.552  1.00  0.00     0.141 C
BRANCH  18  19
HETATM   19  O2  UNL     1      44.301 -23.936  28.375  1.00  0.00    -0.346 OA
ATOM     20  H2  UNL     1      44.526 -23.748  27.472  1.00  0.00     0.219 HD
ENDBRANCH  18  19
BRANCH  18  21
HETATM   21  N6  UNL     1      42.288 -23.516  29.335  1.00  0.00    -0.358 N
HETATM   22  C21 UNL     1      41.513 -24.111  30.447  1.00  0.00     0.151 C
HETATM   23  C22 UNL     1      40.056 -23.762  30.283  1.00  0.00     0.187 C
HETATM   24  O3  UNL     1      39.886 -22.468  29.785  1.00  0.00    -0.388 OA
HETATM   25  C23 UNL     1      40.978 -21.654  30.107  1.00  0.00     0.187 C
HETATM   26  C24 UNL     1      42.129 -22.107  29.188  1.00  0.00     0.151 C
ENDBRANCH  18  21
ENDBRANCH  17  18
ENDBRANCH  11  12
ENDBRANCH   9  11
ENDBRANCH   8   9
ENDBRANCH   7   8
BRANCH   1  27
HETATM   27  N2  UNL     1      38.356 -20.460  27.890  1.00  0.00    -0.366 N
ATOM     28  H2  UNL     1      38.346 -20.689  28.883  1.00  0.00     0.161 HD
BRANCH  27  29
HETATM   29  C5  UNL     1      39.189 -19.403  27.436  1.00  0.00     0.224 C
BRANCH  29  30
HETATM   30  C4  UNL     1      38.439 -18.173  27.129  1.00  0.00     0.239 C
HETATM   31  N1  UNL     1      38.696 -17.028  27.918  1.00  0.00    -0.323 N
ATOM     32  H1  UNL     1      39.373 -17.128  28.674  1.00  0.00     0.169 HD
HETATM   33  O1  UNL     1      37.601 -18.108  26.202  1.00  0.00    -0.271 OA
BRANCH  31  34
HETATM   34  C3  UNL     1      38.095 -15.750  27.754  1.00  0.00     0.075 A
HETATM   35  C2  UNL     1      36.852 -15.367  28.259  1.00  0.00     0.052 A
HETATM   36  C1  UNL     1      35.936 -16.251  29.036  1.00  0.00     0.072 C
HETATM   37  N8  UNL     1      36.674 -14.068  27.907  1.00  0.00    -0.299 N
HETATM   38  N7  UNL     1      37.721 -13.671  27.237  1.00  0.00    -0.308 N
HETATM   39  C26 UNL     1      35.479 -13.331  28.262  1.00  0.00     0.177 C
HETATM   40  C25 UNL     1      38.614 -14.644  27.111  1.00  0.00     0.139 A
ATOM     41  H7  UNL     1      37.837 -12.732  26.857  1.00  0.00     0.186 HD
ENDBRANCH  31  34
ENDBRANCH  29  30
ENDBRANCH  27  29
ENDBRANCH   1  27
BRANCH   6  42
HETATM   42  C8  UNL     1      36.627 -23.940  24.710  1.00  0.00     0.074 C
HETATM   43  C9  UNL     1      37.385 -23.903  23.420  1.00  0.00     0.039 C
HETATM   44  C10 UNL     1      35.149 -24.140  24.460  1.00  0.00     0.039 C
HETATM   45 CL1  UNL     1      37.160 -25.453  25.530  1.00  0.00    -0.113 Cl
ENDBRANCH   6  42
TORSDOF 12
ENDMDL