MODEL 2
REMARK VINA RESULT: -9.163798653      2.141      4.129
REMARK  9 active torsions:
REMARK  status: ('A' for Active; 'I' for Inactive)
REMARK    1  A    between atoms: C2_2  and  N1_3
REMARK    2  A    between atoms: C2_2  and  C8_13
REMARK       I    between atoms: N1_3  and  C3_4
REMARK    3  A    between atoms: C3_4  and  C4_6
REMARK    4  A    between atoms: C7_10  and  O2_11
REMARK    5  A    between atoms: C12_21  and  C13_22
REMARK    6  A    between atoms: C16_25  and  O3_26
REMARK    7  A    between atoms: O3_26  and  C17_27
REMARK    8  A    between atoms: C17_27  and  C18_28
REMARK    9  A    between atoms: C18_28  and  C19_29
ROOT
HETATM    1  C8  UNL     1      38.636 -19.661  27.193  1.00  0.00     0.031 A
HETATM    2  C9  UNL     1      38.234 -20.817  27.774  1.00  0.00     0.102 A
HETATM    3  N3  UNL     1      39.119 -21.590  28.488  1.00  0.00    -0.363 N
ATOM      4  H3  UNL     1      38.791 -22.454  28.918  1.00  0.00     0.165 HD
HETATM    5  C10 UNL     1      40.415 -21.229  28.634  1.00  0.00     0.065 A
HETATM    6  C11 UNL     1      41.333 -21.996  29.443  1.00  0.00     0.103 A
HETATM    7  N4  UNL     1      42.652 -21.662  29.597  1.00  0.00    -0.353 N
ATOM      8  H4  UNL     1      43.027 -20.867  29.079  1.00  0.00     0.166 HD
HETATM    9  C12 UNL     1      43.451 -22.343  30.400  1.00  0.00     0.029 A
HETATM   10  C26 UNL     1      42.927 -23.423  31.098  1.00  0.00     0.115 A
HETATM   11  N5  UNL     1      41.639 -23.806  30.992  1.00  0.00    -0.349 N
ATOM     12  H5  UNL     1      41.270 -24.601  31.513  1.00  0.00     0.167 HD
HETATM   13  C27 UNL     1      40.853 -23.071  30.148  1.00  0.00     0.128 A
HETATM   14  N6  UNL     1      39.585 -23.399  29.989  1.00  0.00    -0.384 N
ATOM     15  H61 UNL     1      39.229 -24.197  30.513  1.00  0.00     0.157 HD
ATOM     16  H62 UNL     1      38.998 -22.850  29.359  1.00  0.00     0.157 HD
HETATM   17  C28 UNL     1      40.838 -20.060  28.047  1.00  0.00     0.074 A
HETATM   18  C29 UNL     1      39.953 -19.259  27.317  1.00  0.00     0.129 A
HETATM   19  F1  UNL     1      40.303 -18.112  26.717  1.00  0.00    -0.205 F
ENDROOT
BRANCH   9  20
HETATM   20  C13 UNL     1      44.904 -22.066  30.570  1.00  0.00     0.037 C
HETATM   21  C14 UNL     1      45.244 -20.785  29.814  1.00  0.00     0.013 C
HETATM   22  C15 UNL     1      46.404 -20.089  30.420  1.00  0.00     0.032 C
HETATM   23  C16 UNL     1      47.464 -21.095  30.932  1.00  0.00     0.121 C
HETATM   24  C24 UNL     1      46.845 -21.943  32.029  1.00  0.00     0.032 C
HETATM   25  C25 UNL     1      45.329 -21.862  31.995  1.00  0.00     0.013 C
BRANCH  23  26
HETATM   26  O3  UNL     1      47.787 -21.865  29.913  1.00  0.00    -0.386 OA
BRANCH  26  27
HETATM   27  C17 UNL     1      48.553 -21.597  28.862  1.00  0.00     0.168 C
BRANCH  27  28
HETATM   28  C18 UNL     1      48.113 -21.831  27.468  1.00  0.00     0.031 C
BRANCH  28  29
HETATM   29  C19 UNL     1      46.707 -22.186  27.264  1.00  0.00    -0.009 C
HETATM   30  C20 UNL     1      46.451 -23.687  27.039  1.00  0.00     0.031 C
HETATM   31  C21 UNL     1      44.918 -23.812  27.082  1.00  0.00     0.168 C
HETATM   32  O4  UNL     1      44.411 -23.177  25.955  1.00  0.00    -0.391 OA
HETATM   33  C22 UNL     1      44.676 -21.807  25.971  1.00  0.00     0.168 C
HETATM   34  C23 UNL     1      46.170 -21.562  25.938  1.00  0.00     0.031 C
ENDBRANCH  28  29
ENDBRANCH  27  28
ENDBRANCH  26  27
ENDBRANCH  23  26
ENDBRANCH   9  20
BRANCH   1  35
HETATM   35  C2  UNL     1      37.651 -18.781  26.400  1.00  0.00     0.200 C
HETATM   36  C1  UNL     1      37.790 -19.190  24.928  1.00  0.00     0.053 C
BRANCH  35  37
HETATM   37  N1  UNL     1      37.615 -17.511  26.607  1.00  0.00    -0.405 NA
HETATM   38  C3  UNL     1      37.538 -16.043  26.677  1.00  0.00     0.297 C
HETATM   39  O1  UNL     1      37.245 -15.352  25.732  1.00  0.00    -0.257 OA
BRANCH  38  40
HETATM   40  C4  UNL     1      37.849 -15.380  27.982  1.00  0.00     0.180 C
HETATM   41  C5  UNL     1      37.076 -14.111  28.179  1.00  0.00     0.295 C
HETATM   42  N2  UNL     1      36.346 -14.715  29.253  1.00  0.00     0.114 N
HETATM   43  C6  UNL     1      34.965 -14.999  29.044  1.00  0.00     0.313 C
HETATM   44  C7  UNL     1      37.183 -15.878  29.198  1.00  0.00     0.372 C
BRANCH  44  45
HETATM   45  O2  UNL     1      38.024 -15.995  30.328  1.00  0.00    -0.367 OA
ATOM     46  H2  UNL     1      37.907 -16.794  30.830  1.00  0.00     0.212 HD
ENDBRANCH  44  45
ENDBRANCH  38  40
ENDBRANCH  35  37
ENDBRANCH   1  35
TORSDOF 9
ENDMDL