MODEL 3
REMARK VINA RESULT: -6.761956296      4.760      8.568
REMARK  14 active torsions:
REMARK  status: ('A' for Active; 'I' for Inactive)
REMARK    1  A    between atoms: S1_2  and  C2_3
REMARK    2  A    between atoms: C2_3  and  C3_4
REMARK    3  A    between atoms: C3_4  and  C4_5
REMARK    4  A    between atoms: C3_4  and  C6_12
REMARK       I    between atoms: C4_5  and  N1_7
REMARK    5  A    between atoms: N1_7  and  O2_8
REMARK    6  A    between atoms: N1_7  and  C5_10
REMARK    7  A    between atoms: C12_18  and  C13_19
REMARK    8  A    between atoms: C13_19  and  C14_20
REMARK    9  A    between atoms: C15_21  and  C16_22
REMARK   10  A    between atoms: C16_22  and  O4_24
REMARK   11  A    between atoms: C16_22  and  C18_26
REMARK   12  A    between atoms: C18_26  and  O6_28
REMARK   13  A    between atoms: O6_28  and  C19_29
REMARK   14  A    between atoms: C20_30  and  O7_31
ROOT
HETATM    1  C13 UNL     1      39.556 -19.189  25.809  1.00  0.00     0.032 C
ENDROOT
BRANCH   1   2
HETATM    2  C12 UNL     1      38.080 -19.293  26.143  1.00  0.00     0.001 C
HETATM    3  C6  UNL     1      37.369 -18.018  25.843  1.00  0.00     0.026 C
HETATM    4  C7  UNL     1      37.036 -17.915  24.370  1.00  0.00    -0.025 C
HETATM    5  C8  UNL     1      36.365 -18.951  23.877  1.00  0.00    -0.030 C
HETATM    6  C9  UNL     1      36.070 -20.028  24.887  1.00  0.00     0.031 C
HETATM    7  C10 UNL     1      37.419 -20.431  25.434  1.00  0.00    -0.010 C
HETATM    8  C11 UNL     1      37.192 -21.631  26.328  1.00  0.00     0.010 C
BRANCH   3   9
HETATM    9  C3  UNL     1      38.118 -16.774  26.256  1.00  0.00     0.098 C
BRANCH   9  10
HETATM   10  C2  UNL     1      38.363 -15.913  25.006  1.00  0.00     0.088 C
BRANCH  10  11
HETATM   11  S1  UNL     1      40.146 -15.635  24.779  1.00  0.00    -0.173 SA
HETATM   12  C1  UNL     1      40.645 -16.564  23.303  1.00  0.00     0.089 C
ENDBRANCH  10  11
ENDBRANCH   9  10
BRANCH   9  13
HETATM   13  C4  UNL     1      37.277 -15.922  27.137  1.00  0.00     0.255 C
HETATM   14  O1  UNL     1      36.559 -15.017  26.650  1.00  0.00    -0.270 OA
HETATM   15  N1  UNL     1      37.264 -16.106  28.543  1.00  0.00    -0.164 N
BRANCH  15  16
HETATM   16  O2  UNL     1      36.480 -15.250  29.281  1.00  0.00    -0.278 OA
ATOM     17  H2  UNL     1      35.932 -15.636  29.954  1.00  0.00     0.245 HD
ENDBRANCH  15  16
BRANCH  15  18
HETATM   18  C5  UNL     1      37.998 -17.118  29.215  1.00  0.00     0.385 C
HETATM   19  O3  UNL     1      38.025 -17.162  30.468  1.00  0.00    -0.281 OA
ENDBRANCH  15  18
ENDBRANCH   9  13
ENDBRANCH   3   9
ENDBRANCH   1   2
BRANCH   1  20
HETATM   20  C14 UNL     1      40.338 -19.737  26.938  1.00  0.00    -0.027 C
HETATM   21  C15 UNL     1      39.836 -20.024  28.132  1.00  0.00     0.016 C
BRANCH  21  22
HETATM   22  C16 UNL     1      40.623 -20.568  29.247  1.00  0.00     0.159 C
HETATM   23  C17 UNL     1      42.104 -20.458  28.891  1.00  0.00     0.061 C
BRANCH  22  24
HETATM   24  O4  UNL     1      40.418 -19.891  30.445  1.00  0.00    -0.376 OA
ATOM     25  H4  UNL     1      41.097 -19.256  30.637  1.00  0.00     0.211 HD
ENDBRANCH  22  24
BRANCH  22  26
HETATM   26  C18 UNL     1      40.327 -22.021  29.381  1.00  0.00     0.297 C
HETATM   27  O5  UNL     1      39.133 -22.372  29.215  1.00  0.00    -0.261 OA
BRANCH  26  28
HETATM   28  O6  UNL     1      41.262 -22.976  29.667  1.00  0.00    -0.310 OA
BRANCH  28  29
HETATM   29  C19 UNL     1      41.671 -23.977  28.745  1.00  0.00     0.170 C
HETATM   30  C20 UNL     1      43.092 -24.418  29.110  1.00  0.00     0.163 C
HETATM   31  C21 UNL     1      42.646 -25.853  29.059  1.00  0.00     0.099 C
HETATM   32 BR1  UNL     1      43.209 -26.693  27.429  1.00  0.00    -0.087 Br
HETATM   33  C22 UNL     1      41.216 -25.363  29.062  1.00  0.00    -0.003 C
HETATM   34  C23 UNL     1      40.580 -25.542  30.428  1.00  0.00     0.019 C
HETATM   35  C24 UNL     1      40.412 -26.070  28.017  1.00  0.00     0.019 C
BRANCH  30  36
HETATM   36  O7  UNL     1      43.481 -24.069  30.394  1.00  0.00    -0.392 OA
ATOM     37  H7  UNL     1      43.098 -24.608  31.076  1.00  0.00     0.210 HD
ENDBRANCH  30  36
ENDBRANCH  28  29
ENDBRANCH  26  28
ENDBRANCH  22  26
ENDBRANCH  21  22
ENDBRANCH   1  20
TORSDOF 14
ENDMDL