MODEL 5
REMARK VINA RESULT: -8.664365944      2.609      3.404
REMARK  12 active torsions:
REMARK  status: ('A' for Active; 'I' for Inactive)
REMARK    1  A    between atoms: C7_7  and  O1_8
REMARK    2  A    between atoms: N1_11  and  C9_12
REMARK    3  A    between atoms: C16_20  and  C17_21
REMARK    4  A    between atoms: C17_21  and  C18_22
REMARK    5  A    between atoms: C19_24  and  C20_25
REMARK    6  A    between atoms: C22_27  and  C23_28
REMARK    7  A    between atoms: C23_28  and  O4_29
REMARK    8  A    between atoms: C23_28  and  C26_33
REMARK    9  A    between atoms: O4_29  and  C24_30
REMARK   10  A    between atoms: C24_30  and  C25_31
REMARK   11  A    between atoms: C26_33  and  O5_34
REMARK   12  A    between atoms: N2_36  and  O6_38
ROOT
HETATM    1  C9  UNL     1      38.416 -22.669  25.366  1.00  0.00     0.038 A
HETATM    2  C10 UNL     1      39.219 -21.999  24.497  1.00  0.00     0.032 A
HETATM    3  C11 UNL     1      40.194 -21.159  24.989  1.00  0.00     0.040 A
HETATM    4  C12 UNL     1      40.416 -20.947  26.340  1.00  0.00     0.084 A
HETATM    5  C13 UNL     1      39.591 -21.636  27.203  1.00  0.00     0.048 A
HETATM    6  C14 UNL     1      38.606 -22.483  26.740  1.00  0.00     0.048 A
HETATM    7  C15 UNL     1      40.034 -21.233  28.533  1.00  0.00     0.196 C
HETATM    8  O2  UNL     1      39.772 -21.788  29.618  1.00  0.00    -0.289 OA
HETATM    9  C16 UNL     1      40.870 -20.017  28.352  1.00  0.00     0.239 C
HETATM   10  O7  UNL     1      41.326 -20.160  27.031  1.00  0.00    -0.332 OA
ENDROOT
BRANCH   9  11
HETATM   11  C17 UNL     1      39.895 -18.852  28.351  1.00  0.00     0.015 C
HETATM   12  C19 UNL     1      39.710 -18.168  27.257  1.00  0.00     0.019 C
BRANCH  11  13
HETATM   13  C18 UNL     1      39.212 -18.557  29.589  1.00  0.00     0.268 C
HETATM   14  O3  UNL     1      39.709 -18.623  30.720  1.00  0.00    -0.302 OA
ENDBRANCH  11  13
BRANCH  12  15
HETATM   15  C20 UNL     1      38.780 -17.025  27.179  1.00  0.00     0.212 C
HETATM   16  C21 UNL     1      39.085 -16.139  26.010  1.00  0.00     0.073 C
HETATM   17  C22 UNL     1      37.871 -16.659  25.274  1.00  0.00     0.225 C
HETATM   18  N3  UNL     1      37.520 -17.367  26.504  1.00  0.00    -0.060 N
ATOM     19  H32 UNL     1      37.258 -18.351  26.438  1.00  0.00     0.278 HD
ATOM     20  H31 UNL     1      36.643 -17.130  26.965  1.00  0.00     0.278 HD
BRANCH  17  21
HETATM   21  C23 UNL     1      38.128 -17.659  24.196  1.00  0.00     0.228 C
BRANCH  21  22
HETATM   22  O4  UNL     1      36.950 -17.998  23.510  1.00  0.00    -0.373 OA
BRANCH  22  23
HETATM   23  C24 UNL     1      36.689 -19.344  23.552  1.00  0.00     0.200 C
BRANCH  23  24
HETATM   24  C25 UNL     1      35.826 -19.796  22.405  1.00  0.00     0.248 C
HETATM   25  F1  UNL     1      34.563 -20.149  22.899  1.00  0.00    -0.253 F
ENDBRANCH  23  24
ENDBRANCH  22  23
ENDBRANCH  21  22
BRANCH  21  26
HETATM   26  C26 UNL     1      39.214 -17.327  23.272  1.00  0.00     0.167 C
HETATM   27  N2  UNL     1      39.115 -16.551  22.305  1.00  0.00    -0.249 N
ATOM     28  H2  UNL     1      39.991 -16.460  21.792  1.00  0.00     0.196 HD
BRANCH  26  29
HETATM   29  O5  UNL     1      40.450 -17.943  23.513  1.00  0.00    -0.346 OA
ATOM     30  H5  UNL     1      40.686 -18.659  22.936  1.00  0.00     0.219 HD
ENDBRANCH  26  29
BRANCH  27  31
HETATM   31  O6  UNL     1      38.144 -15.812  21.779  1.00  0.00    -0.288 OA
ATOM     32  H6  UNL     1      38.100 -15.096  21.157  1.00  0.00     0.244 HD
ENDBRANCH  27  31
ENDBRANCH  21  26
ENDBRANCH  17  21
ENDBRANCH  12  15
ENDBRANCH   9  11
BRANCH   1  33
HETATM   33  N1  UNL     1      37.398 -23.543  24.917  1.00  0.00    -0.315 N
HETATM   34  C8  UNL     1      36.094 -23.001  24.674  1.00  0.00     0.164 C
HETATM   35  C7  UNL     1      35.386 -23.899  23.675  1.00  0.00     0.141 C
HETATM   36  C6  UNL     1      35.197 -25.296  24.225  1.00  0.00     0.029 C
HETATM   37  C5  UNL     1      34.615 -26.135  23.117  1.00  0.00     0.008 C
HETATM   38  C28 UNL     1      36.452 -25.840  24.819  1.00  0.00     0.088 C
HETATM   39  C4  UNL     1      34.413 -27.541  23.579  1.00  0.00     0.001 C
HETATM   40  C3  UNL     1      35.537 -28.068  24.430  1.00  0.00     0.005 C
HETATM   41  C2  UNL     1      36.782 -27.236  24.339  1.00  0.00    -0.005 C
HETATM   42  C1  UNL     1      37.400 -27.277  22.985  1.00  0.00     0.011 C
HETATM   43  C27 UNL     1      37.614 -24.930  24.696  1.00  0.00     0.229 C
HETATM   44  O8  UNL     1      38.787 -25.314  24.407  1.00  0.00    -0.273 OA
BRANCH  35  45
HETATM   45  O1  UNL     1      34.161 -23.292  23.399  1.00  0.00    -0.394 OA
ATOM     46  H1  UNL     1      34.167 -22.875  22.545  1.00  0.00     0.210 HD
ENDBRANCH  35  45
ENDBRANCH   1  33
TORSDOF 12
ENDMDL