MODEL 2
REMARK VINA RESULT: -8.714271360      2.007      2.798
REMARK  9 active torsions:
REMARK  status: ('A' for Active; 'I' for Inactive)
REMARK    1  A    between atoms: C4_4  and  N1_5
REMARK       I    between atoms: N1_5  and  C5_7
REMARK    2  A    between atoms: C5_7  and  C6_9
REMARK    3  A    between atoms: N2_13  and  C9_14
REMARK    4  A    between atoms: C9_14  and  C14_31
REMARK    5  A    between atoms: C10_15  and  N3_16
REMARK    6  A    between atoms: N3_16  and  C11_18
REMARK    7  A    between atoms: C11_18  and  C12_22
REMARK    8  A    between atoms: C13_25  and  N6_26
REMARK    9  A    between atoms: C20_37  and  C21_38
ROOT
HETATM    1  C6  UNL     1      37.185 -20.194  24.610  1.00  0.00     0.090 C
HETATM    2  C7  UNL     1      37.792 -20.655  23.269  1.00  0.00     0.138 C
HETATM    3  S1  UNL     1      36.906 -19.460  22.219  1.00  0.00    -0.143 SA
HETATM    4  C8  UNL     1      36.049 -18.569  23.583  1.00  0.00     0.203 C
HETATM    5  N2  UNL     1      36.930 -18.903  24.688  1.00  0.00    -0.338 N
ENDROOT
BRANCH   1   6
HETATM    6  C5  UNL     1      37.396 -21.148  25.687  1.00  0.00     0.265 C
HETATM    7  N1  UNL     1      38.665 -21.623  26.082  1.00  0.00    -0.347 N
ATOM      8  H1  UNL     1      39.483 -21.280  25.580  1.00  0.00     0.163 HD
HETATM    9  O1  UNL     1      36.403 -21.581  26.324  1.00  0.00    -0.266 OA
BRANCH   7  10
HETATM   10  C4  UNL     1      38.874 -22.564  27.153  1.00  0.00     0.119 C
HETATM   11  C3  UNL     1      39.297 -23.887  26.602  1.00  0.00     0.039 C
HETATM   12  C2  UNL     1      40.776 -24.023  26.883  1.00  0.00     0.020 C
HETATM   13  C1  UNL     1      41.583 -23.832  25.609  1.00  0.00     0.015 C
HETATM   14  C27 UNL     1      41.072 -22.990  27.884  1.00  0.00    -0.006 A
HETATM   15  C17 UNL     1      39.992 -22.159  28.039  1.00  0.00    -0.026 A
HETATM   16  C26 UNL     1      42.259 -22.804  28.625  1.00  0.00     0.134 A
HETATM   17  C18 UNL     1      40.124 -21.143  28.948  1.00  0.00     0.011 A
HETATM   18  C19 UNL     1      41.268 -20.939  29.681  1.00  0.00     0.016 A
HETATM   19  C20 UNL     1      42.379 -21.787  29.528  1.00  0.00     0.009 A
HETATM   20  F1  UNL     1      43.280 -23.653  28.435  1.00  0.00    -0.205 F
BRANCH  19  21
HETATM   21  C21 UNL     1      43.542 -21.492  30.365  1.00  0.00    -0.045 C
HETATM   22  C22 UNL     1      43.749 -21.946  31.569  1.00  0.00     0.007 C
HETATM   23  C23 UNL     1      44.958 -21.622  32.405  1.00  0.00     0.195 C
HETATM   24  O3  UNL     1      46.005 -21.383  31.499  1.00  0.00    -0.387 OA
HETATM   25  C24 UNL     1      45.623 -20.229  30.810  1.00  0.00     0.172 C
HETATM   26  C25 UNL     1      44.594 -20.569  29.801  1.00  0.00     0.065 C
ENDBRANCH  19  21
ENDBRANCH   7  10
ENDBRANCH   1   6
BRANCH   5  27
HETATM   27  C9  UNL     1      37.550 -17.733  25.239  1.00  0.00     0.031 C
HETATM   28  C10 UNL     1      37.525 -17.724  26.678  1.00  0.00     0.115 C
BRANCH  28  29
HETATM   29  N3  UNL     1      38.055 -16.756  27.523  1.00  0.00    -0.347 N
ATOM     30  H3  UNL     1      38.935 -16.359  27.196  1.00  0.00     0.167 HD
BRANCH  29  31
HETATM   31  C11 UNL     1      37.603 -16.220  28.750  1.00  0.00     0.152 C
HETATM   32  N4  UNL     1      38.123 -16.614  29.857  1.00  0.00    -0.382 N
ATOM     33  H42 UNL     1      38.881 -17.297  29.853  1.00  0.00     0.157 HD
ATOM     34  H41 UNL     1      37.797 -16.226  30.742  1.00  0.00     0.157 HD
BRANCH  31  35
HETATM   35  C12 UNL     1      36.516 -15.239  28.756  1.00  0.00     0.202 A
HETATM   36  N5  UNL     1      35.378 -15.464  29.365  1.00  0.00    -0.312 N
HETATM   37  C13 UNL     1      34.445 -14.526  29.324  1.00  0.00     0.168 A
ATOM     38  H5  UNL     1      35.215 -16.342  29.859  1.00  0.00     0.170 HD
HETATM   39  S2  UNL     1      35.216 -13.319  28.404  1.00  0.00     0.075 SA
HETATM   40  O2  UNL     1      36.654 -14.095  28.144  1.00  0.00    -0.249 OA
BRANCH  37  41
HETATM   41  N6  UNL     1      33.249 -14.504  29.836  1.00  0.00    -0.378 N
ATOM     42  H62 UNL     1      32.397 -14.119  29.429  1.00  0.00     0.158 HD
ATOM     43  H61 UNL     1      32.906 -14.860  30.729  1.00  0.00     0.158 HD
ENDBRANCH  37  41
ENDBRANCH  31  35
ENDBRANCH  29  31
ENDBRANCH  28  29
BRANCH  27  44
HETATM   44  C14 UNL     1      38.635 -17.172  24.396  1.00  0.00     0.029 C
HETATM   45  C15 UNL     1      38.874 -15.684  24.460  1.00  0.00     0.016 C
HETATM   46  C16 UNL     1      40.010 -17.760  24.707  1.00  0.00     0.016 C
ENDBRANCH  27  44
ENDBRANCH   5  27
TORSDOF 9
ENDMDL