MODEL 1
REMARK VINA RESULT: -7.511813317      0.000      0.000
REMARK  14 active torsions:
REMARK  status: ('A' for Active; 'I' for Inactive)
REMARK    1  A    between atoms: C5_8  and  C6_9
REMARK    2  A    between atoms: C6_9  and  O1_10
REMARK    3  A    between atoms: C6_9  and  C7_12
REMARK    4  A    between atoms: C7_12  and  N2_13
REMARK    5  A    between atoms: N2_13  and  C8_15
REMARK    6  A    between atoms: N3_23  and  C14_24
REMARK    7  A    between atoms: C14_24  and  C15_25
REMARK    8  A    between atoms: C15_25  and  O3_26
REMARK    9  A    between atoms: O3_26  and  C16_27
REMARK   10  A    between atoms: C16_27  and  N4_28
REMARK   11  A    between atoms: C16_27  and  C17_32
REMARK   12  A    between atoms: C17_32  and  N5_34
REMARK   13  A    between atoms: C19_36  and  N6_37
REMARK   14  A    between atoms: C19_36  and  C24_43
ROOT
HETATM    1  C1  UNL     1      35.100 -20.340  22.813  1.00  0.00     0.068 C
HETATM    2  C2  UNL     1      35.938 -19.741  23.897  1.00  0.00     0.011 A
HETATM    3  C3  UNL     1      36.416 -18.443  23.703  1.00  0.00     0.054 A
HETATM    4  C4  UNL     1      37.185 -17.848  24.661  1.00  0.00     0.039 A
HETATM    5  N1  UNL     1      37.645 -16.644  24.510  1.00  0.00    -0.398 N
ATOM      6  H11 UNL     1      38.219 -16.198  25.226  1.00  0.00     0.156 HD
ATOM      7  H12 UNL     1      37.395 -16.178  23.638  1.00  0.00     0.156 HD
HETATM    8  C5  UNL     1      37.531 -18.494  25.871  1.00  0.00     0.037 A
HETATM    9  C13 UNL     1      37.035 -19.753  26.000  1.00  0.00     0.117 A
HETATM   10 CL1  UNL     1      37.385 -20.703  27.457  1.00  0.00    -0.064 Cl
HETATM   11  N3  UNL     1      36.260 -20.354  25.035  1.00  0.00    -0.339 N
ENDROOT
BRANCH  11  12
HETATM   12  C14 UNL     1      35.790 -21.689  25.281  1.00  0.00     0.156 C
BRANCH  12  13
HETATM   13  C15 UNL     1      36.688 -22.773  24.748  1.00  0.00     0.190 C
BRANCH  13  14
HETATM   14  O3  UNL     1      36.951 -23.797  25.616  1.00  0.00    -0.356 OA
BRANCH  14  15
HETATM   15  C16 UNL     1      38.314 -23.659  26.001  1.00  0.00     0.340 C
BRANCH  15  16
HETATM   16  N4  UNL     1      39.149 -23.581  24.839  1.00  0.00    -0.051 N
ATOM     17  H43 UNL     1      38.750 -24.087  24.049  1.00  0.00     0.277 HD
ATOM     18  H42 UNL     1      39.150 -22.646  24.432  1.00  0.00     0.277 HD
ATOM     19  H41 UNL     1      40.091 -23.903  25.062  1.00  0.00     0.277 HD
ENDBRANCH  15  16
BRANCH  15  20
HETATM   20  C17 UNL     1      38.732 -24.873  26.813  1.00  0.00     0.135 C
HETATM   21  C18 UNL     1      39.049 -26.034  25.849  1.00  0.00     0.036 C
BRANCH  20  22
HETATM   22  N5  UNL     1      39.745 -24.730  27.708  1.00  0.00    -0.371 N
HETATM   23  C19 UNL     1      40.568 -24.150  28.373  1.00  0.00     0.083 C
ATOM     24  H5  UNL     1      39.908 -25.698  27.985  1.00  0.00     0.161 HD
BRANCH  23  25
HETATM   25  N6  UNL     1      40.890 -22.764  28.475  1.00  0.00    -0.366 N
HETATM   26  C20 UNL     1      41.498 -22.095  27.353  1.00  0.00     0.150 C
HETATM   27  C21 UNL     1      42.281 -20.922  27.958  1.00  0.00     0.187 C
HETATM   28  O4  UNL     1      41.315 -20.014  28.387  1.00  0.00    -0.388 OA
HETATM   29  C22 UNL     1      40.419 -20.518  29.293  1.00  0.00     0.187 C
HETATM   30  C23 UNL     1      40.635 -21.967  29.655  1.00  0.00     0.150 C
ENDBRANCH  23  25
BRANCH  23  31
HETATM   31  C24 UNL     1      41.455 -25.016  29.272  1.00  0.00     0.007 C
HETATM   32  C25 UNL     1      41.733 -26.350  28.583  1.00  0.00     0.022 C
HETATM   33  C26 UNL     1      40.755 -25.254  30.583  1.00  0.00     0.022 C
HETATM   34  C27 UNL     1      42.769 -24.340  29.537  1.00  0.00     0.022 C
ENDBRANCH  23  31
ENDBRANCH  20  22
ENDBRANCH  15  20
ENDBRANCH  14  15
ENDBRANCH  13  14
ENDBRANCH  12  13
ENDBRANCH  11  12
BRANCH   8  35
HETATM   35  C6  UNL     1      38.363 -17.728  26.805  1.00  0.00     0.174 C
BRANCH  35  36
HETATM   36  O1  UNL     1      39.670 -18.260  26.676  1.00  0.00    -0.389 OA
ATOM     37  H1  UNL     1      40.115 -17.697  26.053  1.00  0.00     0.210 HD
ENDBRANCH  35  36
BRANCH  35  38
HETATM   38  C7  UNL     1      37.935 -17.563  28.195  1.00  0.00     0.150 C
BRANCH  38  39
HETATM   39  N2  UNL     1      36.609 -16.991  28.343  1.00  0.00    -0.414 N
ATOM     40  H2  UNL     1      35.781 -17.461  27.977  1.00  0.00     0.153 HD
BRANCH  39  41
HETATM   41  C8  UNL     1      36.519 -15.754  29.019  1.00  0.00     0.080 C
HETATM   42  C9  UNL     1      35.154 -15.105  28.926  1.00  0.00     0.051 C
HETATM   43  C10 UNL     1      35.366 -13.607  28.873  1.00  0.00     0.169 C
HETATM   44  O2  UNL     1      35.851 -13.193  27.636  1.00  0.00    -0.391 OA
HETATM   45  C11 UNL     1      36.632 -14.230  27.102  1.00  0.00     0.169 C
HETATM   46  C12 UNL     1      37.446 -14.788  28.238  1.00  0.00     0.051 C
ENDBRANCH  39  41
ENDBRANCH  38  39
ENDBRANCH  35  38
ENDBRANCH   8  35
TORSDOF 14
ENDMDL