MODEL 5
REMARK VINA RESULT: -7.458535614      2.515      9.138
REMARK  14 active torsions:
REMARK  status: ('A' for Active; 'I' for Inactive)
REMARK    1  A    between atoms: C2_2  and  N1_4
REMARK    2  A    between atoms: C4_6  and  N2_7
REMARK    3  A    between atoms: C4_6  and  S1_34
REMARK    4  A    between atoms: N2_7  and  C5_9
REMARK    5  A    between atoms: C5_9  and  C6_11
REMARK    6  A    between atoms: C6_11  and  O1_12
REMARK    7  A    between atoms: C6_11  and  C7_14
REMARK    8  A    between atoms: C7_14  and  N3_15
REMARK    9  A    between atoms: C7_14  and  C14_28
REMARK       I    between atoms: N3_15  and  C8_17
REMARK       I    between atoms: C8_17  and  N4_19
REMARK   10  A    between atoms: N4_19  and  C9_21
REMARK   11  A    between atoms: C14_28  and  C15_30
REMARK   12  A    between atoms: S1_34  and  O6_37
REMARK   13  A    between atoms: O6_37  and  C19_38
REMARK   14  A    between atoms: C19_38  and  C20_39
ROOT
HETATM    1  C6  UNL     1      41.683 -22.053  30.432  1.00  0.00     0.202 C
ENDROOT
BRANCH   1   2
HETATM    2  C5  UNL     1      40.924 -20.869  29.876  1.00  0.00     0.302 C
HETATM    3  F1  UNL     1      41.665 -20.186  28.946  1.00  0.00    -0.224 F
BRANCH   2   4
HETATM    4  N2  UNL     1      39.661 -21.204  29.293  1.00  0.00    -0.333 N
ATOM      5  H2  UNL     1      39.257 -22.098  29.575  1.00  0.00     0.164 HD
BRANCH   4   6
HETATM    6  C4  UNL     1      38.912 -20.444  28.378  1.00  0.00     0.225 C
HETATM    7  N1  UNL     1      38.285 -21.030  27.436  1.00  0.00    -0.361 N
ATOM      8  H1  UNL     1      38.373 -22.046  27.414  1.00  0.00     0.162 HD
BRANCH   7   9
HETATM    9  C2  UNL     1      37.477 -20.460  26.413  1.00  0.00     0.075 C
HETATM   10  C1  UNL     1      36.268 -21.318  26.106  1.00  0.00     0.032 C
HETATM   11  C3  UNL     1      38.288 -20.378  25.131  1.00  0.00     0.032 C
ENDBRANCH   7   9
BRANCH   6  12
HETATM   12  S1  UNL     1      38.855 -18.713  28.540  1.00  0.00     0.330 S
HETATM   13  O4  UNL     1      39.738 -18.044  27.493  1.00  0.00    -0.190 OA
HETATM   14  O5  UNL     1      39.305 -18.196  29.847  1.00  0.00    -0.190 OA
BRANCH  12  15
HETATM   15  O6  UNL     1      37.280 -18.143  28.251  1.00  0.00    -0.269 OA
BRANCH  15  16
HETATM   16  C19 UNL     1      37.331 -16.941  27.548  1.00  0.00     0.195 C
BRANCH  16  17
HETATM   17  C20 UNL     1      37.061 -15.761  28.456  1.00  0.00     0.011 C
HETATM   18  C21 UNL     1      35.594 -15.755  28.784  1.00  0.00     0.007 C
HETATM   19  C22 UNL     1      35.070 -14.416  29.218  1.00  0.00     0.000 C
HETATM   20  C23 UNL     1      35.550 -13.284  28.346  1.00  0.00     0.000 C
HETATM   21  C24 UNL     1      36.402 -13.778  27.197  1.00  0.00     0.000 C
HETATM   22  C25 UNL     1      37.572 -14.519  27.812  1.00  0.00     0.007 C
ENDBRANCH  16  17
ENDBRANCH  15  16
ENDBRANCH  12  15
ENDBRANCH   6  12
ENDBRANCH   4   6
ENDBRANCH   2   4
ENDBRANCH   1   2
BRANCH   1  23
HETATM   23  O1  UNL     1      42.335 -21.589  31.620  1.00  0.00    -0.388 OA
ATOM     24  H1  UNL     1      42.576 -22.366  32.112  1.00  0.00     0.210 HD
ENDBRANCH   1  23
BRANCH   1  25
HETATM   25  C7  UNL     1      42.817 -22.502  29.555  1.00  0.00     0.190 C
BRANCH  25  26
HETATM   26  N3  UNL     1      42.553 -23.882  29.158  1.00  0.00    -0.329 N
HETATM   27  C8  UNL     1      41.760 -24.194  27.979  1.00  0.00     0.321 C
HETATM   28  O2  UNL     1      41.352 -23.181  27.374  1.00  0.00    -0.247 OA
HETATM   29  N4  UNL     1      41.540 -25.532  27.648  1.00  0.00    -0.308 N
ATOM     30  H4  UNL     1      41.939 -26.244  28.260  1.00  0.00     0.170 HD
ATOM     31  H3  UNL     1      42.933 -24.644  29.720  1.00  0.00     0.165 HD
BRANCH  29  32
HETATM   32  C9  UNL     1      40.798 -25.970  26.518  1.00  0.00     0.051 A
HETATM   33  C10 UNL     1      41.519 -26.403  25.383  1.00  0.00     0.032 A
HETATM   34  C11 UNL     1      40.859 -26.814  24.265  1.00  0.00     0.019 A
HETATM   35  C12 UNL     1      39.485 -26.814  24.226  1.00  0.00     0.088 A
HETATM   36  N5  UNL     1      38.821 -26.402  25.309  1.00  0.00    -0.373 N
HETATM   37  C13 UNL     1      39.433 -25.978  26.455  1.00  0.00     0.117 A
ATOM     38  H5  UNL     1      37.802 -26.403  25.278  1.00  0.00     0.164 HD
ENDBRANCH  29  32
ENDBRANCH  25  26
BRANCH  25  39
HETATM   39  C14 UNL     1      44.167 -22.305  30.054  1.00  0.00     0.159 C
HETATM   40  O3  UNL     1      44.532 -23.078  30.961  1.00  0.00    -0.295 OA
BRANCH  39  41
HETATM   41  C15 UNL     1      45.160 -21.314  29.622  1.00  0.00     0.012 C
HETATM   42  C16 UNL     1      46.548 -21.934  29.463  1.00  0.00     0.022 C
HETATM   43  C17 UNL     1      45.285 -20.071  30.421  1.00  0.00     0.022 C
HETATM   44  C18 UNL     1      44.764 -20.847  28.199  1.00  0.00     0.022 C
ENDBRANCH  39  41
ENDBRANCH  25  39
ENDBRANCH   1  25
TORSDOF 14
ENDMDL