MODEL 1
REMARK VINA RESULT: -8.885930491      0.000      0.000
REMARK  12 active torsions:
REMARK  status: ('A' for Active; 'I' for Inactive)
REMARK    1  A    between atoms: C3_3  and  C4_4
REMARK    2  A    between atoms: C7_8  and  N1_9
REMARK    3  A    between atoms: N1_9  and  C8_10
REMARK    4  A    between atoms: N3_13  and  C9_14
REMARK    5  A    between atoms: C12_17  and  N4_18
REMARK    6  A    between atoms: N4_18  and  C13_21
REMARK    7  A    between atoms: C13_21  and  C14_22
REMARK    8  A    between atoms: C14_22  and  O1_23
REMARK    9  A    between atoms: C20_30  and  C21_31
REMARK       I    between atoms: C21_31  and  N6_33
REMARK   10  A    between atoms: N6_33  and  C22_35
REMARK   11  A    between atoms: C25_38  and  N7_40
REMARK   12  A    between atoms: C29_46  and  O3_47
ROOT
HETATM    1  C1  UNL     1      34.520 -29.084  22.613  1.00  0.00     0.112 C
HETATM    2  C2  UNL     1      35.073 -27.911  23.279  1.00  0.00    -0.105 C
HETATM    3  C3  UNL     1      35.533 -26.960  23.818  1.00  0.00    -0.061 C
ENDROOT
BRANCH   3   4
HETATM    4  C4  UNL     1      36.118 -25.813  24.477  1.00  0.00     0.089 A
HETATM    5  C5  UNL     1      37.332 -25.911  25.091  1.00  0.00     0.141 A
HETATM    6  F1  UNL     1      38.005 -27.101  25.072  1.00  0.00    -0.204 F
HETATM    7  C6  UNL     1      37.818 -24.795  25.702  1.00  0.00     0.088 A
HETATM    8  C7  UNL     1      37.177 -23.577  25.749  1.00  0.00     0.115 A
HETATM    9  C28 UNL     1      35.920 -23.533  25.095  1.00  0.00     0.083 A
HETATM   10  C29 UNL     1      35.408 -24.625  24.476  1.00  0.00     0.093 A
BRANCH   8  11
HETATM   11  N1  UNL     1      37.628 -22.525  26.339  1.00  0.00    -0.385 NA
BRANCH  11  12
HETATM   12  C8  UNL     1      38.064 -21.542  26.891  1.00  0.00     0.211 A
HETATM   13  N2  UNL     1      37.701 -20.222  26.679  1.00  0.00    -0.271 N
HETATM   14  N3  UNL     1      38.340 -19.422  27.470  1.00  0.00    -0.294 N
ATOM     15  H2  UNL     1      37.017 -19.919  25.987  1.00  0.00     0.190 HD
HETATM   16  C19 UNL     1      39.157 -20.114  28.252  1.00  0.00     0.132 A
HETATM   17  C20 UNL     1      39.009 -21.453  27.914  1.00  0.00     0.108 A
BRANCH  14  18
HETATM   18  C9  UNL     1      38.201 -17.974  27.477  1.00  0.00     0.125 C
HETATM   19  C10 UNL     1      37.953 -17.495  28.901  1.00  0.00     0.030 C
HETATM   20  C11 UNL     1      37.732 -16.028  29.002  1.00  0.00     0.035 C
HETATM   21  C12 UNL     1      36.978 -15.386  27.894  1.00  0.00     0.187 C
HETATM   22  C16 UNL     1      37.262 -15.972  26.541  1.00  0.00     0.054 C
HETATM   23  C17 UNL     1      37.051 -17.499  26.654  1.00  0.00     0.119 C
HETATM   24  C18 UNL     1      37.014 -18.115  25.365  1.00  0.00     0.066 C
HETATM   25  N5  UNL     1      36.962 -18.596  24.306  1.00  0.00    -0.197 NA
BRANCH  21  26
HETATM   26  N4  UNL     1      37.239 -13.972  27.866  1.00  0.00    -0.069 N
ATOM     27  H42 UNL     1      37.762 -13.658  28.683  1.00  0.00     0.277 HD
ATOM     28  H41 UNL     1      37.922 -13.717  27.153  1.00  0.00     0.277 HD
BRANCH  26  29
HETATM   29  C13 UNL     1      35.964 -13.252  27.706  1.00  0.00     0.258 C
BRANCH  29  30
HETATM   30  C14 UNL     1      35.186 -13.336  28.976  1.00  0.00     0.194 C
BRANCH  30  31
HETATM   31  O1  UNL     1      34.037 -14.078  28.849  1.00  0.00    -0.394 OA
HETATM   32  C15 UNL     1      33.559 -14.463  30.079  1.00  0.00     0.201 C
ENDBRANCH  30  31
ENDBRANCH  29  30
ENDBRANCH  26  29
ENDBRANCH  21  26
ENDBRANCH  14  18
BRANCH  17  33
HETATM   33  C21 UNL     1      39.783 -22.509  28.554  1.00  0.00     0.258 C
HETATM   34  O2  UNL     1      39.991 -22.476  29.775  1.00  0.00    -0.267 OA
HETATM   35  N6  UNL     1      40.297 -23.579  27.784  1.00  0.00    -0.352 N
ATOM     36  H6  UNL     1      40.132 -23.615  26.778  1.00  0.00     0.163 HD
BRANCH  35  37
HETATM   37  C22 UNL     1      41.073 -24.643  28.450  1.00  0.00     0.087 C
HETATM   38  C23 UNL     1      40.109 -25.783  28.768  1.00  0.00     0.028 C
HETATM   39  C24 UNL     1      40.945 -27.022  28.698  1.00  0.00     0.040 C
HETATM   40  C25 UNL     1      41.854 -26.716  27.522  1.00  0.00     0.122 C
HETATM   41  C26 UNL     1      41.198 -27.057  26.209  1.00  0.00     0.046 C
HETATM   42  C27 UNL     1      42.113 -25.224  27.575  1.00  0.00     0.063 C
BRANCH  40  43
HETATM   43  N7  UNL     1      43.110 -27.399  27.655  1.00  0.00    -0.071 N
ATOM     44  H73 UNL     1      43.143 -27.968  28.500  1.00  0.00     0.275 HD
ATOM     45  H72 UNL     1      43.210 -28.142  26.964  1.00  0.00     0.275 HD
ATOM     46  H71 UNL     1      43.888 -26.740  27.614  1.00  0.00     0.275 HD
ENDBRANCH  40  43
ENDBRANCH  35  37
ENDBRANCH  17  33
ENDBRANCH  11  12
ENDBRANCH   8  11
BRANCH  10  47
HETATM   47  O3  UNL     1      34.169 -24.616  23.818  1.00  0.00    -0.354 OA
HETATM   48  C30 UNL     1      33.971 -23.700  22.764  1.00  0.00     0.210 C
ENDBRANCH  10  47
ENDBRANCH   3   4
TORSDOF 12
ENDMDL