MODEL 1
REMARK VINA RESULT: -7.526257145      0.000      0.000
REMARK  12 active torsions:
REMARK  status: ('A' for Active; 'I' for Inactive)
REMARK    1  A    between atoms: C2_2  and  N1_4
REMARK    2  A    between atoms: N1_4  and  C4_6
REMARK    3  A    between atoms: C6_10  and  C7_11
REMARK    4  A    between atoms: C7_11  and  C8_12
REMARK    5  A    between atoms: C8_12  and  N3_13
REMARK    6  A    between atoms: N3_13  and  C9_15
REMARK    7  A    between atoms: C9_15  and  C10_16
REMARK    8  A    between atoms: C13_19  and  C14_20
REMARK    9  A    between atoms: C14_20  and  N4_21
REMARK   10  A    between atoms: N4_21  and  C15_23
REMARK   11  A    between atoms: C18_29  and  N7_30
REMARK   12  A    between atoms: N7_30  and  C19_32
ROOT
HETATM    1  C14 UNL     1      38.450 -25.988  24.891  1.00  0.00     0.126 C
ENDROOT
BRANCH   1   2
HETATM    2  C13 UNL     1      37.561 -26.379  23.677  1.00  0.00     0.003 C
HETATM    3  C12 UNL     1      37.844 -25.371  22.635  1.00  0.00     0.007 C
HETATM    4  C11 UNL     1      36.721 -25.076  21.660  1.00  0.00     0.007 C
HETATM    5  C10 UNL     1      35.456 -24.943  22.496  1.00  0.00     0.003 C
HETATM    6  C27 UNL     1      35.112 -26.254  23.129  1.00  0.00     0.007 C
HETATM    7  C26 UNL     1      36.185 -26.504  24.206  1.00  0.00     0.007 C
BRANCH   5   8
HETATM    8  C9  UNL     1      34.358 -24.213  21.872  1.00  0.00     0.118 C
BRANCH   8   9
HETATM    9  N3  UNL     1      33.801 -23.054  22.458  1.00  0.00    -0.420 N
ATOM     10  H3  UNL     1      32.792 -22.909  22.474  1.00  0.00     0.153 HD
BRANCH   9  11
HETATM   11  C8  UNL     1      34.690 -22.090  23.026  1.00  0.00     0.119 C
BRANCH  11  12
HETATM   12  C7  UNL     1      35.559 -21.436  22.011  1.00  0.00     0.067 C
BRANCH  12  13
HETATM   13  C6  UNL     1      36.054 -20.111  22.458  1.00  0.00     0.003 A
HETATM   14  C5  UNL     1      35.413 -18.972  22.851  1.00  0.00     0.105 A
HETATM   15  N2  UNL     1      36.120 -17.940  23.194  1.00  0.00    -0.346 N
HETATM   16  C4  UNL     1      37.448 -18.026  23.151  1.00  0.00     0.145 A
ATOM     17  H2  UNL     1      35.666 -17.077  23.493  1.00  0.00     0.167 HD
HETATM   18  S1  UNL     1      37.713 -19.619  22.609  1.00  0.00    -0.057 SA
BRANCH  16  19
HETATM   19  N1  UNL     1      38.315 -17.086  23.463  1.00  0.00    -0.367 N
ATOM     20  H1  UNL     1      38.026 -16.119  23.617  1.00  0.00     0.162 HD
BRANCH  19  21
HETATM   21  C2  UNL     1      39.691 -17.493  23.575  1.00  0.00     0.075 C
HETATM   22  C1  UNL     1      40.611 -16.490  22.893  1.00  0.00     0.032 C
HETATM   23  C3  UNL     1      40.065 -17.706  25.007  1.00  0.00     0.032 C
ENDBRANCH  19  21
ENDBRANCH  16  19
ENDBRANCH  12  13
ENDBRANCH  11  12
ENDBRANCH   9  11
ENDBRANCH   8   9
ENDBRANCH   5   8
ENDBRANCH   1   2
BRANCH   1  24
HETATM   24  N4  UNL     1      37.681 -25.221  25.821  1.00  0.00    -0.376 N
ATOM     25  H4  UNL     1      36.927 -25.713  26.301  1.00  0.00     0.161 HD
BRANCH  24  26
HETATM   26  C15 UNL     1      37.835 -23.986  26.118  1.00  0.00     0.118 A
HETATM   27  C16 UNL     1      39.010 -23.620  26.773  1.00  0.00     0.068 A
HETATM   28  C17 UNL     1      39.243 -22.313  27.130  1.00  0.00     0.139 A
HETATM   29  N5  UNL     1      38.332 -21.338  26.855  1.00  0.00    -0.083 N
HETATM   30  N6  UNL     1      38.309 -20.044  27.090  1.00  0.00    -0.111 N
HETATM   31  C25 UNL     1      37.219 -21.719  26.227  1.00  0.00     0.719 A
HETATM   32  C18 UNL     1      37.128 -19.523  26.600  1.00  0.00     0.708 A
ATOM     33  H6  UNL     1      39.044 -19.513  27.557  1.00  0.00     0.207 HD
HETATM   34  N9  UNL     1      36.490 -20.572  26.082  1.00  0.00    -0.019 N
ATOM     35  H9  UNL     1      35.575 -20.525  25.634  1.00  0.00     0.203 HD
HETATM   36  N10 UNL     1      36.956 -23.004  25.859  1.00  0.00    -0.175 N
ATOM     37  H10 UNL     1      36.082 -23.223  25.380  1.00  0.00     0.186 HD
BRANCH  32  38
HETATM   38  N7  UNL     1      36.884 -18.308  26.721  1.00  0.00    -0.220 N
ATOM     39  H7  UNL     1      36.157 -18.049  26.053  1.00  0.00     0.178 HD
BRANCH  38  40
HETATM   40  C19 UNL     1      37.246 -17.197  27.433  1.00  0.00     0.102 C
HETATM   41  C20 UNL     1      36.634 -16.903  28.757  1.00  0.00     0.056 C
HETATM   42  C21 UNL     1      35.894 -15.578  28.776  1.00  0.00     0.274 C
HETATM   43  N8  UNL     1      36.790 -14.472  28.496  1.00  0.00     0.084 N
HETATM   44  C22 UNL     1      36.027 -13.429  27.853  1.00  0.00     0.309 C
HETATM   45  C23 UNL     1      37.848 -14.858  27.582  1.00  0.00     0.274 C
HETATM   46  C24 UNL     1      37.215 -15.886  26.637  1.00  0.00     0.056 C
ENDBRANCH  38  40
ENDBRANCH  32  38
ENDBRANCH  24  26
ENDBRANCH   1  24
TORSDOF 12
ENDMDL