MODEL 3
REMARK VINA RESULT: -6.796008837      2.755      5.563
REMARK  14 active torsions:
REMARK  status: ('A' for Active; 'I' for Inactive)
REMARK    1  A    between atoms: C6_7  and  C7_8
REMARK    2  A    between atoms: C7_8  and  O2_9
REMARK    3  A    between atoms: C10_13  and  C11_14
REMARK    4  A    between atoms: C11_14  and  O3_15
REMARK    5  A    between atoms: C15_20  and  C16_21
REMARK    6  A    between atoms: C18_24  and  C19_25
REMARK    7  A    between atoms: C19_25  and  O6_27
REMARK    8  A    between atoms: C21_29  and  C22_30
REMARK    9  A    between atoms: C23_31  and  C24_32
REMARK   10  A    between atoms: C24_32  and  N1_33
REMARK   11  A    between atoms: C24_32  and  C25_37
REMARK   12  A    between atoms: C25_37  and  C26_38
REMARK   13  A    between atoms: C26_38  and  O7_39
REMARK   14  A    between atoms: C26_38  and  C27_41
ROOT
HETATM    1  C1  UNL     1      38.461 -23.950  25.960  1.00  0.00     0.015 C
HETATM    2  C2  UNL     1      38.052 -22.807  25.464  1.00  0.00    -0.080 C
HETATM    3  C3  UNL     1      36.652 -22.703  24.998  1.00  0.00     0.041 C
HETATM    4  C4  UNL     1      36.179 -21.278  25.277  1.00  0.00     0.084 C
HETATM    5  C5  UNL     1      37.069 -20.825  26.373  1.00  0.00     0.143 C
HETATM    6  O1  UNL     1      36.654 -20.773  27.512  1.00  0.00    -0.297 OA
HETATM    7  C6  UNL     1      38.502 -20.421  26.136  1.00  0.00     0.078 C
HETATM    8  C8  UNL     1      39.016 -21.634  25.379  1.00  0.00     0.059 C
HETATM    9  C9  UNL     1      39.201 -21.319  23.956  1.00  0.00    -0.011 C
HETATM   10  C10 UNL     1      40.260 -20.936  23.283  1.00  0.00    -0.059 C
HETATM   11  C12 UNL     1      41.605 -20.726  23.860  1.00  0.00     0.040 C
HETATM   12  C13 UNL     1      42.211 -21.937  24.499  1.00  0.00     0.034 C
HETATM   13  C14 UNL     1      43.125 -21.618  25.600  1.00  0.00     0.006 C
HETATM   14  C15 UNL     1      42.854 -21.091  26.824  1.00  0.00     0.044 C
HETATM   15  O4  UNL     1      41.604 -20.806  27.126  1.00  0.00    -0.336 OA
HETATM   16  C18 UNL     1      40.582 -20.212  27.744  1.00  0.00     0.258 C
HETATM   17  C21 UNL     1      39.196 -20.079  27.389  1.00  0.00    -0.022 C
ENDROOT
BRANCH  17  18
HETATM   18  C22 UNL     1      38.620 -18.826  27.954  1.00  0.00     0.005 C
HETATM   19  C23 UNL     1      39.139 -17.647  28.129  1.00  0.00     0.006 C
BRANCH  19  20
HETATM   20  C24 UNL     1      38.338 -16.502  28.735  1.00  0.00     0.208 C
BRANCH  20  21
HETATM   21  N1  UNL     1      37.999 -16.916  30.087  1.00  0.00    -0.072 N
ATOM     22  H13 UNL     1      36.995 -16.956  30.260  1.00  0.00     0.275 HD
ATOM     23  H12 UNL     1      38.197 -17.900  30.272  1.00  0.00     0.275 HD
ATOM     24  H11 UNL     1      38.493 -16.279  30.712  1.00  0.00     0.275 HD
ENDBRANCH  20  21
BRANCH  20  25
HETATM   25  C25 UNL     1      37.093 -16.289  27.919  1.00  0.00     0.069 C
BRANCH  25  26
HETATM   26  C26 UNL     1      37.369 -15.266  26.861  1.00  0.00     0.130 C
BRANCH  26  27
HETATM   27  O7  UNL     1      36.998 -15.774  25.629  1.00  0.00    -0.395 OA
ATOM     28  H7  UNL     1      36.570 -15.091  25.125  1.00  0.00     0.210 HD
ENDBRANCH  26  27
BRANCH  26  29
HETATM   29  C27 UNL     1      36.619 -13.985  27.160  1.00  0.00     0.116 C
HETATM   30 BR1  UNL     1      35.430 -14.299  28.658  1.00  0.00    -0.094 Br
ENDBRANCH  26  29
ENDBRANCH  25  26
ENDBRANCH  20  25
ENDBRANCH  19  20
ENDBRANCH  17  18
BRANCH   7  31
HETATM   31  C7  UNL     1      38.397 -19.291  25.154  1.00  0.00     0.187 C
BRANCH  31  32
HETATM   32  O2  UNL     1      37.215 -18.562  25.186  1.00  0.00    -0.399 OA
ATOM     33  H2  UNL     1      37.146 -17.909  25.872  1.00  0.00     0.209 HD
ENDBRANCH  31  32
ENDBRANCH   7  31
BRANCH  16  34
HETATM   34  C19 UNL     1      40.590 -20.790  29.168  1.00  0.00     0.292 C
HETATM   35  O5  UNL     1      41.419 -20.335  29.981  1.00  0.00    -0.262 OA
BRANCH  34  36
HETATM   36  O6  UNL     1      39.758 -21.767  29.610  1.00  0.00    -0.324 OA
HETATM   37  C20 UNL     1      40.105 -23.120  29.403  1.00  0.00     0.213 C
ENDBRANCH  34  36
ENDBRANCH  16  34
BRANCH  14  38
HETATM   38  C16 UNL     1      44.137 -20.924  27.660  1.00  0.00     0.060 C
HETATM   39  C17 UNL     1      45.373 -21.106  26.781  1.00  0.00     0.012 C
ENDBRANCH  14  38
BRANCH  10  40
HETATM   40  C11 UNL     1      40.214 -20.667  21.812  1.00  0.00     0.198 C
BRANCH  40  41
HETATM   41  O3  UNL     1      39.484 -19.491  21.621  1.00  0.00    -0.397 OA
ATOM     42  H3  UNL     1      39.764 -19.111  20.796  1.00  0.00     0.209 HD
ENDBRANCH  40  41
ENDBRANCH  10  40
TORSDOF 14
ENDMDL