MODEL 3
REMARK VINA RESULT: -7.995088032      2.209      5.409
REMARK  5 active torsions:
REMARK  status: ('A' for Active; 'I' for Inactive)
REMARK    1  A    between atoms: C3_3  and  N1_4
REMARK    2  A    between atoms: N1_4  and  C4_6
REMARK    3  A    between atoms: C4_6  and  C5_7
REMARK    4  A    between atoms: C10_17  and  O1_18
REMARK    5  A    between atoms: O1_18  and  C11_19
ROOT
HETATM    1  C1  UNL     1      -4.000  -0.707  11.853  1.00  0.00     0.095 A
HETATM    2  C2  UNL     1      -3.018  -0.302  11.012  1.00  0.00     0.065 A
HETATM    3  C3  UNL     1      -2.438   0.914  11.199  1.00  0.00     0.105 A
HETATM    4  N3  UNL     1      -2.856   1.688  12.219  1.00  0.00    -0.308 N
ATOM      5  H3  UNL     1      -2.417   2.599  12.352  1.00  0.00     0.171 HD
HETATM    6  C10 UNL     1      -3.840   1.307  13.078  1.00  0.00     0.225 A
HETATM    7  N4  UNL     1      -4.369   0.100  12.842  1.00  0.00    -0.332 N
ATOM      8  H4  UNL     1      -5.109  -0.223  13.465  1.00  0.00     0.168 HD
ENDROOT
BRANCH   6   9
HETATM    9  O1  UNL     1      -4.169   2.168  14.060  1.00  0.00    -0.310 OA
BRANCH   9  10
HETATM   10  C11 UNL     1      -4.436   3.521  14.088  1.00  0.00     0.072 C
HETATM   11  C12 UNL     1      -4.464   4.059  12.700  1.00  0.00     0.043 C
HETATM   12  C13 UNL     1      -4.966   5.454  12.544  1.00  0.00    -0.011 C
HETATM   13  C14 UNL     1      -3.938   6.522  12.640  1.00  0.00     0.005 C
HETATM   14  C19 UNL     1      -6.127   5.797  13.454  1.00  0.00     0.009 C
HETATM   15  C15 UNL     1      -2.918   6.385  13.688  1.00  0.00     0.005 C
HETATM   16  C16 UNL     1      -3.346   5.643  14.923  1.00  0.00    -0.011 C
HETATM   17  C17 UNL     1      -4.682   6.109  15.459  1.00  0.00     0.009 C
HETATM   18  C21 UNL     1      -3.233   4.162  14.795  1.00  0.00     0.043 C
HETATM   19  C18 UNL     1      -5.835   5.379  14.869  1.00  0.00    -0.011 C
HETATM   20  C20 UNL     1      -5.675   3.881  14.876  1.00  0.00     0.043 C
ENDBRANCH   9  10
ENDBRANCH   6   9
BRANCH   3  21
HETATM   21  N1  UNL     1      -1.505   1.309  10.406  1.00  0.00    -0.376 N
ATOM     22  H1  UNL     1      -0.861   0.631   9.999  1.00  0.00     0.161 HD
BRANCH  21  23
HETATM   23  C4  UNL     1      -1.370   2.693  10.097  1.00  0.00     0.126 C
BRANCH  23  24
HETATM   24  C5  UNL     1      -0.199   3.354  10.758  1.00  0.00     0.006 C
HETATM   25  C6  UNL     1       0.796   3.910   9.789  1.00  0.00     0.034 C
HETATM   26  C7  UNL     1       2.035   4.318  10.556  1.00  0.00     0.232 C
HETATM   27  N2  UNL     1       1.749   5.054  11.748  1.00  0.00    -0.075 N
HETATM   28  C8  UNL     1       0.389   5.555  11.786  1.00  0.00     0.232 C
ATOM     29  H22 UNL     1       1.958   4.500  12.578  1.00  0.00     0.277 HD
ATOM     30  H21 UNL     1       2.420   5.811  11.880  1.00  0.00     0.277 HD
HETATM   31  C9  UNL     1      -0.620   4.429  11.709  1.00  0.00     0.034 C
ENDBRANCH  23  24
ENDBRANCH  21  23
ENDBRANCH   3  21
TORSDOF 5
ENDMDL