MODEL 2
REMARK VINA RESULT: -7.930011100      2.552      5.417
REMARK  5 active torsions:
REMARK  status: ('A' for Active; 'I' for Inactive)
REMARK    1  A    between atoms: C13_16  and  N2_17
REMARK    2  A    between atoms: N2_17  and  O1_18
REMARK    3  A    between atoms: O1_18  and  C14_19
REMARK    4  A    between atoms: C14_19  and  C15_20
REMARK       I    between atoms: C15_20  and  N3_22
REMARK    5  A    between atoms: N3_22  and  C16_24
ROOT
HETATM    1  C1  UNL     1      -2.927  -1.941  11.338  1.00  0.00     0.010 C
HETATM    2  C2  UNL     1      -3.836  -0.791  11.640  1.00  0.00    -0.014 C
HETATM    3  C3  UNL     1      -4.502  -0.260  10.361  1.00  0.00     0.005 C
HETATM    4  C4  UNL     1      -4.911   1.167  10.751  1.00  0.00     0.006 C
HETATM    5  C5  UNL     1      -4.098   1.486  11.938  1.00  0.00    -0.000 C
HETATM    6  C6  UNL     1      -3.049   0.446  12.073  1.00  0.00    -0.006 C
HETATM    7  C7  UNL     1      -1.867   0.632  11.178  1.00  0.00     0.006 C
HETATM    8  C8  UNL     1      -1.859   1.882  10.384  1.00  0.00     0.012 C
HETATM    9  C9  UNL     1      -2.321   3.099  11.103  1.00  0.00    -0.006 C
HETATM   10  C10 UNL     1      -1.188   3.823  11.802  1.00  0.00     0.018 C
HETATM   11  C11 UNL     1      -3.188   4.009  10.263  1.00  0.00     0.206 C
HETATM   12  N1  UNL     1      -2.761   5.370  10.237  1.00  0.00    -0.063 N
ATOM     13  H11 UNL     1      -2.499   5.683   9.303  1.00  0.00     0.278 HD
ATOM     14  H12 UNL     1      -1.856   5.509  10.686  1.00  0.00     0.278 HD
HETATM   15  C12 UNL     1      -3.792   6.163  10.816  1.00  0.00     0.303 C
HETATM   16  C13 UNL     1      -4.523   5.273  11.806  1.00  0.00     0.127 C
HETATM   17  C19 UNL     1      -4.318   3.920  11.264  1.00  0.00     0.091 C
HETATM   18  C20 UNL     1      -3.539   2.912  11.995  1.00  0.00    -0.019 C
HETATM   19  C21 UNL     1      -3.168   3.188  13.437  1.00  0.00     0.017 C
ENDROOT
BRANCH  16  20
HETATM   20  N2  UNL     1      -5.164   5.625  12.729  1.00  0.00    -0.288 NA
BRANCH  20  21
HETATM   21  O1  UNL     1      -6.003   5.866  13.675  1.00  0.00    -0.200 OA
BRANCH  21  22
HETATM   22  C14 UNL     1      -5.616   5.347  15.030  1.00  0.00     0.320 C
BRANCH  22  23
HETATM   23  C15 UNL     1      -6.001   3.923  15.076  1.00  0.00     0.245 C
HETATM   24  O2  UNL     1      -6.714   3.539  14.099  1.00  0.00    -0.271 OA
HETATM   25  N3  UNL     1      -5.643   3.073  16.108  1.00  0.00    -0.355 N
ATOM     26  H3  UNL     1      -5.030   3.432  16.841  1.00  0.00     0.162 HD
BRANCH  25  27
HETATM   27  C16 UNL     1      -6.096   1.696  16.199  1.00  0.00     0.084 A
HETATM   28  C17 UNL     1      -5.987   1.049  17.574  1.00  0.00     0.027 A
HETATM   29  C18 UNL     1      -7.316   1.408  16.973  1.00  0.00     0.027 A
ENDBRANCH  25  27
ENDBRANCH  22  23
ENDBRANCH  21  22
ENDBRANCH  20  21
ENDBRANCH  16  20
TORSDOF 5
ENDMDL