MODEL 4
REMARK VINA RESULT: -7.736347347      0.942      1.393
REMARK  5 active torsions:
REMARK  status: ('A' for Active; 'I' for Inactive)
REMARK    1  A    between atoms: C8_9  and  N1_10
REMARK       I    between atoms: N1_10  and  C9_12
REMARK    2  A    between atoms: C9_12  and  O2_14
REMARK    3  A    between atoms: O2_14  and  C10_15
REMARK    4  A    between atoms: C10_15  and  C12_17
REMARK       I    between atoms: C12_17  and  N2_19
REMARK    5  A    between atoms: N2_19  and  C13_21
ROOT
HETATM    1  C1  UNL     1       3.729   3.832   8.456  1.00  0.00     0.012 C
HETATM    2  C2  UNL     1       2.762   3.935   9.180  1.00  0.00    -0.110 C
HETATM    3  C3  UNL     1       1.610   4.056  10.074  1.00  0.00     0.088 C
HETATM    4  C4  UNL     1       1.694   5.358  10.799  1.00  0.00     0.029 C
HETATM    5  C5  UNL     1       2.002   6.524   9.884  1.00  0.00     0.075 C
HETATM    6  S1  UNL     1       1.281   6.282   8.243  1.00  0.00    -0.163 SA
HETATM    7  C6  UNL     1       0.125   4.896   8.217  1.00  0.00     0.067 C
HETATM    8  C7  UNL     1       0.174   4.168   6.876  1.00  0.00     0.023 C
HETATM    9  C8  UNL     1       0.318   3.932   9.341  1.00  0.00     0.115 C
ENDROOT
BRANCH   9  10
HETATM   10  N1  UNL     1      -0.776   4.088  10.263  1.00  0.00    -0.330 N
HETATM   11  C9  UNL     1      -1.789   3.101  10.431  1.00  0.00     0.361 C
HETATM   12  O1  UNL     1      -1.759   2.022   9.752  1.00  0.00    -0.238 OA
ATOM     13  H1  UNL     1      -0.828   4.940  10.820  1.00  0.00     0.165 HD
BRANCH  11  14
HETATM   14  O2  UNL     1      -2.834   3.252  11.314  1.00  0.00    -0.289 OA
BRANCH  14  15
HETATM   15  C10 UNL     1      -3.564   2.189  11.883  1.00  0.00     0.221 C
HETATM   16  C11 UNL     1      -4.852   2.069  11.100  1.00  0.00     0.050 C
BRANCH  15  17
HETATM   17  C12 UNL     1      -3.786   2.458  13.321  1.00  0.00     0.247 C
HETATM   18  O3  UNL     1      -2.896   3.089  13.942  1.00  0.00    -0.271 OA
HETATM   19  N2  UNL     1      -4.936   2.047  14.037  1.00  0.00    -0.354 N
ATOM     20  H2  UNL     1      -5.653   1.532  13.524  1.00  0.00     0.162 HD
BRANCH  19  21
HETATM   21  C13 UNL     1      -5.166   2.298  15.422  1.00  0.00     0.084 C
HETATM   22  C14 UNL     1      -4.891   1.112  16.263  1.00  0.00     0.025 C
HETATM   23  C15 UNL     1      -5.853   0.824  17.354  1.00  0.00     0.002 C
HETATM   24  C16 UNL     1      -6.537   1.980  17.981  1.00  0.00     0.000 C
HETATM   25  C17 UNL     1      -6.495   3.250  17.174  1.00  0.00     0.002 C
HETATM   26  C18 UNL     1      -6.562   2.802  15.707  1.00  0.00     0.025 C
ENDBRANCH  19  21
ENDBRANCH  15  17
ENDBRANCH  14  15
ENDBRANCH  11  14
ENDBRANCH   9  10
TORSDOF 5
ENDMDL