MODEL 2
REMARK VINA RESULT: -6.768688315      4.768      8.346
REMARK  6 active torsions:
REMARK  status: ('A' for Active; 'I' for Inactive)
REMARK    1  A    between atoms: C3_3  and  C4_4
REMARK    2  A    between atoms: C5_5  and  C6_6
REMARK    3  A    between atoms: C6_6  and  N1_7
REMARK    4  A    between atoms: C12_18  and  N4_19
REMARK    5  A    between atoms: N4_19  and  C13_21
REMARK    6  A    between atoms: C13_21  and  C16_24
ROOT
HETATM    1  C1  UNL     1      -3.108   6.439   6.136  1.00  0.00     0.112 C
HETATM    2  C2  UNL     1      -2.663   5.647   7.284  1.00  0.00    -0.105 C
HETATM    3  C3  UNL     1      -2.289   4.981   8.218  1.00  0.00    -0.064 C
ENDROOT
BRANCH   3   4
HETATM    4  C4  UNL     1      -1.844   4.169   9.314  1.00  0.00     0.057 A
HETATM    5  C5  UNL     1      -0.553   3.671   9.546  1.00  0.00     0.059 A
HETATM    6  N2  UNL     1      -0.582   2.972  10.669  1.00  0.00    -0.342 N
HETATM    7  C11 UNL     1      -1.846   2.995  11.180  1.00  0.00     0.134 A
ATOM      8  H2  UNL     1       0.215   2.492  11.086  1.00  0.00     0.167 HD
HETATM    9  N3  UNL     1      -2.414   2.466  12.266  1.00  0.00    -0.176 N
HETATM   10  C19 UNL     1      -2.637   3.740  10.339  1.00  0.00     0.045 A
HETATM   11  C12 UNL     1      -3.715   2.625  12.576  1.00  0.00     0.680 A
ATOM     12  H3  UNL     1      -1.832   1.911  12.894  1.00  0.00     0.186 HD
HETATM   13  N5  UNL     1      -4.475   3.350  11.754  1.00  0.00    -0.201 N
HETATM   14  C18 UNL     1      -3.961   3.922  10.622  1.00  0.00     0.123 A
ATOM     15  H5  UNL     1      -5.463   3.481  11.974  1.00  0.00     0.183 HD
BRANCH   5  16
HETATM   16  C6  UNL     1       0.549   3.967   8.615  1.00  0.00     0.331 C
BRANCH  16  17
HETATM   17  N1  UNL     1       1.830   4.114   9.258  1.00  0.00     0.098 N
HETATM   18  C7  UNL     1       2.915   3.707   8.465  1.00  0.00     0.299 C
HETATM   19  C8  UNL     1       3.871   4.776   8.037  1.00  0.00     0.198 C
HETATM   20  O1  UNL     1       3.799   5.955   8.713  1.00  0.00    -0.388 OA
HETATM   21  C9  UNL     1       2.502   6.384   8.967  1.00  0.00     0.198 C
HETATM   22  C10 UNL     1       1.903   5.367   9.920  1.00  0.00     0.299 C
ENDBRANCH  16  17
ENDBRANCH   5  16
BRANCH  11  23
HETATM   23  N4  UNL     1      -4.150   2.086  13.620  1.00  0.00    -0.217 N
ATOM     24  H4  UNL     1      -4.440   1.115  13.506  1.00  0.00     0.178 HD
BRANCH  23  25
HETATM   25  C13 UNL     1      -4.309   2.602  14.946  1.00  0.00     0.039 C
HETATM   26  C14 UNL     1      -3.503   3.854  15.207  1.00  0.00     0.038 C
HETATM   27  C15 UNL     1      -3.907   1.533  15.933  1.00  0.00     0.038 C
BRANCH  25  28
HETATM   28  C16 UNL     1      -5.795   2.918  15.101  1.00  0.00     0.026 C
HETATM   29  C17 UNL     1      -6.063   4.379  15.235  1.00  0.00     0.007 C
ENDBRANCH  25  28
ENDBRANCH  23  25
ENDBRANCH  11  23
ENDBRANCH   3   4
TORSDOF 6
ENDMDL