MODEL 1
REMARK VINA RESULT: -8.069425863      0.000      0.000
REMARK  5 active torsions:
REMARK  status: ('A' for Active; 'I' for Inactive)
REMARK    1  A    between atoms: C6_7  and  O2_8
REMARK    2  A    between atoms: C8_11  and  C9_12
REMARK    3  A    between atoms: C9_12  and  N1_13
REMARK    4  A    between atoms: N1_13  and  C10_16
REMARK    5  A    between atoms: N2_19  and  C13_20
ROOT
HETATM    1  C1  UNL     1       2.235   6.700   8.776  1.00  0.00     0.020 C
HETATM    2  C2  UNL     1       1.836   5.324   9.165  1.00  0.00     0.004 A
HETATM    3  C3  UNL     1       2.923   4.327   8.811  1.00  0.00     0.179 A
HETATM    4  O1  UNL     1       2.938   3.944  10.144  1.00  0.00    -0.384 OA
HETATM    5  C4  UNL     1       2.032   4.912  10.593  1.00  0.00     0.138 A
HETATM    6  C5  UNL     1       0.747   4.222  10.984  1.00  0.00     0.048 C
HETATM    7  C6  UNL     1      -0.245   5.101  11.651  1.00  0.00     0.125 C
HETATM    8  C7  UNL     1      -1.491   4.303  11.891  1.00  0.00     0.038 C
HETATM    9  C8  UNL     1      -2.012   3.549  10.720  1.00  0.00     0.014 C
HETATM   10  C19 UNL     1      -1.102   3.121   9.667  1.00  0.00     0.011 C
HETATM   11  C20 UNL     1       0.285   3.658   9.672  1.00  0.00    -0.004 C
HETATM   12  C21 UNL     1       0.504   4.820   8.718  1.00  0.00     0.019 C
ENDROOT
BRANCH   9  13
HETATM   13  C9  UNL     1      -2.741   2.337  11.308  1.00  0.00     0.237 C
BRANCH  13  14
HETATM   14  N1  UNL     1      -4.178   2.475  11.230  1.00  0.00    -0.069 N
ATOM     15  H12 UNL     1      -4.467   3.413  10.953  1.00  0.00     0.277 HD
ATOM     16  H11 UNL     1      -4.578   1.968  10.441  1.00  0.00     0.277 HD
BRANCH  14  17
HETATM   17  C10 UNL     1      -4.743   2.071  12.494  1.00  0.00     0.215 C
HETATM   18  C11 UNL     1      -4.391   0.595  12.779  1.00  0.00     0.065 C
HETATM   19  C12 UNL     1      -4.140   0.512  14.268  1.00  0.00     0.275 C
HETATM   20  N2  UNL     1      -4.360   1.817  14.776  1.00  0.00     0.095 N
HETATM   21  C18 UNL     1      -4.248   2.759  13.708  1.00  0.00     0.305 C
BRANCH  20  22
HETATM   22  C13 UNL     1      -5.493   2.004  15.588  1.00  0.00     0.223 C
HETATM   23  C14 UNL     1      -5.775   3.453  15.935  1.00  0.00     0.036 C
HETATM   24  C15 UNL     1      -6.938   3.258  16.922  1.00  0.00     0.002 C
HETATM   25  C16 UNL     1      -6.272   2.237  17.859  1.00  0.00     0.002 C
HETATM   26  C17 UNL     1      -5.393   1.389  16.959  1.00  0.00     0.036 C
ENDBRANCH  20  22
ENDBRANCH  14  17
ENDBRANCH  13  14
ENDBRANCH   9  13
BRANCH   7  27
HETATM   27  O2  UNL     1      -0.475   6.315  11.058  1.00  0.00    -0.395 OA
ATOM     28  H2  UNL     1      -0.189   6.403  10.157  1.00  0.00     0.210 HD
ENDBRANCH   7  27
TORSDOF 5
ENDMDL