MODEL 5
REMARK VINA RESULT: -7.363957881      3.156      7.166
REMARK  5 active torsions:
REMARK  status: ('A' for Active; 'I' for Inactive)
REMARK    1  A    between atoms: C3_7  and  N3_8
REMARK    2  A    between atoms: C4_10  and  C5_11
REMARK    3  A    between atoms: C5_11  and  C6_12
REMARK    4  A    between atoms: C6_12  and  N4_13
REMARK    5  A    between atoms: C12_20  and  C13_21
ROOT
HETATM    1  C1  UNL     1      -1.760   0.495  11.098  1.00  0.00     0.165 C
HETATM    2  N1  UNL     1      -2.212   1.828  11.192  1.00  0.00    -0.230 N
ATOM      3  H1  UNL     1      -1.874   2.484  10.488  1.00  0.00     0.177 HD
HETATM    4  C2  UNL     1      -3.002   2.286  12.076  1.00  0.00     0.679 A
HETATM    5  N2  UNL     1      -3.286   3.617  11.948  1.00  0.00    -0.175 N
ATOM      6  H2  UNL     1      -2.893   4.172  11.188  1.00  0.00     0.186 HD
HETATM    7  C3  UNL     1      -4.099   4.164  12.859  1.00  0.00     0.140 A
HETATM    8  C11 UNL     1      -4.614   3.333  13.898  1.00  0.00     0.077 A
HETATM    9  S1  UNL     1      -5.651   3.628  15.226  1.00  0.00    -0.088 SA
HETATM   10  C12 UNL     1      -5.686   2.059  15.891  1.00  0.00    -0.007 A
HETATM   11  C17 UNL     1      -4.879   1.348  15.045  1.00  0.00     0.047 A
HETATM   12  C18 UNL     1      -4.324   2.021  14.008  1.00  0.00     0.071 A
HETATM   13  N5  UNL     1      -3.484   1.512  13.045  1.00  0.00    -0.190 N
ATOM     14  H5  UNL     1      -3.225   0.525  13.074  1.00  0.00     0.184 HD
ENDROOT
BRANCH   7  15
HETATM   15  N3  UNL     1      -4.485   5.335  12.920  1.00  0.00    -0.354 N
HETATM   16  C4  UNL     1      -4.006   6.574  13.235  1.00  0.00     0.064 C
ATOM     17  H3  UNL     1      -5.468   5.395  12.653  1.00  0.00     0.166 HD
BRANCH  16  18
HETATM   18  C5  UNL     1      -3.169   6.797  14.467  1.00  0.00     0.074 C
BRANCH  18  19
HETATM   19  C6  UNL     1      -1.752   7.131  14.160  1.00  0.00     0.277 C
BRANCH  19  20
HETATM   20  N4  UNL     1      -1.548   8.507  13.782  1.00  0.00     0.088 N
HETATM   21  C7  UNL     1      -0.274   8.722  13.133  1.00  0.00     0.272 C
HETATM   22  C8  UNL     1       0.581   9.555  14.022  1.00  0.00     0.032 C
HETATM   23  C9  UNL     1      -0.275   9.949  15.196  1.00  0.00     0.032 C
HETATM   24  C10 UNL     1      -1.660   9.459  14.830  1.00  0.00     0.272 C
ENDBRANCH  19  20
ENDBRANCH  18  19
ENDBRANCH  16  18
ENDBRANCH   7  15
BRANCH  10  25
HETATM   25  C13 UNL     1      -6.411   1.538  17.110  1.00  0.00    -0.018 C
HETATM   26  C14 UNL     1      -5.880   0.192  17.482  1.00  0.00     0.020 C
HETATM   27  C15 UNL     1      -6.245   2.506  18.226  1.00  0.00     0.020 C
HETATM   28  C16 UNL     1      -7.865   1.405  16.700  1.00  0.00     0.020 C
ENDBRANCH  10  25
TORSDOF 5
ENDMDL