MODEL 4
REMARK VINA RESULT: -7.408685098      3.157      6.029
REMARK  6 active torsions:
REMARK  status: ('A' for Active; 'I' for Inactive)
REMARK    1  A    between atoms: N1_6  and  C6_7
REMARK    2  A    between atoms: C6_7  and  C7_8
REMARK    3  A    between atoms: C7_8  and  O1_9
REMARK    4  A    between atoms: N2_15  and  C12_16
REMARK    5  A    between atoms: C12_16  and  C13_17
REMARK    6  A    between atoms: C21_25  and  O2_26
ROOT
HETATM    1  C1  UNL     1      -2.347   8.272  14.595  1.00  0.00     0.014 C
HETATM    2  C2  UNL     1      -2.612   6.975  14.516  1.00  0.00    -0.086 C
HETATM    3  C3  UNL     1      -1.559   6.055  14.061  1.00  0.00     0.041 C
HETATM    4  C4  UNL     1      -1.958   4.665  13.843  1.00  0.00     0.039 C
HETATM    5  C5  UNL     1      -3.188   4.215  14.614  1.00  0.00     0.263 C
HETATM    6  N1  UNL     1      -3.372   2.919  13.996  1.00  0.00     0.109 N
HETATM    7  C8  UNL     1      -3.428   3.302  12.610  1.00  0.00     0.170 C
HETATM    8  C9  UNL     1      -3.147   2.212  11.633  1.00  0.00     0.045 C
HETATM    9  C10 UNL     1      -1.957   2.670  10.772  1.00  0.00     0.039 C
HETATM   10  C11 UNL     1      -1.143   3.396  11.836  1.00  0.00     0.234 C
HETATM   11  N2  UNL     1      -0.262   4.348  11.246  1.00  0.00     0.094 N
HETATM   12  C16 UNL     1      -1.069   5.405  10.725  1.00  0.00     0.274 C
HETATM   13  C17 UNL     1      -2.410   5.313  11.452  1.00  0.00     0.045 C
HETATM   14  C18 UNL     1      -2.269   4.236  12.468  1.00  0.00     0.034 C
HETATM   15  C19 UNL     1      -4.760   3.946  12.346  1.00  0.00     0.045 C
HETATM   16  C20 UNL     1      -5.056   5.117  13.210  1.00  0.00     0.043 C
HETATM   17  C21 UNL     1      -4.334   5.142  14.522  1.00  0.00     0.093 C
HETATM   18  C22 UNL     1      -3.982   6.555  14.876  1.00  0.00     0.073 C
ENDROOT
BRANCH   6  19
HETATM   19  C6  UNL     1      -4.502   2.261  14.524  1.00  0.00     0.300 C
BRANCH  19  20
HETATM   20  C7  UNL     1      -4.278   0.844  15.013  1.00  0.00     0.194 C
BRANCH  20  21
HETATM   21  O1  UNL     1      -3.567   0.840  16.226  1.00  0.00    -0.399 OA
ATOM     22  H1  UNL     1      -3.865   0.136  16.790  1.00  0.00     0.209 HD
ENDBRANCH  20  21
ENDBRANCH  19  20
ENDBRANCH   6  19
BRANCH  17  23
HETATM   23  O2  UNL     1      -5.268   4.773  15.518  1.00  0.00    -0.387 OA
ATOM     24  H2  UNL     1      -6.137   4.842  15.140  1.00  0.00     0.210 HD
ENDBRANCH  17  23
BRANCH  11  25
HETATM   25  C12 UNL     1       0.624   3.848  10.237  1.00  0.00     0.277 C
BRANCH  25  26
HETATM   26  C13 UNL     1       2.025   4.357  10.286  1.00  0.00     0.014 A
HETATM   27  C14 UNL     1       2.882   3.971   9.121  1.00  0.00     0.007 A
HETATM   28  C15 UNL     1       2.414   5.403   9.298  1.00  0.00     0.007 A
ENDBRANCH  25  26
ENDBRANCH  11  25
TORSDOF 6
ENDMDL