MODEL 1
REMARK VINA RESULT: -8.072924569      0.000      0.000
REMARK  5 active torsions:
REMARK  status: ('A' for Active; 'I' for Inactive)
REMARK    1  A    between atoms: C2_2  and  N1_4
REMARK    2  A    between atoms: N1_4  and  C13_19
REMARK    3  A    between atoms: C5_6  and  O1_7
REMARK    4  A    between atoms: C6_9  and  O2_10
REMARK    5  A    between atoms: C13_19  and  C16_22
ROOT
HETATM    1  N1  UNL     1      -3.304   3.138  12.578  1.00  0.00    -0.349 N
HETATM    2  C4  UNL     1      -2.488   3.598  11.594  1.00  0.00     0.025 C
HETATM    3  C5  UNL     1      -1.213   4.306  11.735  1.00  0.00     0.193 C
HETATM    4  C6  UNL     1      -0.719   4.371  10.280  1.00  0.00     0.157 C
HETATM    5  C7  UNL     1      -1.851   3.965   9.406  1.00  0.00     0.034 C
HETATM    6  C8  UNL     1      -1.953   4.751   8.139  1.00  0.00     0.086 C
HETATM    7  C9  UNL     1      -3.382   5.197   7.987  1.00  0.00     0.127 C
HETATM    8  O3  UNL     1      -4.063   4.878   7.032  1.00  0.00    -0.298 OA
HETATM    9  C10 UNL     1      -3.955   6.050   9.058  1.00  0.00     0.079 C
HETATM   10  C11 UNL     1      -3.238   5.670  10.348  1.00  0.00     0.018 C
HETATM   11  C12 UNL     1      -3.068   4.189  10.328  1.00  0.00     0.041 C
ENDROOT
BRANCH   1  12
HETATM   12  C2  UNL     1      -3.931   1.908  12.210  1.00  0.00    -0.018 C
HETATM   13  C1  UNL     1      -3.115   0.759  11.814  1.00  0.00     0.063 C
HETATM   14  C3  UNL     1      -5.181   2.026  11.380  1.00  0.00     0.063 C
ENDBRANCH   1  12
BRANCH   1  15
HETATM   15  C13 UNL     1      -3.830   3.818  13.679  1.00  0.00     0.033 C
HETATM   16  C14 UNL     1      -2.736   4.370  14.604  1.00  0.00     0.039 C
HETATM   17  C15 UNL     1      -4.666   5.044  13.385  1.00  0.00     0.039 C
BRANCH  15  18
HETATM   18  C16 UNL     1      -4.604   2.930  14.636  1.00  0.00     0.013 C
HETATM   19  C17 UNL     1      -5.568   3.672  15.510  1.00  0.00     0.007 C
HETATM   20  C18 UNL     1      -6.543   2.582  16.009  1.00  0.00     0.000 C
HETATM   21  C19 UNL     1      -5.734   1.731  16.972  1.00  0.00     0.000 C
HETATM   22  C20 UNL     1      -4.440   1.250  16.385  1.00  0.00     0.000 C
HETATM   23  C21 UNL     1      -3.646   2.337  15.697  1.00  0.00     0.007 C
ENDBRANCH  15  18
ENDBRANCH   1  15
BRANCH   3  24
HETATM   24  O1  UNL     1      -0.272   3.500  12.385  1.00  0.00    -0.387 OA
ATOM     25  H1  UNL     1      -0.367   3.568  13.327  1.00  0.00     0.210 HD
ENDBRANCH   3  24
BRANCH   4  26
HETATM   26  O2  UNL     1       0.343   3.522  10.037  1.00  0.00    -0.392 OA
ATOM     27  H2  UNL     1       1.066   3.954   9.596  1.00  0.00     0.210 HD
ENDBRANCH   4  26
TORSDOF 5
ENDMDL