MODEL 2
REMARK VINA RESULT: -7.859748063      2.387      3.629
REMARK  4 active torsions:
REMARK  status: ('A' for Active; 'I' for Inactive)
REMARK    1  A    between atoms: C3_5  and  C4_6
REMARK    2  A    between atoms: C4_6  and  N2_7
REMARK    3  A    between atoms: C8_12  and  C9_13
REMARK       I    between atoms: C9_13  and  N3_15
REMARK    4  A    between atoms: N3_15  and  C10_17
ROOT
HETATM    1  N2  UNL     1      -1.199   5.009  11.230  1.00  0.00    -0.344 N
HETATM    2  C5  UNL     1      -1.093   4.579   9.901  1.00  0.00     0.070 C
HETATM    3  C6  UNL     1      -1.037   3.102   9.653  1.00  0.00     0.071 C
HETATM    4  C7  UNL     1      -0.735   2.382  10.919  1.00  0.00     0.174 C
HETATM    5  O1  UNL     1      -1.966   1.983  11.468  1.00  0.00    -0.371 OA
HETATM    6  C8  UNL     1      -2.721   3.110  11.684  1.00  0.00     0.252 C
HETATM    7  C17 UNL     1      -1.918   4.273  12.178  1.00  0.00     0.110 C
ENDROOT
BRANCH   6   8
HETATM    8  C9  UNL     1      -3.890   2.806  12.519  1.00  0.00     0.252 C
HETATM    9  O2  UNL     1      -5.016   2.713  11.971  1.00  0.00    -0.270 OA
HETATM   10  N3  UNL     1      -3.825   2.608  13.925  1.00  0.00    -0.354 N
ATOM     11  H3  UNL     1      -2.913   2.683  14.376  1.00  0.00     0.162 HD
BRANCH  10  12
HETATM   12  C10 UNL     1      -4.958   2.310  14.746  1.00  0.00     0.084 C
HETATM   13  C11 UNL     1      -5.238   3.412  15.762  1.00  0.00     0.025 C
HETATM   14  C12 UNL     1      -6.627   3.200  16.302  1.00  0.00     0.002 C
HETATM   15  C13 UNL     1      -6.595   2.529  17.671  1.00  0.00     0.000 C
HETATM   16  C14 UNL     1      -6.357   1.052  17.410  1.00  0.00     0.000 C
HETATM   17  C15 UNL     1      -4.934   0.942  16.855  1.00  0.00     0.002 C
HETATM   18  C16 UNL     1      -4.904   0.952  15.364  1.00  0.00     0.025 C
ENDBRANCH  10  12
ENDBRANCH   6   8
BRANCH   1  19
HETATM   19  C4  UNL     1      -0.084   5.739  11.691  1.00  0.00     0.143 C
BRANCH  19  20
HETATM   20  C3  UNL     1      -0.380   6.882  12.577  1.00  0.00     0.121 A
HETATM   21  N1  UNL     1      -1.387   7.003  13.451  1.00  0.00    -0.343 N
HETATM   22  C2  UNL     1      -1.297   8.194  14.057  1.00  0.00     0.029 A
ATOM     23  H1  UNL     1      -2.106   6.301  13.627  1.00  0.00     0.167 HD
HETATM   24  C1  UNL     1      -2.215   8.759  15.111  1.00  0.00     0.070 C
HETATM   25  C18 UNL     1      -0.212   8.834  13.555  1.00  0.00     0.029 A
HETATM   26  N4  UNL     1       0.343   8.014  12.645  1.00  0.00    -0.343 N
HETATM   27  C19 UNL     1       0.239  10.196  13.970  1.00  0.00     0.070 C
ATOM     28  H4  UNL     1       1.177   8.218  12.095  1.00  0.00     0.167 HD
ENDBRANCH  19  20
ENDBRANCH   1  19
TORSDOF 4
ENDMDL