MODEL 1
REMARK VINA RESULT: -9.592967657      0.000      0.000
REMARK  6 active torsions:
REMARK  status: ('A' for Active; 'I' for Inactive)
REMARK    1  A    between atoms: C3_3  and  C4_4
REMARK    2  A    between atoms: C5_5  and  C6_6
REMARK    3  A    between atoms: C8_9  and  C9_10
REMARK    4  A    between atoms: C9_10  and  C10_11
REMARK    5  A    between atoms: C13_15  and  O2_16
REMARK    6  A    between atoms: C18_22  and  O3_23
ROOT
HETATM    1  C6  UNL     1      -4.838   4.501  15.160  1.00  0.00     0.041 C
HETATM    2  C7  UNL     1      -4.291   5.855  15.084  1.00  0.00     0.099 C
HETATM    3  N1  UNL     1      -3.804   6.928  15.015  1.00  0.00    -0.191 NA
HETATM    4  C8  UNL     1      -3.895   3.545  14.992  1.00  0.00    -0.004 C
ENDROOT
BRANCH   1   5
HETATM    5  C5  UNL     1      -6.199   4.208  15.383  1.00  0.00     0.022 C
HETATM    6  C4  UNL     1      -6.826   3.704  16.371  1.00  0.00     0.001 C
BRANCH   6   7
HETATM    7  C3  UNL     1      -6.342   3.249  17.637  1.00  0.00    -0.004 C
HETATM    8  C2  UNL     1      -6.447   1.942  17.948  1.00  0.00    -0.031 C
HETATM    9  C1  UNL     1      -7.060   1.025  16.965  1.00  0.00     0.036 C
ENDBRANCH   6   7
ENDBRANCH   1   5
BRANCH   4  10
HETATM   10  C9  UNL     1      -4.080   2.099  15.005  1.00  0.00     0.034 C
BRANCH  10  11
HETATM   11  C10 UNL     1      -4.515   1.588  13.640  1.00  0.00     0.001 C
HETATM   12  C11 UNL     1      -3.995   0.208  13.352  1.00  0.00     0.087 C
HETATM   13  C12 UNL     1      -4.366  -0.169  11.978  1.00  0.00     0.165 C
HETATM   14  O1  UNL     1      -4.723  -1.304  11.740  1.00  0.00    -0.294 OA
HETATM   15  C13 UNL     1      -4.317   0.810  10.850  1.00  0.00     0.136 C
HETATM   16  C14 UNL     1      -2.901   1.053  10.537  1.00  0.00     0.022 C
HETATM   17  C22 UNL     1      -5.026   2.062  11.319  1.00  0.00     0.055 C
HETATM   18  C15 UNL     1      -2.217   1.961  11.177  1.00  0.00    -0.076 C
HETATM   19  C16 UNL     1      -0.795   2.175  10.833  1.00  0.00     0.037 C
HETATM   20  C20 UNL     1      -2.809   2.791  12.239  1.00  0.00     0.021 C
HETATM   21  C17 UNL     1      -0.699   3.616  10.312  1.00  0.00     0.036 C
HETATM   22  C18 UNL     1      -1.222   4.526  11.380  1.00  0.00     0.119 C
HETATM   23  C19 UNL     1      -2.667   4.241  11.747  1.00  0.00     0.041 C
HETATM   24  C21 UNL     1      -4.243   2.556  12.531  1.00  0.00     0.002 C
BRANCH  15  25
HETATM   25  O2  UNL     1      -5.018   0.308   9.755  1.00  0.00    -0.378 OA
ATOM     26  H2  UNL     1      -5.537   0.999   9.359  1.00  0.00     0.211 HD
ENDBRANCH  15  25
BRANCH  22  27
HETATM   27  O3  UNL     1      -0.422   4.409  12.513  1.00  0.00    -0.396 OA
ATOM     28  H3  UNL     1      -0.062   5.261  12.732  1.00  0.00     0.210 HD
ENDBRANCH  22  27
ENDBRANCH  10  11
ENDBRANCH   4  10
TORSDOF 6
ENDMDL