MODEL 4
REMARK VINA RESULT: -6.716582149      1.676      3.843
REMARK  3 active torsions:
REMARK  status: ('A' for Active; 'I' for Inactive)
REMARK    1  A    between atoms: C1_2  and  C2_4
REMARK    2  A    between atoms: C2_4  and  C3_5
REMARK    3  A    between atoms: N1_12  and  C10_13
ROOT
HETATM    1  C3  UNL     1      -4.445   3.548  14.387  1.00  0.00    -0.027 C
HETATM    2  C4  UNL     1      -2.980   3.486  14.639  1.00  0.00     0.014 C
HETATM    3  C5  UNL     1      -2.158   4.403  13.752  1.00  0.00    -0.012 C
HETATM    4  C6  UNL     1      -2.084   5.733  14.422  1.00  0.00     0.007 C
HETATM    5  C7  UNL     1      -3.264   6.597  14.339  1.00  0.00     0.025 C
HETATM    6  C8  UNL     1      -4.555   6.022  13.884  1.00  0.00     0.080 C
HETATM    7  C9  UNL     1      -5.011   4.868  14.781  1.00  0.00     0.035 C
HETATM    8  N1  UNL     1      -4.564   5.733  12.528  1.00  0.00    -0.400 N
HETATM    9  C15 UNL     1      -4.063   4.449  12.133  1.00  0.00     0.081 C
HETATM   10  C16 UNL     1      -2.579   4.431  12.331  1.00  0.00     0.029 C
HETATM   11  C17 UNL     1      -4.735   3.368  12.896  1.00  0.00     0.035 C
ENDROOT
BRANCH   8  12
HETATM   12  C10 UNL     1      -5.187   6.486  11.560  1.00  0.00     0.080 C
HETATM   13  C11 UNL     1      -4.499   7.734  11.055  1.00  0.00     0.025 C
HETATM   14  C12 UNL     1      -5.604   8.532  10.356  1.00  0.00     0.002 C
HETATM   15  C13 UNL     1      -6.862   7.730  10.564  1.00  0.00     0.002 C
HETATM   16  C14 UNL     1      -6.564   7.029  11.875  1.00  0.00     0.025 C
ENDBRANCH   8  12
BRANCH   1  17
HETATM   17  C2  UNL     1      -5.139   2.416  15.069  1.00  0.00     0.122 C
BRANCH  17  18
HETATM   18  C1  UNL     1      -4.435   1.133  15.102  1.00  0.00     0.173 C
HETATM   19  O1  UNL     1      -4.479   0.318  14.167  1.00  0.00    -0.648 OA
HETATM   20  O2  UNL     1      -3.686   0.799  16.218  1.00  0.00    -0.648 OA
ENDBRANCH  17  18
ENDBRANCH   1  17
TORSDOF 3
ENDMDL