MODEL 1
REMARK VINA RESULT: -6.660930615      0.000      0.000
REMARK  3 active torsions:
REMARK  status: ('A' for Active; 'I' for Inactive)
REMARK       I    between atoms: C1_2  and  N1_3
REMARK    1  A    between atoms: C1_2  and  C8_11
REMARK    2  A    between atoms: N1_3  and  C2_5
REMARK    3  A    between atoms: N2_14  and  C11_15
ROOT
HETATM    1  C8  UNL     1      -4.463   3.152  12.181  1.00  0.00     0.081 C
HETATM    2  C9  UNL     1      -4.055   4.203  13.169  1.00  0.00     0.044 C
HETATM    3  C10 UNL     1      -4.736   3.832  14.494  1.00  0.00     0.273 C
HETATM    4  N2  UNL     1      -4.325   2.546  14.939  1.00  0.00     0.093 N
HETATM    5  C16 UNL     1      -4.516   1.502  13.962  1.00  0.00     0.273 C
HETATM    6  C17 UNL     1      -3.850   1.845  12.635  1.00  0.00     0.044 C
ENDROOT
BRANCH   1   7
HETATM    7  C1  UNL     1      -4.087   3.488  10.791  1.00  0.00     0.222 C
HETATM    8  O1  UNL     1      -4.198   2.569   9.935  1.00  0.00    -0.273 OA
HETATM    9  N1  UNL     1      -3.619   4.746  10.366  1.00  0.00    -0.356 N
ATOM     10  H1  UNL     1      -3.524   5.503  11.044  1.00  0.00     0.162 HD
BRANCH   9  11
HETATM   11  C2  UNL     1      -3.275   4.978   8.994  1.00  0.00     0.084 C
HETATM   12  C3  UNL     1      -1.788   4.869   8.754  1.00  0.00     0.025 C
HETATM   13  C4  UNL     1      -1.029   6.121   9.048  1.00  0.00     0.002 C
HETATM   14  C5  UNL     1      -1.653   7.359   8.456  1.00  0.00     0.000 C
HETATM   15  C6  UNL     1      -3.112   7.493   8.815  1.00  0.00     0.002 C
HETATM   16  C7  UNL     1      -3.844   6.256   8.429  1.00  0.00     0.025 C
ENDBRANCH   9  11
ENDBRANCH   1   7
BRANCH   4  17
HETATM   17  C11 UNL     1      -4.947   2.172  16.157  1.00  0.00     0.223 C
HETATM   18  C12 UNL     1      -5.214   0.698  16.328  1.00  0.00     0.036 C
HETATM   19  C13 UNL     1      -6.228   0.631  17.477  1.00  0.00     0.002 C
HETATM   20  C14 UNL     1      -6.705   2.068  17.687  1.00  0.00     0.002 C
HETATM   21  C15 UNL     1      -6.334   2.740  16.358  1.00  0.00     0.036 C
ENDBRANCH   4  17
TORSDOF 3
ENDMDL