MODEL 5
REMARK VINA RESULT: -6.102497641      0.971      1.206
REMARK  3 active torsions:
REMARK  status: ('A' for Active; 'I' for Inactive)
REMARK    1  A    between atoms: C2_2  and  N1_3
REMARK    2  A    between atoms: C5_6  and  N2_7
REMARK    3  A    between atoms: N2_7  and  C6_9
ROOT
HETATM    1  C6  UNL     1      -3.172   3.793  12.382  1.00  0.00     0.085 C
HETATM    2  C7  UNL     1      -3.320   4.235  10.977  1.00  0.00     0.030 C
HETATM    3  C8  UNL     1      -2.268   5.202  10.502  1.00  0.00    -0.012 C
HETATM    4  C9  UNL     1      -0.950   5.088  11.187  1.00  0.00     0.010 C
HETATM    5  C10 UNL     1      -1.085   6.013  12.376  1.00  0.00    -0.006 C
HETATM    6  C11 UNL     1      -1.424   5.154  13.573  1.00  0.00     0.012 C
HETATM    7  C12 UNL     1      -2.909   4.938  13.368  1.00  0.00     0.009 C
HETATM    8  C13 UNL     1      -3.445   6.251  12.936  1.00  0.00     0.016 C
HETATM    9  C14 UNL     1      -2.314   6.858  12.146  1.00  0.00    -0.040 C
HETATM   10  C15 UNL     1      -2.105   8.295  12.477  1.00  0.00     0.015 C
HETATM   11  C16 UNL     1      -2.625   6.647  10.687  1.00  0.00     0.014 C
ENDROOT
BRANCH   1  12
HETATM   12  N2  UNL     1      -4.299   3.094  12.846  1.00  0.00    -0.391 N
ATOM     13  H2  UNL     1      -5.053   2.906  12.186  1.00  0.00     0.159 HD
BRANCH  12  14
HETATM   14  C5  UNL     1      -4.445   2.645  14.155  1.00  0.00    -0.011 C
HETATM   15  C4  UNL     1      -4.476   1.103  14.271  1.00  0.00     0.072 C
HETATM   16  C3  UNL     1      -4.427   0.856  15.768  1.00  0.00     0.127 C
HETATM   17  N1  UNL     1      -5.752   1.143  16.254  1.00  0.00    -0.393 N
HETATM   18  C18 UNL     1      -6.292   2.373  15.838  1.00  0.00     0.063 C
HETATM   19  C17 UNL     1      -5.367   3.300  15.101  1.00  0.00     0.096 C
BRANCH  17  20
HETATM   20  C2  UNL     1      -5.986   0.731  17.595  1.00  0.00     0.117 C
HETATM   21  C1  UNL     1      -6.238   1.943  18.469  1.00  0.00     0.026 C
ENDBRANCH  17  20
ENDBRANCH  12  14
ENDBRANCH   1  12
TORSDOF 3
ENDMDL