MODEL 1
REMARK VINA RESULT: -6.809813192      0.000      0.000
REMARK  3 active torsions:
REMARK  status: ('A' for Active; 'I' for Inactive)
REMARK    1  A    between atoms: C2_3  and  N1_4
REMARK    2  A    between atoms: N1_4  and  C3_6
REMARK    3  A    between atoms: N2_17  and  C14_18
ROOT
HETATM    1  O1  UNL     1      -4.229   1.595  13.546  1.00  0.00    -0.271 OA
HETATM    2  C1  UNL     1      -4.561   2.774  13.904  1.00  0.00     0.242 C
HETATM    3  C2  UNL     1      -3.911   3.809  13.109  1.00  0.00     0.170 C
HETATM    4  C10 UNL     1      -3.833   5.164  13.698  1.00  0.00     0.034 C
HETATM    5  C11 UNL     1      -4.590   5.399  14.949  1.00  0.00     0.004 C
HETATM    6  C12 UNL     1      -6.049   5.105  14.684  1.00  0.00     0.020 C
HETATM    7  C13 UNL     1      -6.310   3.807  15.430  1.00  0.00     0.126 C
HETATM    8  N2  UNL     1      -5.477   2.743  14.981  1.00  0.00    -0.346 N
ENDROOT
BRANCH   3   9
HETATM    9  N1  UNL     1      -2.663   3.293  12.633  1.00  0.00    -0.405 N
ATOM     10  H1  UNL     1      -2.381   2.333  12.829  1.00  0.00     0.154 HD
BRANCH   9  11
HETATM   11  C3  UNL     1      -1.838   4.153  11.888  1.00  0.00     0.077 C
HETATM   12  C4  UNL     1      -2.192   4.339  10.450  1.00  0.00     0.024 C
HETATM   13  C5  UNL     1      -1.953   5.733   9.942  1.00  0.00     0.002 C
HETATM   14  C6  UNL     1      -0.561   6.186   9.910  1.00  0.00     0.000 C
HETATM   15  C7  UNL     1       0.342   5.636  10.977  1.00  0.00     0.000 C
HETATM   16  C8  UNL     1       0.495   4.154  10.949  1.00  0.00     0.002 C
HETATM   17  C9  UNL     1      -0.438   3.525  11.919  1.00  0.00     0.024 C
ENDBRANCH   9  11
ENDBRANCH   3   9
BRANCH   8  18
HETATM   18  C14 UNL     1      -5.572   1.510  15.690  1.00  0.00     0.087 C
HETATM   19  C15 UNL     1      -6.824   1.357  16.564  1.00  0.00     0.025 C
HETATM   20  C16 UNL     1      -5.937   0.521  17.499  1.00  0.00     0.004 C
HETATM   21  C17 UNL     1      -4.762   1.335  16.935  1.00  0.00     0.025 C
ENDBRANCH   8  18
TORSDOF 3
ENDMDL