MODEL 5
REMARK VINA RESULT: -6.093044673      1.102      1.813
REMARK  3 active torsions:
REMARK  status: ('A' for Active; 'I' for Inactive)
REMARK    1  A    between atoms: N1_2  and  C2_3
REMARK    2  A    between atoms: N1_2  and  C12_13
REMARK    3  A    between atoms: C2_3  and  C3_4
ROOT
HETATM    1  C1  UNL     1      -3.237   2.498  15.961  1.00  0.00     0.310 C
HETATM    2  N1  UNL     1      -4.203   2.755  14.888  1.00  0.00     0.089 N
ENDROOT
BRANCH   2   3
HETATM    3  C2  UNL     1      -4.330   4.148  14.729  1.00  0.00     0.282 C
BRANCH   3   4
HETATM    4  C3  UNL     1      -3.717   4.882  13.631  1.00  0.00    -0.010 C
HETATM    5  C4  UNL     1      -3.131   3.995  12.544  1.00  0.00     0.016 C
HETATM    6  C5  UNL     1      -1.979   4.858  12.069  1.00  0.00    -0.013 C
HETATM    7  C6  UNL     1      -2.474   6.167  11.505  1.00  0.00     0.009 C
HETATM    8  C10 UNL     1      -1.295   5.113  13.400  1.00  0.00     0.010 C
HETATM    9  C7  UNL     1      -3.339   6.895  12.487  1.00  0.00    -0.013 C
HETATM   10  C8  UNL     1      -2.645   7.064  13.837  1.00  0.00     0.010 C
HETATM   11  C11 UNL     1      -4.484   5.966  12.938  1.00  0.00     0.016 C
HETATM   12  C9  UNL     1      -2.471   5.602  14.213  1.00  0.00    -0.004 C
ENDBRANCH   3   4
ENDBRANCH   2   3
BRANCH   2  13
HETATM   13  C12 UNL     1      -5.472   2.077  15.239  1.00  0.00     0.226 C
HETATM   14  C13 UNL     1      -6.458   3.004  15.843  1.00  0.00     0.069 C
HETATM   15  C14 UNL     1      -7.274   2.440  16.980  1.00  0.00     0.188 C
HETATM   16  C15 UNL     1      -6.520   2.583  18.277  1.00  0.00     0.035 C
HETATM   17  N2  UNL     1      -7.476   1.023  16.862  1.00  0.00    -0.067 N
HETATM   18  C16 UNL     1      -5.733   1.301  18.407  1.00  0.00     0.035 C
HETATM   19  C17 UNL     1      -6.140   0.539  17.148  1.00  0.00     0.188 C
HETATM   20  C18 UNL     1      -5.220   0.810  16.021  1.00  0.00     0.069 C
ATOM     21  H22 UNL     1      -8.219   0.633  17.442  1.00  0.00     0.278 HD
ATOM     22  H21 UNL     1      -7.880   0.706  15.981  1.00  0.00     0.278 HD
ENDBRANCH   2  13
TORSDOF 3
ENDMDL