MODEL 1
REMARK VINA RESULT: -7.271848510      0.000      0.000
REMARK  5 active torsions:
REMARK  status: ('A' for Active; 'I' for Inactive)
REMARK    1  A    between atoms: C4_4  and  C5_5
REMARK    2  A    between atoms: C5_5  and  N2_13
REMARK    3  A    between atoms: N1_6  and  C6_8
REMARK    4  A    between atoms: N2_13  and  C11_15
REMARK    5  A    between atoms: C11_15  and  C12_16
ROOT
HETATM    1  C5  UNL     1      -4.463   4.047  14.617  1.00  0.00     0.077 C
HETATM    2  N1  UNL     1      -5.392   3.615  15.365  1.00  0.00    -0.375 N
ATOM      3  H1  UNL     1      -5.988   4.359  15.725  1.00  0.00     0.161 HD
ENDROOT
BRANCH   1   4
HETATM    4  C4  UNL     1      -4.366   5.544  14.369  1.00  0.00     0.053 C
HETATM    5  C3  UNL     1      -2.939   5.887  14.277  1.00  0.00     0.012 C
HETATM    6  C2  UNL     1      -2.690   6.921  13.191  1.00  0.00     0.001 C
HETATM    7  C1  UNL     1      -3.039   6.224  11.890  1.00  0.00     0.000 C
HETATM    8  C17 UNL     1      -4.485   5.843  11.839  1.00  0.00     0.001 C
HETATM    9  C16 UNL     1      -5.183   5.878  13.152  1.00  0.00     0.012 C
ENDBRANCH   1   4
BRANCH   1  10
HETATM   10  N2  UNL     1      -3.580   3.099  14.062  1.00  0.00    -0.379 N
ATOM     11  H2  UNL     1      -2.821   2.808  14.678  1.00  0.00     0.160 HD
BRANCH  10  12
HETATM   12  C11 UNL     1      -3.579   2.490  12.790  1.00  0.00     0.127 C
BRANCH  12  13
HETATM   13  C12 UNL     1      -4.655   1.485  12.576  1.00  0.00     0.029 C
HETATM   14  C13 UNL     1      -5.151   1.643  11.136  1.00  0.00     0.034 C
HETATM   15  C14 UNL     1      -4.769   0.356  10.485  1.00  0.00     0.168 C
HETATM   16  O1  UNL     1      -4.875  -0.543  11.553  1.00  0.00    -0.391 OA
HETATM   17  C15 UNL     1      -4.075   0.064  12.489  1.00  0.00     0.173 C
ENDBRANCH  12  13
ENDBRANCH  10  12
ENDBRANCH   1  10
BRANCH   2  18
HETATM   18  C6  UNL     1      -5.780   2.356  15.801  1.00  0.00     0.082 C
HETATM   19  C7  UNL     1      -4.926   1.635  16.807  1.00  0.00     0.025 C
HETATM   20  C8  UNL     1      -5.849   0.455  17.160  1.00  0.00     0.002 C
HETATM   21  C9  UNL     1      -7.209   1.070  17.179  1.00  0.00     0.002 C
HETATM   22  C10 UNL     1      -7.121   2.425  16.580  1.00  0.00     0.025 C
ENDBRANCH   2  18
TORSDOF 5
ENDMDL