MODEL 1
REMARK VINA RESULT: -6.795309871      0.000      0.000
REMARK  3 active torsions:
REMARK  status: ('A' for Active; 'I' for Inactive)
REMARK       I    between atoms: C1_2  and  N1_3
REMARK    1  A    between atoms: C1_2  and  C6_9
REMARK    2  A    between atoms: N1_3  and  C2_5
REMARK    3  A    between atoms: C2_5  and  C3_6
ROOT
HETATM    1  C6  UNL     1      -3.521   3.484  13.693  1.00  0.00     0.084 C
HETATM    2  C7  UNL     1      -2.982   4.391  14.750  1.00  0.00     0.019 C
HETATM    3  C8  UNL     1      -3.513   5.805  14.611  1.00  0.00    -0.013 C
HETATM    4  C9  UNL     1      -5.014   5.675  14.478  1.00  0.00     0.010 C
HETATM    5  C10 UNL     1      -5.274   5.187  13.068  1.00  0.00    -0.007 C
HETATM    6  C11 UNL     1      -4.981   6.412  12.201  1.00  0.00     0.011 C
HETATM    7  C12 UNL     1      -3.450   6.284  12.144  1.00  0.00     0.006 C
HETATM    8  C13 UNL     1      -2.893   6.557  13.499  1.00  0.00     0.011 C
HETATM    9  C14 UNL     1      -3.336   4.870  11.699  1.00  0.00     0.025 A
HETATM   10  C15 UNL     1      -2.089   4.270  11.208  1.00  0.00     0.096 A
HETATM   11  S1  UNL     1      -3.370   4.569   9.932  1.00  0.00    -0.156 SA
HETATM   12  C16 UNL     1      -4.287   4.152  12.615  1.00  0.00     0.022 C
ENDROOT
BRANCH   1  13
HETATM   13  C1  UNL     1      -4.264   2.315  14.280  1.00  0.00     0.222 C
HETATM   14  O1  UNL     1      -4.998   1.582  13.576  1.00  0.00    -0.273 OA
HETATM   15  N1  UNL     1      -4.162   1.997  15.662  1.00  0.00    -0.360 N
ATOM     16  H1  UNL     1      -3.572   2.579  16.257  1.00  0.00     0.162 HD
BRANCH  15  17
HETATM   17  C2  UNL     1      -4.856   0.892  16.251  1.00  0.00     0.127 C
BRANCH  17  18
HETATM   18  C3  UNL     1      -5.784   1.344  17.329  1.00  0.00     0.003 A
HETATM   19  C4  UNL     1      -6.747   2.455  17.068  1.00  0.00     0.007 A
HETATM   20  C5  UNL     1      -7.254   1.077  17.028  1.00  0.00     0.007 A
ENDBRANCH  17  18
ENDBRANCH  15  17
ENDBRANCH   1  13
TORSDOF 3
ENDMDL