MODEL 3
REMARK VINA RESULT: -6.189484806      2.687      2.887
REMARK  3 active torsions:
REMARK  status: ('A' for Active; 'I' for Inactive)
REMARK    1  A    between atoms: C2_2  and  C9_9
REMARK    2  A    between atoms: C3_3  and  C4_4
REMARK    3  A    between atoms: C9_9  and  N1_10
REMARK       I    between atoms: N1_10  and  C10_12
REMARK       I    between atoms: C10_12  and  N2_14
ROOT
HETATM    1  N1  UNL     1      -2.886   3.661  12.883  1.00  0.00    -0.339 N
ATOM      2  H1  UNL     1      -2.473   4.187  13.653  1.00  0.00     0.164 HD
HETATM    3  C10 UNL     1      -2.363   3.826  11.582  1.00  0.00     0.319 C
HETATM    4  O1  UNL     1      -2.868   3.184  10.651  1.00  0.00    -0.247 OA
HETATM    5  N2  UNL     1      -1.284   4.711  11.375  1.00  0.00    -0.325 N
HETATM    6  C11 UNL     1      -0.723   5.437  12.471  1.00  0.00     0.129 C
HETATM    7  C12 UNL     1       0.472   6.268  12.158  1.00  0.00     0.030 C
HETATM    8  C13 UNL     1       1.613   5.477  11.563  1.00  0.00     0.077 C
HETATM    9  S1  UNL     1       1.018   4.513  10.117  1.00  0.00    -0.149 SA
HETATM   10  C14 UNL     1      -0.772   4.858  10.035  1.00  0.00     0.201 C
ENDROOT
BRANCH   1  11
HETATM   11  C9  UNL     1      -3.999   2.761  13.160  1.00  0.00     0.157 C
BRANCH  11  12
HETATM   12  C2  UNL     1      -4.690   3.152  14.412  1.00  0.00    -0.070 C
HETATM   13  C1  UNL     1      -4.856   4.596  14.712  1.00  0.00     0.044 C
HETATM   14  C3  UNL     1      -5.156   2.255  15.255  1.00  0.00    -0.018 C
BRANCH  14  15
HETATM   15  C4  UNL     1      -5.849   2.664  16.508  1.00  0.00     0.008 C
HETATM   16  C5  UNL     1      -7.325   2.356  16.340  1.00  0.00     0.008 C
HETATM   17  C6  UNL     1      -7.554   1.038  17.043  1.00  0.00     0.001 C
HETATM   18  C7  UNL     1      -6.190   0.480  17.293  1.00  0.00     0.001 C
HETATM   19  C8  UNL     1      -5.372   1.728  17.600  1.00  0.00     0.008 C
ENDBRANCH  14  15
ENDBRANCH  11  12
ENDBRANCH   1  11
TORSDOF 3
ENDMDL