MODEL 2
REMARK VINA RESULT: -6.323932016      1.725      2.567
REMARK  3 active torsions:
REMARK  status: ('A' for Active; 'I' for Inactive)
REMARK    1  A    between atoms: C2_2  and  N1_3
REMARK    2  A    between atoms: C5_6  and  N2_7
REMARK       I    between atoms: N2_7  and  C6_9
REMARK    3  A    between atoms: C6_9  and  C7_11
ROOT
HETATM    1  N2  UNL     1      -2.720   6.905  14.120  1.00  0.00    -0.356 N
ATOM      2  H2  UNL     1      -3.646   7.324  14.041  1.00  0.00     0.162 HD
HETATM    3  C6  UNL     1      -2.610   5.488  14.113  1.00  0.00     0.226 C
HETATM    4  O1  UNL     1      -1.459   4.993  14.210  1.00  0.00    -0.273 OA
ENDROOT
BRANCH   3   5
HETATM    5  C7  UNL     1      -3.807   4.603  13.994  1.00  0.00     0.041 C
HETATM    6  C8  UNL     1      -3.814   3.961  12.626  1.00  0.00     0.019 C
HETATM    7  C9  UNL     1      -3.740   2.452  12.693  1.00  0.00     0.002 C
HETATM    8  C10 UNL     1      -4.874   1.925  13.513  1.00  0.00     0.005 C
HETATM    9  C11 UNL     1      -4.870   2.589  14.874  1.00  0.00    -0.013 C
HETATM   10  C12 UNL     1      -6.152   3.322  15.070  1.00  0.00     0.005 C
HETATM   11  C15 UNL     1      -3.708   3.515  15.022  1.00  0.00     0.023 C
HETATM   12  C13 UNL     1      -5.999   4.819  15.191  1.00  0.00     0.002 C
HETATM   13  C14 UNL     1      -5.088   5.398  14.137  1.00  0.00     0.019 C
ENDBRANCH   3   5
BRANCH   1  14
HETATM   14  C5  UNL     1      -1.585   7.765  14.232  1.00  0.00     0.087 C
HETATM   15  C4  UNL     1      -1.717   8.729  15.416  1.00  0.00     0.055 C
HETATM   16  C3  UNL     1      -0.493   9.631  15.367  1.00  0.00     0.274 C
HETATM   17  N1  UNL     1      -0.563  10.509  14.241  1.00  0.00     0.088 N
HETATM   18  C17 UNL     1      -1.515  10.077  13.243  1.00  0.00     0.274 C
HETATM   19  C16 UNL     1      -1.333   8.598  13.013  1.00  0.00     0.055 C
BRANCH  17  20
HETATM   20  C2  UNL     1       0.740  10.785  13.680  1.00  0.00     0.268 C
HETATM   21  C1  UNL     1       1.863  10.275  14.518  1.00  0.00     0.037 C
ENDBRANCH  17  20
ENDBRANCH   1  14
TORSDOF 3
ENDMDL