MODEL 1
REMARK VINA RESULT: -7.069369209      0.000      0.000
REMARK  4 active torsions:
REMARK  status: ('A' for Active; 'I' for Inactive)
REMARK    1  A    between atoms: C3_5  and  C4_6
REMARK    2  A    between atoms: N2_10  and  N3_11
REMARK    3  A    between atoms: C8_14  and  C9_15
REMARK    4  A    between atoms: N4_18  and  C12_19
ROOT
HETATM    1  C1  UNL     1     -31.295  -8.419  -2.473  1.00  0.00     0.070 C
HETATM    2  C2  UNL     1     -30.221  -8.803  -1.505  1.00  0.00     0.032 A
HETATM    3  N1  UNL     1     -29.306  -7.931  -0.986  1.00  0.00    -0.346 N
ATOM      4  H1  UNL     1     -29.272  -6.933  -1.192  1.00  0.00     0.167 HD
HETATM    5  C3  UNL     1     -28.462  -8.571  -0.172  1.00  0.00     0.111 A
HETATM    6  N2  UNL     1     -28.847  -9.846  -0.180  1.00  0.00    -0.251 N
HETATM    7  C8  UNL     1     -29.912 -10.044  -0.973  1.00  0.00     0.062 A
ENDROOT
BRANCH   7   8
HETATM    8  C9  UNL     1     -30.698 -11.249  -1.274  1.00  0.00     0.049 C
HETATM    9  C10 UNL     1     -30.050 -12.261  -2.159  1.00  0.00     0.056 C
HETATM   10  C11 UNL     1     -30.940 -13.482  -2.258  1.00  0.00     0.064 C
HETATM   11  N4  UNL     1     -32.183 -13.398  -1.599  1.00  0.00    -0.369 N
HETATM   12  C18 UNL     1     -32.280 -12.820  -0.323  1.00  0.00     0.064 C
HETATM   13  C19 UNL     1     -31.039 -12.022   0.011  1.00  0.00     0.056 C
BRANCH  11  14
HETATM   14  C12 UNL     1     -32.939 -14.592  -1.708  1.00  0.00     0.088 C
HETATM   15  C13 UNL     1     -32.175 -15.781  -2.217  1.00  0.00     0.026 C
HETATM   16  C14 UNL     1     -32.980 -17.034  -1.983  1.00  0.00     0.002 C
HETATM   17  C15 UNL     1     -34.406 -16.953  -2.409  1.00  0.00     0.000 C
HETATM   18  C16 UNL     1     -35.079 -15.669  -2.008  1.00  0.00     0.002 C
HETATM   19  C17 UNL     1     -34.225 -14.477  -2.476  1.00  0.00     0.026 C
ENDBRANCH  11  14
ENDBRANCH   7   8
BRANCH   6  20
HETATM   20  N3  UNL     1     -28.212 -10.833   0.549  1.00  0.00    -0.337 N
ATOM     21  H32 UNL     1     -27.349 -10.703   1.078  1.00  0.00     0.177 HD
ATOM     22  H31 UNL     1     -28.562 -11.789   0.617  1.00  0.00     0.177 HD
ENDBRANCH   6  20
BRANCH   5  23
HETATM   23  C4  UNL     1     -27.366  -7.877   0.542  1.00  0.00     0.009 C
HETATM   24  C5  UNL     1     -27.675  -7.534   1.954  1.00  0.00     0.023 C
HETATM   25  C6  UNL     1     -26.065  -8.645   0.522  1.00  0.00     0.023 C
HETATM   26  C7  UNL     1     -27.089  -6.539  -0.171  1.00  0.00     0.023 C
ENDBRANCH   5  23
TORSDOF 4
ENDMDL