MODEL 3
REMARK VINA RESULT: -6.735356753      0.545      1.870
REMARK  2 active torsions:
REMARK  status: ('A' for Active; 'I' for Inactive)
REMARK    1  A    between atoms: C8_8  and  C9_9
REMARK    2  A    between atoms: N1_13  and  C13_14
ROOT
HETATM    1  C9  UNL     1     -29.627  -8.639  -0.457  1.00  0.00    -0.008 C
HETATM    2  C10 UNL     1     -30.728  -7.993  -1.307  1.00  0.00     0.007 C
HETATM    3  C11 UNL     1     -31.006  -8.979  -2.439  1.00  0.00     0.020 C
HETATM    4  C12 UNL     1     -32.321  -9.675  -2.243  1.00  0.00     0.124 C
HETATM    5  N1  UNL     1     -32.173 -10.545  -1.094  1.00  0.00    -0.365 N
HETATM    6  C18 UNL     1     -31.498 -10.205   0.137  1.00  0.00     0.125 C
HETATM    7  C19 UNL     1     -30.010 -10.026  -0.061  1.00  0.00     0.025 C
ENDROOT
BRANCH   5   8
HETATM    8  C13 UNL     1     -32.754 -11.828  -1.236  1.00  0.00     0.135 A
HETATM    9  N2  UNL     1     -34.070 -12.024  -1.068  1.00  0.00    -0.337 N
HETATM   10  C14 UNL     1     -34.673 -13.222  -1.192  1.00  0.00     0.183 A
ATOM     11  H2  UNL     1     -34.649 -11.217  -0.833  1.00  0.00     0.168 HD
HETATM   12  N3  UNL     1     -33.902 -14.298  -1.506  1.00  0.00    -0.337 N
HETATM   13  C15 UNL     1     -32.583 -14.196  -1.692  1.00  0.00     0.138 A
ATOM     14  H3  UNL     1     -34.346 -15.212  -1.602  1.00  0.00     0.168 HD
HETATM   15  N4  UNL     1     -31.663 -15.115  -1.999  1.00  0.00    -0.337 N
HETATM   16  C17 UNL     1     -31.998 -12.941  -1.554  1.00  0.00     0.122 A
HETATM   17  C16 UNL     1     -30.501 -14.438  -2.057  1.00  0.00     0.182 A
ATOM     18  H4  UNL     1     -31.810 -16.113  -2.157  1.00  0.00     0.168 HD
HETATM   19  N5  UNL     1     -30.703 -13.133  -1.789  1.00  0.00    -0.346 N
ATOM     20  H5  UNL     1     -29.982 -12.412  -1.770  1.00  0.00     0.167 HD
ENDBRANCH   5   8
BRANCH   1  21
HETATM   21  C8  UNL     1     -29.296  -7.828   0.739  1.00  0.00     0.001 C
HETATM   22  C2  UNL     1     -30.296  -6.723   1.011  1.00  0.00    -0.013 C
HETATM   23  C1  UNL     1     -30.794  -6.775   2.465  1.00  0.00     0.010 C
HETATM   24  C3  UNL     1     -29.540  -5.416   0.892  1.00  0.00     0.005 C
HETATM   25  C4  UNL     1     -28.220  -5.802   1.498  1.00  0.00     0.009 C
HETATM   26  C5  UNL     1     -27.976  -7.145   0.768  1.00  0.00    -0.043 C
HETATM   27  C6  UNL     1     -27.377  -6.792  -0.549  1.00  0.00     0.015 C
HETATM   28  C7  UNL     1     -26.929  -7.859   1.599  1.00  0.00     0.015 C
ENDBRANCH   1  21
TORSDOF 2
ENDMDL