MODEL 2
REMARK VINA RESULT: -6.250595710      1.288      1.436
REMARK  3 active torsions:
REMARK  status: ('A' for Active; 'I' for Inactive)
REMARK    1  A    between atoms: O1_2  and  C2_3
REMARK    2  A    between atoms: C2_3  and  N1_5
REMARK    3  A    between atoms: N1_5  and  C3_7
ROOT
HETATM    1  C3  UNL     1     -29.596  -9.831  -0.281  1.00  0.00     0.137 C
HETATM    2  C4  UNL     1     -28.174  -9.534   0.086  1.00  0.00    -0.052 C
HETATM    3  C5  UNL     1     -27.958  -8.249   0.208  1.00  0.00    -0.064 C
HETATM    4  C6  UNL     1     -26.639  -7.641   0.565  1.00  0.00     0.035 C
HETATM    5  C7  UNL     1     -25.524  -8.661   0.545  1.00  0.00     0.005 C
HETATM    6  C8  UNL     1     -26.059  -9.898   1.239  1.00  0.00     0.005 C
HETATM    7  C9  UNL     1     -27.077 -10.508   0.302  1.00  0.00     0.036 C
HETATM    8  C10 UNL     1     -29.224  -7.506  -0.060  1.00  0.00     0.081 A
HETATM    9  C11 UNL     1     -29.471  -6.551   1.084  1.00  0.00     0.004 A
HETATM   10  S2  UNL     1     -28.546  -5.212   1.676  1.00  0.00    -0.105 SA
HETATM   11  C12 UNL     1     -29.543  -4.754   2.965  1.00  0.00     0.051 A
HETATM   12  C13 UNL     1     -30.566  -5.643   2.911  1.00  0.00     0.021 A
HETATM   13  C14 UNL     1     -30.533  -6.588   1.926  1.00  0.00    -0.007 A
HETATM   14  C15 UNL     1     -31.547  -7.657   1.647  1.00  0.00     0.096 A
HETATM   15  N2  UNL     1     -31.363  -8.431   0.682  1.00  0.00    -0.390 N
ATOM     16  H2  UNL     1     -32.090  -9.134   0.552  1.00  0.00     0.159 HD
HETATM   17  C16 UNL     1     -30.301  -8.488  -0.265  1.00  0.00     0.121 A
ENDROOT
BRANCH   1  18
HETATM   18  N1  UNL     1     -29.637 -10.340  -1.625  1.00  0.00    -0.351 N
ATOM     19  H1  UNL     1     -28.761 -10.542  -2.105  1.00  0.00     0.163 HD
BRANCH  18  20
HETATM   20  C2  UNL     1     -30.859 -10.567  -2.298  1.00  0.00     0.210 C
HETATM   21  S1  UNL     1     -32.034 -11.545  -1.732  1.00  0.00    -0.033 SA
BRANCH  20  22
HETATM   22  O1  UNL     1     -31.140  -9.945  -3.531  1.00  0.00    -0.332 OA
HETATM   23  C1  UNL     1     -32.335 -10.332  -4.184  1.00  0.00     0.212 C
ENDBRANCH  20  22
ENDBRANCH  18  20
ENDBRANCH   1  18
TORSDOF 3
ENDMDL