MODEL 2
REMARK VINA RESULT: -7.466506210      2.024      2.765
REMARK  3 active torsions:
REMARK  status: ('A' for Active; 'I' for Inactive)
REMARK    1  A    between atoms: C2_3  and  C3_4
REMARK    2  A    between atoms: C9_14  and  O1_15
REMARK    3  A    between atoms: O1_15  and  C10_16
ROOT
HETATM    1  N1  UNL     1     -23.284  -9.936   0.133  1.00  0.00    -0.197 NA
HETATM    2  C1  UNL     1     -24.288 -10.261   0.612  1.00  0.00     0.064 C
HETATM    3  C2  UNL     1     -25.535 -10.650   1.224  1.00  0.00     0.176 C
ENDROOT
BRANCH   3   4
HETATM    4  C3  UNL     1     -26.632  -9.646   0.924  1.00  0.00     0.003 C
HETATM    5  N2  UNL     1     -26.641  -8.509   1.485  1.00  0.00    -0.362 N
HETATM    6  C4  UNL     1     -27.655  -7.544   1.215  1.00  0.00     0.043 A
ATOM      7  H2  UNL     1     -25.901  -8.278   2.148  1.00  0.00     0.165 HD
HETATM    8  C5  UNL     1     -27.593  -6.370   1.939  1.00  0.00     0.047 A
HETATM    9  C8  UNL     1     -28.663  -7.821   0.319  1.00  0.00     0.013 A
HETATM   10  C6  UNL     1     -28.611  -5.469   1.719  1.00  0.00     0.090 A
HETATM   11  N3  UNL     1     -29.586  -5.743   0.851  1.00  0.00    -0.374 N
HETATM   12  C7  UNL     1     -29.652  -6.879   0.145  1.00  0.00     0.099 A
ATOM     13  H3  UNL     1     -30.322  -5.050   0.717  1.00  0.00     0.164 HD
HETATM   14  C9  UNL     1     -28.619  -9.043  -0.435  1.00  0.00     0.164 C
HETATM   15  C20 UNL     1     -27.683 -10.091   0.017  1.00  0.00     0.090 C
BRANCH  14  16
HETATM   16  O1  UNL     1     -29.818  -9.646  -0.719  1.00  0.00    -0.375 OA
BRANCH  16  17
HETATM   17  C10 UNL     1     -30.077  -9.966  -2.009  1.00  0.00     0.127 C
HETATM   18  C11 UNL     1     -31.484  -9.799  -2.514  1.00  0.00     0.037 C
HETATM   19  C12 UNL     1     -31.342 -11.205  -3.122  1.00  0.00    -0.005 C
HETATM   20  C13 UNL     1     -32.611 -11.943  -2.999  1.00  0.00     0.010 C
HETATM   21  C19 UNL     1     -30.310 -11.467  -2.103  1.00  0.00     0.019 C
HETATM   22  C14 UNL     1     -32.542 -13.386  -2.704  1.00  0.00    -0.013 C
HETATM   23  C15 UNL     1     -31.186 -13.949  -2.477  1.00  0.00     0.009 C
HETATM   24  C17 UNL     1     -32.792 -13.595  -1.203  1.00  0.00     0.009 C
HETATM   25  C16 UNL     1     -31.266 -13.480  -1.051  1.00  0.00    -0.013 C
HETATM   26  C18 UNL     1     -30.908 -12.049  -0.853  1.00  0.00     0.012 C
ENDBRANCH  16  17
ENDBRANCH  14  16
ENDBRANCH   3   4
TORSDOF 3
ENDMDL