MODEL 5
REMARK VINA RESULT: -8.116012443      3.626      4.735
REMARK  1 active torsions:
REMARK  status: ('A' for Active; 'I' for Inactive)
REMARK    1  A    between atoms: C8_16  and  C9_17
ROOT
HETATM    1  C1  UNL     1     -25.754 -11.001   0.606  1.00  0.00     0.143 A
HETATM    2  C2  UNL     1     -25.549  -9.756   1.135  1.00  0.00     0.039 A
HETATM    3  C3  UNL     1     -26.721  -9.062   0.949  1.00  0.00     0.001 A
HETATM    4  C4  UNL     1     -27.168  -7.793   1.245  1.00  0.00     0.029 A
HETATM    5  C5  UNL     1     -28.433  -7.341   0.937  1.00  0.00     0.012 A
HETATM    6  C6  UNL     1     -28.849  -6.000   1.270  1.00  0.00     0.147 A
HETATM    7  N1  UNL     1     -28.168  -5.027   1.877  1.00  0.00    -0.268 N
ATOM      8  H1  UNL     1     -27.206  -5.098   2.210  1.00  0.00     0.190 HD
HETATM    9  N2  UNL     1     -28.952  -3.936   1.982  1.00  0.00    -0.227 N
ATOM     10  H2  UNL     1     -28.693  -3.044   2.403  1.00  0.00     0.210 HD
HETATM   11  N3  UNL     1     -30.114  -4.236   1.440  1.00  0.00    -0.227 N
ATOM     12  H3  UNL     1     -30.917  -3.612   1.368  1.00  0.00     0.210 HD
HETATM   13  N4  UNL     1     -30.062  -5.482   1.006  1.00  0.00    -0.268 N
ATOM     14  H4  UNL     1     -30.825  -5.976   0.543  1.00  0.00     0.190 HD
HETATM   15  C7  UNL     1     -29.277  -8.230   0.300  1.00  0.00     0.026 A
HETATM   16  C8  UNL     1     -28.910  -9.511  -0.030  1.00  0.00    -0.014 A
HETATM   17  C19 UNL     1     -27.625  -9.914   0.304  1.00  0.00     0.092 A
HETATM   18  O1  UNL     1     -26.956 -11.025   0.149  1.00  0.00    -0.321 OA
ENDROOT
BRANCH  16  19
HETATM   19  C9  UNL     1     -29.860 -10.393  -0.704  1.00  0.00    -0.009 C
HETATM   20  C10 UNL     1     -31.015  -9.535  -1.191  1.00  0.00     0.019 C
HETATM   21  C11 UNL     1     -32.092 -10.406  -1.793  1.00  0.00    -0.013 C
HETATM   22  C12 UNL     1     -31.490 -11.106  -2.986  1.00  0.00     0.009 C
HETATM   23  C16 UNL     1     -32.584 -11.406  -0.802  1.00  0.00     0.009 C
HETATM   24  C13 UNL     1     -30.364 -11.986  -2.496  1.00  0.00    -0.013 C
HETATM   25  C14 UNL     1     -30.858 -13.036  -1.523  1.00  0.00     0.009 C
HETATM   26  C18 UNL     1     -29.262 -11.174  -1.847  1.00  0.00     0.019 C
HETATM   27  C15 UNL     1     -31.455 -12.304  -0.360  1.00  0.00    -0.013 C
HETATM   28  C17 UNL     1     -30.369 -11.450   0.272  1.00  0.00     0.019 C
ENDBRANCH  16  19
TORSDOF 1
ENDMDL