MODEL 3
REMARK VINA RESULT: -6.456815948      2.601      6.317
REMARK  2 active torsions:
REMARK  status: ('A' for Active; 'I' for Inactive)
REMARK    1  A    between atoms: C2_2  and  C3_3
REMARK    2  A    between atoms: C3_3  and  C4_4
ROOT
HETATM    1  C4  UNL     1     -31.632 -10.436   0.476  1.00  0.00     0.109 C
HETATM    2  C5  UNL     1     -30.756 -11.494   0.986  1.00  0.00     0.099 C
HETATM    3  N1  UNL     1     -29.495 -11.378   1.108  1.00  0.00    -0.366 N
ATOM      4  H1  UNL     1     -28.966 -12.173   1.468  1.00  0.00     0.165 HD
HETATM    5  C6  UNL     1     -28.791 -10.196   0.766  1.00  0.00     0.046 A
HETATM    6  C7  UNL     1     -27.410 -10.181   0.831  1.00  0.00     0.053 A
HETATM    7  C8  UNL     1     -26.713  -9.064   0.409  1.00  0.00     0.046 A
HETATM    8  C9  UNL     1     -25.281  -9.055   0.479  1.00  0.00     0.099 C
HETATM    9  N2  UNL     1     -24.123  -9.036   0.546  1.00  0.00    -0.191 NA
HETATM   10  C10 UNL     1     -27.390  -7.970  -0.073  1.00  0.00     0.024 A
HETATM   11  C11 UNL     1     -28.794  -8.009  -0.127  1.00  0.00     0.018 A
HETATM   12  C12 UNL     1     -29.484  -9.108   0.289  1.00  0.00     0.023 A
HETATM   13  C13 UNL     1     -30.950  -9.100   0.319  1.00  0.00     0.092 C
HETATM   14  O1  UNL     1     -31.531  -8.236  -0.523  1.00  0.00    -0.349 OA
HETATM   15  C14 UNL     1     -32.454  -8.592  -1.420  1.00  0.00     0.206 C
HETATM   16  C15 UNL     1     -32.495 -10.043  -1.802  1.00  0.00     0.049 C
HETATM   17  C16 UNL     1     -33.952 -10.371  -2.080  1.00  0.00     0.033 C
HETATM   18  C17 UNL     1     -34.377  -9.476  -3.232  1.00  0.00     0.002 C
HETATM   19  C18 UNL     1     -33.714 -10.106  -4.437  1.00  0.00     0.000 C
HETATM   20  C19 UNL     1     -32.220 -10.112  -4.340  1.00  0.00     0.002 C
HETATM   21  C20 UNL     1     -31.624 -10.250  -3.018  1.00  0.00     0.033 C
HETATM   22  N3  UNL     1     -32.076 -10.945  -0.811  1.00  0.00    -0.392 N
ATOM     23  H3  UNL     1     -32.083 -11.948  -0.993  1.00  0.00     0.155 HD
ENDROOT
BRANCH   1  24
HETATM   24  C3  UNL     1     -32.796 -10.147   1.374  1.00  0.00     0.043 C
BRANCH  24  25
HETATM   25  C2  UNL     1     -32.663  -9.414   2.622  1.00  0.00    -0.001 C
HETATM   26  C1  UNL     1     -33.406  -9.875   3.835  1.00  0.00     0.005 C
ENDBRANCH  24  25
ENDBRANCH   1  24
TORSDOF 2
ENDMDL