MODEL 1
REMARK VINA RESULT: -8.394696180      0.000      0.000
REMARK  2 active torsions:
REMARK  status: ('A' for Active; 'I' for Inactive)
REMARK    1  A    between atoms: C5_6  and  C6_7
REMARK    2  A    between atoms: C7_11  and  C8_12
ROOT
HETATM    1  C6  UNL     1     -29.654 -10.542   0.242  1.00  0.00     0.039 A
HETATM    2  N1  UNL     1     -28.374 -10.726   0.238  1.00  0.00    -0.296 N
ATOM      3  H1  UNL     1     -28.014 -11.665   0.066  1.00  0.00     0.187 HD
HETATM    4  N2  UNL     1     -27.467  -9.692   0.460  1.00  0.00    -0.246 N
HETATM    5  C7  UNL     1     -26.099  -9.752   0.481  1.00  0.00     0.055 A
HETATM    6  C14 UNL     1     -25.692  -8.466   0.739  1.00  0.00     0.117 A
HETATM    7  N3  UNL     1     -26.787  -7.701   0.859  1.00  0.00    -0.352 N
ATOM      8  H3  UNL     1     -26.785  -6.699   1.052  1.00  0.00     0.166 HD
HETATM    9  C15 UNL     1     -27.901  -8.462   0.686  1.00  0.00     0.103 A
HETATM   10  C16 UNL     1     -29.339  -8.098   0.721  1.00  0.00     0.084 A
HETATM   11  C17 UNL     1     -30.264  -9.213   0.482  1.00  0.00     0.067 A
ENDROOT
BRANCH   1  12
HETATM   12  C5  UNL     1     -30.576 -11.667   0.002  1.00  0.00     0.012 A
HETATM   13  C4  UNL     1     -30.851 -12.313  -1.179  1.00  0.00    -0.014 A
HETATM   14  C3  UNL     1     -30.478 -12.289  -2.622  1.00  0.00     0.049 C
HETATM   15  C19 UNL     1     -31.774 -13.312  -0.957  1.00  0.00     0.085 A
HETATM   16  C2  UNL     1     -31.609 -13.045  -3.285  1.00  0.00     0.090 C
HETATM   17  C1  UNL     1     -32.053 -13.991  -2.229  1.00  0.00     0.176 C
HETATM   18  O1  UNL     1     -32.562 -15.128  -2.333  1.00  0.00    -0.291 OA
HETATM   19  N4  UNL     1     -32.075 -13.284   0.372  1.00  0.00    -0.362 N
HETATM   20  C18 UNL     1     -31.356 -12.301   0.939  1.00  0.00     0.102 A
ATOM     21  H4  UNL     1     -32.731 -13.902   0.851  1.00  0.00     0.165 HD
ENDBRANCH   1  12
BRANCH   5  22
HETATM   22  C8  UNL     1     -25.239 -10.940   0.274  1.00  0.00     0.039 C
HETATM   23  C9  UNL     1     -23.785 -10.502   0.208  1.00  0.00     0.011 C
HETATM   24  C10 UNL     1     -22.903 -11.732   0.097  1.00  0.00     0.001 C
HETATM   25  C11 UNL     1     -23.226 -12.378  -1.248  1.00  0.00     0.000 C
HETATM   26  C12 UNL     1     -24.676 -12.843  -1.151  1.00  0.00     0.001 C
HETATM   27  C13 UNL     1     -25.586 -11.659  -1.011  1.00  0.00     0.011 C
ENDBRANCH   5  22
TORSDOF 2
ENDMDL