MODEL 3
REMARK VINA RESULT: -6.444305135      1.720      2.405
REMARK  2 active torsions:
REMARK  status: ('A' for Active; 'I' for Inactive)
REMARK    1  A    between atoms: C7_7  and  C8_8
REMARK    2  A    between atoms: C10_15  and  C11_16
ROOT
HETATM    1  C8  UNL     1     -28.869 -10.012  -0.600  1.00  0.00     0.014 C
HETATM    2  N1  UNL     1     -28.435  -8.771  -0.660  1.00  0.00    -0.337 N
ATOM      3  H1  UNL     1     -28.739  -8.212  -1.457  1.00  0.00     0.168 HD
HETATM    4  C9  UNL     1     -27.596  -8.152   0.267  1.00  0.00     0.172 C
HETATM    5  S1  UNL     1     -27.090  -6.602   0.141  1.00  0.00    -0.041 SA
HETATM    6  N2  UNL     1     -27.154  -8.905   1.388  1.00  0.00    -0.356 N
ATOM      7  H2  UNL     1     -26.820  -8.454   2.240  1.00  0.00     0.162 HD
HETATM    8  C10 UNL     1     -27.203 -10.341   1.258  1.00  0.00     0.147 C
HETATM    9  C14 UNL     1     -28.437 -10.828   0.521  1.00  0.00     0.089 C
ENDROOT
BRANCH   1  10
HETATM   10  C7  UNL     1     -29.746 -10.501  -1.660  1.00  0.00     0.028 C
HETATM   11  C6  UNL     1     -30.883 -10.100  -2.087  1.00  0.00    -0.078 C
HETATM   12  C5  UNL     1     -31.479 -10.912  -3.244  1.00  0.00     0.035 C
HETATM   13  C15 UNL     1     -31.658  -8.976  -1.618  1.00  0.00     0.035 C
HETATM   14  C4  UNL     1     -32.947 -11.071  -2.888  1.00  0.00     0.013 C
HETATM   15  C2  UNL     1     -33.610  -9.741  -3.028  1.00  0.00    -0.047 C
HETATM   16  C1  UNL     1     -34.912  -9.779  -2.217  1.00  0.00     0.015 C
HETATM   17  C3  UNL     1     -34.054  -9.612  -4.488  1.00  0.00     0.015 C
HETATM   18  C16 UNL     1     -32.772  -8.590  -2.597  1.00  0.00     0.013 C
ENDBRANCH   1  10
BRANCH   8  19
HETATM   19  C11 UNL     1     -25.952 -10.768   0.546  1.00  0.00     0.074 A
HETATM   20  N3  UNL     1     -25.819 -11.810  -0.259  1.00  0.00    -0.361 N
HETATM   21  C12 UNL     1     -24.672 -12.059  -0.807  1.00  0.00     0.096 A
ATOM     22  H3  UNL     1     -26.617 -12.416  -0.447  1.00  0.00     0.165 HD
HETATM   23  C13 UNL     1     -23.630 -11.212  -0.520  1.00  0.00     0.068 A
HETATM   24  S2  UNL     1     -24.385 -10.095   0.537  1.00  0.00    -0.085 SA
ENDBRANCH   8  19
TORSDOF 2
ENDMDL