MODEL 5
REMARK VINA RESULT: -5.957366800      3.164      7.218
REMARK  3 active torsions:
REMARK  status: ('A' for Active; 'I' for Inactive)
REMARK    1  A    between atoms: O1_2  and  C2_3
REMARK    2  A    between atoms: C4_8  and  C5_9
REMARK    3  A    between atoms: C13_17  and  O3_18
ROOT
HETATM    1  C5  UNL     1     -29.553  -8.753   0.526  1.00  0.00     0.052 C
HETATM    2  C6  UNL     1     -30.228  -7.697  -0.408  1.00  0.00     0.012 C
HETATM    3  C7  UNL     1     -30.642  -6.507   0.393  1.00  0.00     0.010 C
HETATM    4  C8  UNL     1     -29.509  -5.693   0.900  1.00  0.00     0.023 C
HETATM    5  C9  UNL     1     -28.584  -6.416   1.796  1.00  0.00    -0.078 C
HETATM    6  C10 UNL     1     -28.531  -6.198   3.108  1.00  0.00    -0.023 C
HETATM    7  C11 UNL     1     -29.370  -5.224   3.850  1.00  0.00     0.035 C
HETATM    8  C12 UNL     1     -30.539  -4.868   3.001  1.00  0.00     0.027 C
HETATM    9  C13 UNL     1     -31.283  -3.640   3.428  1.00  0.00     0.123 C
HETATM   10  C14 UNL     1     -31.637  -2.885   2.152  1.00  0.00     0.033 C
HETATM   11  C15 UNL     1     -31.247  -3.863   1.030  1.00  0.00     0.013 C
HETATM   12  C16 UNL     1     -30.024  -4.488   1.629  1.00  0.00    -0.030 C
HETATM   13  C17 UNL     1     -28.890  -3.494   1.673  1.00  0.00     0.016 C
HETATM   14  C18 UNL     1     -27.578  -7.439   1.472  1.00  0.00     0.039 C
HETATM   15  C19 UNL     1     -28.057  -8.404   0.464  1.00  0.00    -0.004 C
HETATM   16  C20 UNL     1     -27.193  -9.631   0.526  1.00  0.00     0.011 C
ENDROOT
BRANCH   1  17
HETATM   17  C4  UNL     1     -29.708 -10.003  -0.256  1.00  0.00     0.115 A
HETATM   18  C2  UNL     1     -30.324 -11.186   0.133  1.00  0.00     0.117 A
HETATM   19  C3  UNL     1     -30.197 -12.066  -0.920  1.00  0.00     0.153 A
HETATM   20  N1  UNL     1     -29.529 -11.397  -1.884  1.00  0.00    -0.269 N
HETATM   21  O2  UNL     1     -29.268 -10.209  -1.449  1.00  0.00    -0.239 OA
ATOM     22  H1  UNL     1     -29.273 -11.767  -2.799  1.00  0.00     0.194 HD
BRANCH  18  23
HETATM   23  O1  UNL     1     -30.945 -11.389   1.342  1.00  0.00    -0.352 OA
HETATM   24  C1  UNL     1     -32.312 -11.078   1.505  1.00  0.00     0.210 C
ENDBRANCH  18  23
ENDBRANCH   1  17
BRANCH   9  25
HETATM   25  O3  UNL     1     -30.614  -2.864   4.335  1.00  0.00    -0.395 OA
ATOM     26  H3  UNL     1     -31.009  -2.014   4.488  1.00  0.00     0.210 HD
ENDBRANCH   9  25
TORSDOF 3
ENDMDL