MODEL 2
REMARK VINA RESULT: -8.150088396      1.281      1.536
REMARK  3 active torsions:
REMARK  status: ('A' for Active; 'I' for Inactive)
REMARK    1  A    between atoms: C4_6  and  C5_7
REMARK    2  A    between atoms: C6_12  and  N3_13
REMARK    3  A    between atoms: N4_20  and  C13_21
ROOT
HETATM    1  C5  UNL     1     -26.440  -3.362   3.726  1.00  0.00     0.151 A
HETATM    2  N1  UNL     1     -27.355  -2.660   2.990  1.00  0.00    -0.270 N
ATOM      3  H1  UNL     1     -27.531  -1.658   3.066  1.00  0.00     0.189 HD
HETATM    4  N2  UNL     1     -27.969  -3.478   2.172  1.00  0.00    -0.130 N
ATOM      5  H2  UNL     1     -28.698  -3.205   1.513  1.00  0.00     0.205 HD
HETATM    6  C6  UNL     1     -27.507  -4.712   2.323  1.00  0.00     0.696 A
HETATM    7  N5  UNL     1     -26.551  -4.619   3.299  1.00  0.00    -0.173 N
ATOM      8  H5  UNL     1     -26.002  -5.403   3.650  1.00  0.00     0.186 HD
ENDROOT
BRANCH   6   9
HETATM    9  N3  UNL     1     -27.857  -5.911   1.652  1.00  0.00    -0.216 N
HETATM   10  C7  UNL     1     -28.679  -5.806   0.451  1.00  0.00     0.141 C
HETATM   11  C8  UNL     1     -28.344  -6.941  -0.476  1.00  0.00     0.021 C
HETATM   12  C9  UNL     1     -26.907  -7.324  -0.295  1.00  0.00     0.013 C
HETATM   13  C10 UNL     1     -26.656  -7.976   1.020  1.00  0.00    -0.020 C
HETATM   14  C11 UNL     1     -25.205  -7.850   1.440  1.00  0.00     0.041 C
HETATM   15  C20 UNL     1     -27.074  -9.407   1.120  1.00  0.00     0.041 C
HETATM   16  C21 UNL     1     -27.479  -7.231   2.078  1.00  0.00     0.151 C
HETATM   17  C12 UNL     1     -24.337  -8.841   0.685  1.00  0.00     0.273 C
HETATM   18  N4  UNL     1     -24.829 -10.195   0.846  1.00  0.00     0.093 N
HETATM   19  C19 UNL     1     -26.186 -10.321   0.352  1.00  0.00     0.273 C
BRANCH  18  20
HETATM   20  C13 UNL     1     -23.927 -11.101   0.192  1.00  0.00     0.223 C
HETATM   21  C14 UNL     1     -22.561 -10.561  -0.079  1.00  0.00     0.036 C
HETATM   22  C15 UNL     1     -21.699 -11.704  -0.586  1.00  0.00     0.002 C
HETATM   23  C16 UNL     1     -22.281 -12.127  -1.929  1.00  0.00     0.000 C
HETATM   24  C17 UNL     1     -23.685 -12.656  -1.759  1.00  0.00     0.002 C
HETATM   25  C18 UNL     1     -24.564 -11.673  -1.022  1.00  0.00     0.036 C
ENDBRANCH  18  20
ENDBRANCH   6   9
BRANCH   1  26
HETATM   26  C4  UNL     1     -25.550  -2.782   4.726  1.00  0.00     0.070 A
HETATM   27  C3  UNL     1     -25.285  -3.323   5.954  1.00  0.00     0.135 A
HETATM   28  C2  UNL     1     -24.419  -2.711   6.865  1.00  0.00     0.085 A
HETATM   29  F2  UNL     1     -25.862  -4.494   6.327  1.00  0.00    -0.205 F
HETATM   30  C1  UNL     1     -23.786  -1.526   6.570  1.00  0.00     0.120 A
HETATM   31  F1  UNL     1     -22.952  -0.954   7.471  1.00  0.00    -0.206 F
HETATM   32  C23 UNL     1     -24.049  -0.979   5.339  1.00  0.00     0.067 A
HETATM   33  C22 UNL     1     -24.903  -1.579   4.437  1.00  0.00     0.054 A
HETATM   34 CL1  UNL     1     -25.230  -0.856   2.871  1.00  0.00    -0.083 Cl
ENDBRANCH   1  26
TORSDOF 3
ENDMDL