MODEL 3
REMARK VINA RESULT: -6.937029089      3.717      8.364
REMARK  7 active torsions:
REMARK  status: ('A' for Active; 'I' for Inactive)
REMARK    1  A    between atoms: C2_2  and  C5_5
REMARK    2  A    between atoms: C7_7  and  C8_8
REMARK    3  A    between atoms: C9_14  and  N2_15
REMARK    4  A    between atoms: N2_15  and  N3_17
REMARK    5  A    between atoms: N3_17  and  C10_18
REMARK    6  A    between atoms: C10_18  and  C11_19
REMARK    7  A    between atoms: C14_23  and  C15_24
ROOT
HETATM    1  C5  UNL     1     -32.309 -12.715  -4.052  1.00  0.00     0.036 A
HETATM    2  C6  UNL     1     -33.026 -13.632  -3.317  1.00  0.00     0.056 A
HETATM    3  C7  UNL     1     -32.434 -14.300  -2.264  1.00  0.00     0.082 A
HETATM    4  N1  UNL     1     -31.152 -14.032  -1.983  1.00  0.00    -0.189 N
ATOM      5  H1  UNL     1     -30.699 -14.517  -1.208  1.00  0.00     0.184 HD
HETATM    6  C9  UNL     1     -30.449 -13.139  -2.698  1.00  0.00     0.707 A
HETATM    7  N4  UNL     1     -31.025 -12.495  -3.715  1.00  0.00    -0.193 N
ATOM      8  H4  UNL     1     -30.478 -11.820  -4.250  1.00  0.00     0.184 HD
ENDROOT
BRANCH   6   9
HETATM    9  N2  UNL     1     -29.185 -12.906  -2.372  1.00  0.00    -0.065 N
ATOM     10  H2  UNL     1     -28.579 -13.720  -2.276  1.00  0.00     0.221 HD
BRANCH   9  11
HETATM   11  N3  UNL     1     -28.651 -11.772  -2.166  1.00  0.00    -0.323 NA
BRANCH  11  12
HETATM   12  C10 UNL     1     -28.158 -10.688  -1.978  1.00  0.00     0.229 C
BRANCH  12  13
HETATM   13  C11 UNL     1     -29.061  -9.504  -1.785  1.00  0.00     0.046 A
HETATM   14  S1  UNL     1     -30.547  -9.250  -2.627  1.00  0.00    -0.099 SA
HETATM   15  C12 UNL     1     -31.079  -7.870  -1.795  1.00  0.00     0.051 A
HETATM   16  C13 UNL     1     -30.094  -7.643  -0.892  1.00  0.00     0.020 A
HETATM   17  C14 UNL     1     -29.026  -8.499  -0.884  1.00  0.00    -0.010 A
BRANCH  17  18
HETATM   18  C15 UNL     1     -27.853  -8.197  -0.013  1.00  0.00    -0.050 C
HETATM   19  C16 UNL     1     -27.125  -9.072   0.613  1.00  0.00    -0.019 C
HETATM   20  C17 UNL     1     -25.980  -8.535   1.450  1.00  0.00     0.028 C
HETATM   21  C18 UNL     1     -25.207  -7.470   0.749  1.00  0.00     0.004 C
HETATM   22  C19 UNL     1     -26.033  -6.632  -0.204  1.00  0.00     0.005 C
HETATM   23  C20 UNL     1     -27.476  -6.759   0.235  1.00  0.00     0.039 C
ENDBRANCH  17  18
ENDBRANCH  12  13
ENDBRANCH  11  12
ENDBRANCH   9  11
ENDBRANCH   6   9
BRANCH   3  24
HETATM   24  C8  UNL     1     -33.136 -15.294  -1.419  1.00  0.00     0.231 C
HETATM   25 CL1  UNL     1     -32.413 -16.925  -1.547  1.00  0.00    -0.077 Cl
HETATM   26 CL2  UNL     1     -33.104 -14.777   0.286  1.00  0.00    -0.077 Cl
HETATM   27 CL3  UNL     1     -34.819 -15.396  -1.967  1.00  0.00    -0.077 Cl
ENDBRANCH   3  24
BRANCH   1  28
HETATM   28  C2  UNL     1     -32.983 -12.023  -5.168  1.00  0.00    -0.008 C
HETATM   29  C1  UNL     1     -33.299 -10.591  -4.820  1.00  0.00     0.021 C
HETATM   30  C3  UNL     1     -32.058 -12.095  -6.377  1.00  0.00     0.021 C
HETATM   31  C4  UNL     1     -34.286 -12.697  -5.538  1.00  0.00     0.021 C
ENDBRANCH   1  28
TORSDOF 7
ENDMDL