MODEL 5
REMARK VINA RESULT: -6.639783811      2.652      3.416
REMARK  4 active torsions:
REMARK  status: ('A' for Active; 'I' for Inactive)
REMARK    1  A    between atoms: N1_12  and  O1_14
REMARK    2  A    between atoms: O1_14  and  C12_15
REMARK    3  A    between atoms: C12_15  and  C13_16
REMARK    4  A    between atoms: C21_28  and  O3_29
ROOT
HETATM    1  C1  UNL     1     -34.371  -8.327  -4.033  1.00  0.00     0.013 C
HETATM    2  C2  UNL     1     -32.884  -8.471  -3.854  1.00  0.00     0.017 C
HETATM    3  C3  UNL     1     -32.198  -7.256  -3.389  1.00  0.00     0.007 C
HETATM    4  C4  UNL     1     -30.758  -7.402  -3.025  1.00  0.00     0.001 C
HETATM    5  C5  UNL     1     -30.378  -8.772  -2.567  1.00  0.00     0.008 C
HETATM    6  C6  UNL     1     -31.023  -9.884  -3.366  1.00  0.00     0.030 C
HETATM    7  C7  UNL     1     -30.238 -11.077  -3.194  1.00  0.00     0.042 C
HETATM    8  C8  UNL     1     -30.633 -12.341  -3.853  1.00  0.00     0.029 C
HETATM    9  C9  UNL     1     -30.609 -12.961  -2.494  1.00  0.00     0.028 C
HETATM   10  C10 UNL     1     -29.700 -14.160  -2.377  1.00  0.00     0.025 C
HETATM   11  C11 UNL     1     -30.012 -11.701  -1.904  1.00  0.00     0.026 C
HETATM   12  N1  UNL     1     -29.571 -11.605  -0.710  1.00  0.00    -0.273 N
ATOM     13  H1  UNL     1     -29.676 -12.454  -0.155  1.00  0.00     0.193 HD
HETATM   14  C15 UNL     1     -31.972 -13.217  -1.935  1.00  0.00     0.066 C
HETATM   15  C16 UNL     1     -32.030 -13.192  -0.434  1.00  0.00     0.047 C
HETATM   16  C17 UNL     1     -32.308 -14.669  -2.325  1.00  0.00     0.047 C
HETATM   17  O2  UNL     1     -32.874 -12.436  -2.574  1.00  0.00    -0.379 OA
HETATM   18  C18 UNL     1     -33.596 -11.555  -1.842  1.00  0.00     0.176 C
HETATM   19  C19 UNL     1     -33.017 -10.121  -1.898  1.00  0.00     0.040 C
HETATM   20  C20 UNL     1     -34.092  -9.291  -1.299  1.00  0.00     0.015 C
HETATM   21  C21 UNL     1     -32.485  -9.794  -3.226  1.00  0.00     0.071 C
ENDROOT
BRANCH  12  22
HETATM   22  O1  UNL     1     -28.998 -10.595  -0.061  1.00  0.00    -0.275 OA
BRANCH  22  23
HETATM   23  C12 UNL     1     -27.844 -10.641   0.743  1.00  0.00     0.255 C
BRANCH  23  24
HETATM   24  C13 UNL     1     -26.971  -9.482   0.442  1.00  0.00     0.071 C
HETATM   25 CL1  UNL     1     -27.616  -8.023  -0.248  1.00  0.00    -0.084 Cl
HETATM   26  C14 UNL     1     -25.671  -9.548   0.702  1.00  0.00     0.123 C
HETATM   27 CL2  UNL     1     -24.576  -8.221   0.376  1.00  0.00    -0.069 Cl
HETATM   28 CL3  UNL     1     -24.953 -11.008   1.406  1.00  0.00    -0.069 Cl
ENDBRANCH  23  24
ENDBRANCH  22  23
ENDBRANCH  12  22
BRANCH  21  29
HETATM   29  O3  UNL     1     -33.164 -10.677  -4.131  1.00  0.00    -0.389 OA
ATOM     30  H3  UNL     1     -32.543 -11.395  -4.124  1.00  0.00     0.210 HD
ENDBRANCH  21  29
TORSDOF 4
ENDMDL