MODEL 2
REMARK VINA RESULT: -7.208403064      3.109      6.742
REMARK  3 active torsions:
REMARK  status: ('A' for Active; 'I' for Inactive)
REMARK    1  A    between atoms: C4_5  and  N1_6
REMARK    2  A    between atoms: C5_7  and  C6_8
REMARK    3  A    between atoms: C10_20  and  C11_21
ROOT
HETATM    1  N1  UNL     1     -29.830  -9.985  -1.489  1.00  0.00    -0.267 N
HETATM    2  C5  UNL     1     -29.898 -11.262  -1.891  1.00  0.00     0.157 A
HETATM    3  N3  UNL     1     -28.676 -11.811  -1.548  1.00  0.00    -0.282 N
ATOM      4  H3  UNL     1     -28.401 -12.778  -1.721  1.00  0.00     0.188 HD
HETATM    5  N4  UNL     1     -27.944 -10.935  -0.984  1.00  0.00    -0.286 N
ATOM      6  H4  UNL     1     -26.998 -11.094  -0.637  1.00  0.00     0.188 HD
HETATM    7  C10 UNL     1     -28.620  -9.751  -0.916  1.00  0.00     0.114 A
ENDROOT
BRANCH   7   8
HETATM    8  C11 UNL     1     -28.078  -8.560  -0.281  1.00  0.00     0.021 C
HETATM    9  C12 UNL     1     -26.706  -8.953   0.368  1.00  0.00     0.022 C
HETATM   10  C13 UNL     1     -26.170  -7.850   1.216  1.00  0.00    -0.013 C
HETATM   11  C14 UNL     1     -25.858  -6.615   0.356  1.00  0.00     0.009 C
HETATM   12  C18 UNL     1     -27.084  -7.364   2.299  1.00  0.00     0.009 C
HETATM   13  C15 UNL     1     -27.142  -6.276  -0.332  1.00  0.00    -0.013 C
HETATM   14  C16 UNL     1     -28.183  -5.848   0.680  1.00  0.00     0.009 C
HETATM   15  C20 UNL     1     -27.728  -7.417  -1.149  1.00  0.00     0.022 C
HETATM   16  C17 UNL     1     -28.415  -6.983   1.635  1.00  0.00    -0.013 C
HETATM   17  C19 UNL     1     -28.903  -8.235   0.955  1.00  0.00     0.022 C
ENDBRANCH   7   8
BRANCH   1  18
HETATM   18  C4  UNL     1     -30.805  -8.990  -1.719  1.00  0.00     0.114 A
HETATM   19  C3  UNL     1     -30.710  -8.267  -2.932  1.00  0.00     0.051 A
HETATM   20  C2  UNL     1     -31.606  -7.286  -3.286  1.00  0.00     0.029 A
HETATM   21  C1  UNL     1     -32.638  -6.992  -2.425  1.00  0.00     0.049 A
HETATM   22 CL1  UNL     1     -33.764  -5.741  -2.827  1.00  0.00    -0.083 Cl
HETATM   23  C21 UNL     1     -32.734  -7.699  -1.226  1.00  0.00     0.113 A
HETATM   24  N5  UNL     1     -31.831  -8.633  -0.953  1.00  0.00    -0.350 N
ATOM     25  H5  UNL     1     -31.935  -9.127  -0.067  1.00  0.00     0.166 HD
ENDBRANCH   1  18
BRANCH   2  26
HETATM   26  C6  UNL     1     -30.950 -12.001  -2.565  1.00  0.00     0.081 A
HETATM   27  C7  UNL     1     -31.754 -11.674  -3.619  1.00  0.00     0.060 A
HETATM   28  C8  UNL     1     -32.673 -12.710  -3.830  1.00  0.00     0.074 A
HETATM   29 CL2  UNL     1     -33.926 -12.767  -5.054  1.00  0.00    -0.081 Cl
HETATM   30  C9  UNL     1     -32.396 -13.680  -2.855  1.00  0.00     0.126 A
HETATM   31 CL3  UNL     1     -33.272 -15.171  -2.689  1.00  0.00    -0.063 Cl
HETATM   32  N2  UNL     1     -31.370 -13.236  -2.124  1.00  0.00    -0.342 N
ATOM     33  H2  UNL     1     -30.954 -13.743  -1.343  1.00  0.00     0.167 HD
ENDBRANCH   2  26
TORSDOF 3
ENDMDL