MODEL 3
REMARK VINA RESULT: -7.593021183      1.360      1.556
REMARK  3 active torsions:
REMARK  status: ('A' for Active; 'I' for Inactive)
REMARK    1  A    between atoms: C4_6  and  C5_7
REMARK    2  A    between atoms: C5_7  and  N1_8
REMARK    3  A    between atoms: N1_8  and  C6_10
ROOT
HETATM    1  C6  UNL     1     -30.139 -11.284  -0.986  1.00  0.00     0.109 C
HETATM    2  C7  UNL     1     -31.197 -10.252  -1.080  1.00  0.00     0.201 C
HETATM    3  O1  UNL     1     -31.099  -9.419   0.110  1.00  0.00    -0.349 OA
HETATM    4  C8  UNL     1     -29.871  -8.722   0.245  1.00  0.00     0.076 A
HETATM    5  C9  UNL     1     -29.902  -7.400   0.404  1.00  0.00     0.039 A
HETATM    6  C10 UNL     1     -28.649  -6.697   0.533  1.00  0.00     0.022 A
HETATM    7  C11 UNL     1     -27.531  -7.566   0.504  1.00  0.00     0.017 A
HETATM    8  S1  UNL     1     -25.864  -7.080   0.590  1.00  0.00    -0.093 SA
HETATM    9  C12 UNL     1     -25.165  -8.577   0.420  1.00  0.00    -0.010 A
HETATM   10  C13 UNL     1     -26.211  -9.452   0.311  1.00  0.00    -0.033 A
HETATM   11  C14 UNL     1     -27.487  -8.903   0.357  1.00  0.00    -0.003 A
HETATM   12  C15 UNL     1     -28.732  -9.543   0.206  1.00  0.00    -0.011 A
HETATM   13  C16 UNL     1     -28.961 -10.967  -0.092  1.00  0.00     0.069 C
HETATM   14  C17 UNL     1     -25.732 -10.899   0.247  1.00  0.00     0.040 C
HETATM   15  C18 UNL     1     -24.724 -10.993   1.441  1.00  0.00     0.005 C
HETATM   16  C19 UNL     1     -23.424 -10.350   0.943  1.00  0.00     0.005 C
HETATM   17  C20 UNL     1     -23.714  -9.038   0.315  1.00  0.00     0.046 C
ENDROOT
BRANCH   1  18
HETATM   18  N1  UNL     1     -30.600 -12.603  -0.932  1.00  0.00    -0.391 N
ATOM     19  H1  UNL     1     -30.057 -13.376  -0.547  1.00  0.00     0.159 HD
BRANCH  18  20
HETATM   20  C5  UNL     1     -31.923 -12.752  -1.477  1.00  0.00     0.096 C
BRANCH  20  21
HETATM   21  C4  UNL     1     -32.541 -14.050  -1.291  1.00  0.00     0.002 A
HETATM   22  C3  UNL     1     -33.095 -14.380  -0.050  1.00  0.00     0.047 A
HETATM   23  C2  UNL     1     -33.529 -15.603   0.304  1.00  0.00     0.050 A
HETATM   24 CL2  UNL     1     -33.285 -13.026   1.064  1.00  0.00    -0.083 Cl
HETATM   25  C1  UNL     1     -33.435 -16.632  -0.603  1.00  0.00     0.057 A
HETATM   26 CL1  UNL     1     -33.999 -18.215  -0.144  1.00  0.00    -0.082 Cl
HETATM   27  C22 UNL     1     -32.901 -16.387  -1.854  1.00  0.00     0.056 A
HETATM   28  C21 UNL     1     -32.462 -15.088  -2.170  1.00  0.00     0.040 A
HETATM   29 CL3  UNL     1     -32.719 -17.737  -2.988  1.00  0.00    -0.083 Cl
ENDBRANCH  20  21
ENDBRANCH  18  20
ENDBRANCH   1  18
TORSDOF 3
ENDMDL