MODEL 1
REMARK VINA RESULT: -7.637397197      0.000      0.000
REMARK  4 active torsions:
REMARK  status: ('A' for Active; 'I' for Inactive)
REMARK    1  A    between atoms: C2_3  and  C12_23
REMARK    2  A    between atoms: N2_4  and  N3_6
REMARK    3  A    between atoms: N3_6  and  C3_8
REMARK    4  A    between atoms: C4_11  and  C5_12
ROOT
HETATM    1  N1  UNL     1     -23.662  -8.259   0.735  1.00  0.00    -0.190 NA
HETATM    2  C1  UNL     1     -24.082  -9.320   0.541  1.00  0.00     0.115 C
HETATM    3  C2  UNL     1     -24.613 -10.629   0.277  1.00  0.00     0.110 C
HETATM    4  N2  UNL     1     -25.876 -10.854   0.324  1.00  0.00    -0.292 N
ATOM      5  H2  UNL     1     -26.191 -11.804   0.127  1.00  0.00     0.187 HD
ENDROOT
BRANCH   3   6
HETATM    6  C12 UNL     1     -23.720 -11.776  -0.061  1.00  0.00     0.048 C
HETATM    7  C13 UNL     1     -22.290 -11.273  -0.120  1.00  0.00     0.011 C
HETATM    8  C14 UNL     1     -21.740 -11.704  -1.461  1.00  0.00     0.001 C
HETATM    9  C15 UNL     1     -22.647 -12.819  -1.868  1.00  0.00     0.001 C
HETATM   10  C16 UNL     1     -24.019 -12.279  -1.459  1.00  0.00     0.011 C
ENDBRANCH   3   6
BRANCH   4  11
HETATM   11  N3  UNL     1     -26.839  -9.916   0.618  1.00  0.00    -0.279 N
ATOM     12  H3  UNL     1     -26.659  -9.160   1.278  1.00  0.00     0.189 HD
BRANCH  11  13
HETATM   13  C3  UNL     1     -28.000 -10.034   0.013  1.00  0.00     0.163 A
HETATM   14  N4  UNL     1     -28.884 -11.029   0.114  1.00  0.00    -0.334 N
HETATM   15  C4  UNL     1     -29.990 -10.959  -0.573  1.00  0.00     0.054 A
ATOM     16  H4  UNL     1     -28.698 -11.830   0.718  1.00  0.00     0.168 HD
HETATM   17  C11 UNL     1     -30.172  -9.852  -1.366  1.00  0.00     0.083 A
HETATM   18  S1  UNL     1     -28.732  -8.964  -1.079  1.00  0.00    -0.062 SA
BRANCH  15  19
HETATM   19  C5  UNL     1     -31.101 -11.944  -0.470  1.00  0.00     0.036 A
HETATM   20  C6  UNL     1     -32.024 -11.915   0.520  1.00  0.00     0.048 A
HETATM   21 CL1  UNL     1     -32.105 -10.591   1.660  1.00  0.00    -0.083 Cl
HETATM   22  C7  UNL     1     -32.974 -12.926   0.620  1.00  0.00     0.026 A
HETATM   23  C8  UNL     1     -33.003 -13.954  -0.262  1.00  0.00     0.022 A
HETATM   24  C9  UNL     1     -32.084 -14.005  -1.268  1.00  0.00     0.033 A
HETATM   25 BR1  UNL     1     -32.113 -15.429  -2.502  1.00  0.00    -0.049 Br
HETATM   26  C10 UNL     1     -31.122 -12.982  -1.366  1.00  0.00     0.065 A
HETATM   27 CL2  UNL     1     -29.963 -13.209  -2.657  1.00  0.00    -0.082 Cl
ENDBRANCH  15  19
ENDBRANCH  11  13
ENDBRANCH   4  11
TORSDOF 4
ENDMDL