MODEL 5
REMARK VINA RESULT: -6.125937835      5.124      8.597
REMARK  4 active torsions:
REMARK  status: ('A' for Active; 'I' for Inactive)
REMARK    1  A    between atoms: O1_2  and  C2_3
REMARK    2  A    between atoms: C6_7  and  O2_8
REMARK    3  A    between atoms: C8_10  and  O3_11
REMARK    4  A    between atoms: C15_18  and  O4_19
ROOT
HETATM    1  C2  UNL     1     -28.262  -7.202  -0.079  1.00  0.00     0.104 A
HETATM    2  C3  UNL     1     -29.195  -7.582  -1.016  1.00  0.00     0.048 A
HETATM    3  C4  UNL     1     -29.317  -8.905  -1.407  1.00  0.00    -0.041 A
HETATM    4  C5  UNL     1     -28.434  -9.790  -0.781  1.00  0.00    -0.015 A
HETATM    5  C6  UNL     1     -27.504  -9.417   0.153  1.00  0.00     0.111 A
HETATM    6  C8  UNL     1     -27.405  -8.083   0.524  1.00  0.00     0.135 A
HETATM    7  C10 UNL     1     -28.315 -11.233  -1.042  1.00  0.00     0.042 C
HETATM    8  C11 UNL     1     -29.708 -11.816  -1.096  1.00  0.00     0.005 C
HETATM    9  C12 UNL     1     -30.193 -11.577  -2.539  1.00  0.00     0.010 C
HETATM   10  C13 UNL     1     -31.014 -10.358  -2.611  1.00  0.00     0.030 C
HETATM   11  C14 UNL     1     -31.889 -10.244  -3.808  1.00  0.00    -0.010 A
HETATM   12  C15 UNL     1     -31.817 -10.984  -4.936  1.00  0.00     0.096 A
HETATM   13  C16 UNL     1     -32.729 -10.736  -5.964  1.00  0.00     0.091 A
HETATM   14 CL1  UNL     1     -32.655 -11.684  -7.444  1.00  0.00    -0.079 Cl
HETATM   15  C17 UNL     1     -33.695  -9.758  -5.853  1.00  0.00     0.080 A
HETATM   16 CL2  UNL     1     -34.815  -9.480  -7.157  1.00  0.00    -0.081 Cl
HETATM   17  C18 UNL     1     -33.765  -9.014  -4.710  1.00  0.00     0.064 A
HETATM   18 CL3  UNL     1     -34.967  -7.759  -4.504  1.00  0.00    -0.082 Cl
HETATM   19  C19 UNL     1     -32.871  -9.252  -3.695  1.00  0.00    -0.025 A
HETATM   20  C20 UNL     1     -32.841  -8.505  -2.408  1.00  0.00     0.042 C
HETATM   21  C21 UNL     1     -31.443  -8.008  -2.096  1.00  0.00     0.015 C
HETATM   22  C22 UNL     1     -30.376  -9.043  -2.402  1.00  0.00     0.028 C
ENDROOT
BRANCH   1  23
HETATM   23  O1  UNL     1     -28.134  -5.858   0.321  1.00  0.00    -0.353 OA
HETATM   24  C1  UNL     1     -29.278  -5.195   0.766  1.00  0.00     0.210 C
ENDBRANCH   1  23
BRANCH   6  25
HETATM   25  O3  UNL     1     -26.478  -7.671   1.465  1.00  0.00    -0.351 OA
HETATM   26  C9  UNL     1     -25.226  -7.134   1.044  1.00  0.00     0.210 C
ENDBRANCH   6  25
BRANCH   5  27
HETATM   27  O2  UNL     1     -26.638 -10.319   0.766  1.00  0.00    -0.352 OA
HETATM   28  C7  UNL     1     -25.314 -10.568   0.316  1.00  0.00     0.210 C
ENDBRANCH   5  27
BRANCH  12  29
HETATM   29  O4  UNL     1     -30.862 -11.950  -5.053  1.00  0.00    -0.358 OA
ATOM     30  H4  UNL     1     -31.013 -12.698  -5.619  1.00  0.00     0.217 HD
ENDBRANCH  12  29
TORSDOF 4
ENDMDL