MODEL 1
REMARK VINA RESULT: -6.929195349      0.000      0.000
REMARK  6 active torsions:
REMARK  status: ('A' for Active; 'I' for Inactive)
REMARK    1  A    between atoms: O1_2  and  C2_3
REMARK    2  A    between atoms: C10_12  and  C12_14
REMARK    3  A    between atoms: C13_18  and  O3_19
REMARK    4  A    between atoms: C13_18  and  C14_21
REMARK    5  A    between atoms: C14_21  and  C15_22
REMARK    6  A    between atoms: C15_22  and  C16_23
ROOT
HETATM    1  C2  UNL     1     -31.932 -10.237  -0.664  1.00  0.00     0.131 C
HETATM    2  C3  UNL     1     -31.509 -11.538  -0.080  1.00  0.00     0.033 C
HETATM    3  C4  UNL     1     -30.099 -11.814   0.177  1.00  0.00     0.004 C
HETATM    4  C5  UNL     1     -29.302 -10.722   0.821  1.00  0.00     0.015 C
HETATM    5  C6  UNL     1     -28.929  -9.617  -0.117  1.00  0.00     0.021 C
HETATM    6  C7  UNL     1     -28.701 -10.069  -1.516  1.00  0.00     0.021 C
HETATM    7  C8  UNL     1     -30.036  -8.597  -0.115  1.00  0.00     0.150 C
HETATM    8  O2  UNL     1     -29.726  -7.846   1.073  1.00  0.00    -0.345 OA
HETATM    9  C9  UNL     1     -28.352  -7.560   0.966  1.00  0.00     0.088 C
HETATM   10  C10 UNL     1     -27.821  -6.429   1.366  1.00  0.00     0.002 C
HETATM   11  C11 UNL     1     -26.370  -6.143   1.241  1.00  0.00     0.051 C
HETATM   12  C13 UNL     1     -27.774  -8.779   0.342  1.00  0.00     0.116 C
HETATM   13  C20 UNL     1     -31.427  -8.998  -0.046  1.00  0.00     0.006 C
HETATM   14  C21 UNL     1     -32.055  -8.884   1.355  1.00  0.00     0.020 C
HETATM   15  C22 UNL     1     -32.172  -7.875  -0.826  1.00  0.00     0.020 C
ENDROOT
BRANCH  12  16
HETATM   16  O3  UNL     1     -27.086  -8.250  -0.777  1.00  0.00    -0.382 OA
ATOM     17  H3  UNL     1     -27.469  -7.418  -1.029  1.00  0.00     0.211 HD
ENDBRANCH  12  16
BRANCH  12  18
HETATM   18  C14 UNL     1     -26.795  -9.379   1.226  1.00  0.00     0.050 C
BRANCH  18  19
HETATM   19  C15 UNL     1     -26.063 -10.629   0.910  1.00  0.00     0.044 C
BRANCH  19  20
HETATM   20  C16 UNL     1     -24.643 -10.451   0.538  1.00  0.00    -0.034 A
HETATM   21  C17 UNL     1     -23.762 -11.368   0.069  1.00  0.00     0.033 A
HETATM   22  C18 UNL     1     -22.544 -10.738  -0.150  1.00  0.00     0.142 A
HETATM   23  O4  UNL     1     -22.721  -9.494   0.186  1.00  0.00    -0.334 OA
HETATM   24  C19 UNL     1     -23.935  -9.262   0.598  1.00  0.00     0.148 A
ENDBRANCH  19  20
ENDBRANCH  18  19
ENDBRANCH  12  18
BRANCH  10  25
HETATM   25  C12 UNL     1     -28.626  -5.358   1.995  1.00  0.00     0.214 C
HETATM   26 CL1  UNL     1     -27.501  -3.982   2.266  1.00  0.00    -0.079 Cl
HETATM   27 CL2  UNL     1     -29.835  -4.749   0.782  1.00  0.00    -0.079 Cl
HETATM   28 CL3  UNL     1     -29.450  -5.762   3.478  1.00  0.00    -0.079 Cl
ENDBRANCH  10  25
BRANCH   1  29
HETATM   29  O1  UNL     1     -33.340 -10.232  -0.399  1.00  0.00    -0.390 OA
HETATM   30  C1  UNL     1     -33.967 -11.382  -0.771  1.00  0.00     0.202 C
ENDBRANCH   1  29
TORSDOF 6
ENDMDL