MODEL 5
REMARK VINA RESULT: -6.794574780      2.102      2.788
REMARK  5 active torsions:
REMARK  status: ('A' for Active; 'I' for Inactive)
REMARK    1  A    between atoms: C9_11  and  C10_12
REMARK    2  A    between atoms: C13_18  and  N3_19
REMARK    3  A    between atoms: N3_19  and  C14_21
REMARK    4  A    between atoms: C17_27  and  C18_28
REMARK    5  A    between atoms: C18_28  and  C19_29
ROOT
HETATM    1  C10 UNL     1     -30.506  -9.658  -1.087  1.00  0.00     0.069 A
HETATM    2  C11 UNL     1     -29.513  -9.490  -2.248  1.00  0.00     0.122 A
HETATM    3 CL1  UNL     1     -29.366 -10.697  -3.498  1.00  0.00    -0.121 Cl
HETATM    4  C12 UNL     1     -29.120  -9.841  -0.860  1.00  0.00     0.068 A
HETATM    5  N2  UNL     1     -28.325 -10.942  -0.545  1.00  0.00    -0.367 N
ATOM      6  H2  UNL     1     -28.375 -11.936  -0.764  1.00  0.00     0.161 HD
HETATM    7  C13 UNL     1     -27.501 -10.217   0.132  1.00  0.00     0.086 A
HETATM    8  C17 UNL     1     -28.214  -8.948  -0.082  1.00  0.00     0.087 A
ENDROOT
BRANCH   1   9
HETATM    9  C9  UNL     1     -31.572 -10.638  -1.358  1.00  0.00    -0.038 A
HETATM   10  C2  UNL     1     -31.921 -11.938  -0.929  1.00  0.00     0.041 A
HETATM   11  C1  UNL     1     -30.982 -12.935  -1.869  1.00  0.00     0.031 C
HETATM   12  C3  UNL     1     -31.700 -12.515   0.375  1.00  0.00    -0.007 C
HETATM   13  C7  UNL     1     -33.208 -12.274  -1.545  1.00  0.00     0.025 A
HETATM   14  C4  UNL     1     -32.497 -13.512   0.828  1.00  0.00    -0.002 C
HETATM   15  C5  UNL     1     -33.635 -14.009   0.057  1.00  0.00     0.002 C
HETATM   16  C6  UNL     1     -33.994 -13.459  -1.108  1.00  0.00     0.026 C
HETATM   17  N1  UNL     1     -33.532 -11.278  -2.286  1.00  0.00    -0.368 N
HETATM   18  C8  UNL     1     -32.565 -10.249  -2.206  1.00  0.00     0.093 A
ATOM     19  H1  UNL     1     -34.376 -11.233  -2.858  1.00  0.00     0.165 HD
ENDBRANCH   1   9
BRANCH   8  20
HETATM   20  C18 UNL     1     -28.698  -8.233   1.114  1.00  0.00     0.044 C
BRANCH  20  21
HETATM   21  C19 UNL     1     -28.626  -6.781   1.120  1.00  0.00     0.010 C
HETATM   22  C20 UNL     1     -27.495  -6.145   1.337  1.00  0.00     0.099 C
HETATM   23 CL2  UNL     1     -25.961  -6.932   1.643  1.00  0.00    -0.071 Cl
HETATM   24 CL3  UNL     1     -27.459  -4.370   1.339  1.00  0.00    -0.071 Cl
ENDBRANCH  20  21
ENDBRANCH   8  20
BRANCH   7  25
HETATM   25  N3  UNL     1     -26.347 -10.610   0.816  1.00  0.00    -0.326 N
ATOM     26  H3  UNL     1     -26.456 -10.693   1.826  1.00  0.00     0.169 HD
BRANCH  25  27
HETATM   27  C14 UNL     1     -25.181 -10.882   0.380  1.00  0.00     0.149 A
HETATM   28  N4  UNL     1     -24.744 -11.686  -0.580  1.00  0.00    -0.346 N
HETATM   29  C15 UNL     1     -23.463 -11.764  -0.809  1.00  0.00     0.097 A
ATOM     30  H4  UNL     1     -25.402 -12.236  -1.131  1.00  0.00     0.167 HD
HETATM   31  C16 UNL     1     -22.622 -11.006  -0.042  1.00  0.00     0.070 A
HETATM   32  S1  UNL     1     -23.726 -10.204   0.988  1.00  0.00    -0.064 SA
ENDBRANCH  25  27
ENDBRANCH   7  25
TORSDOF 5
ENDMDL