MODEL 4
REMARK VINA RESULT: -7.781697001      2.046      2.377
REMARK  4 active torsions:
REMARK  status: ('A' for Active; 'I' for Inactive)
REMARK    1  A    between atoms: C2_2  and  C3_3
REMARK    2  A    between atoms: C9_12  and  N2_13
REMARK    3  A    between atoms: N2_13  and  C10_15
REMARK    4  A    between atoms: C12_19  and  C13_20
ROOT
HETATM    1  C3  UNL     1     -24.961  -9.592   1.061  1.00  0.00     0.020 C
HETATM    2  C4  UNL     1     -24.688  -8.161   0.506  1.00  0.00     0.088 C
HETATM    3  C5  UNL     1     -25.901  -7.596   0.091  1.00  0.00    -0.178 C
HETATM    4  C6  UNL     1     -27.277  -7.392  -0.257  1.00  0.00     0.124 C
HETATM    5  C7  UNL     1     -28.043  -8.643   0.122  1.00  0.00     0.018 A
HETATM    6  C8  UNL     1     -29.396  -8.454   0.186  1.00  0.00     0.128 A
HETATM    7 CL1  UNL     1     -29.994  -6.844  -0.171  1.00  0.00    -0.063 Cl
HETATM    8  N1  UNL     1     -30.190  -9.490   0.519  1.00  0.00    -0.180 N
ATOM      9  H1  UNL     1     -31.202  -9.369   0.571  1.00  0.00     0.185 HD
HETATM   10  C9  UNL     1     -29.634 -10.682   0.782  1.00  0.00     0.685 A
HETATM   11  N4  UNL     1     -28.318 -10.838   0.713  1.00  0.00    -0.191 N
ATOM     12  H4  UNL     1     -27.941 -11.762   0.921  1.00  0.00     0.184 HD
HETATM   13  C19 UNL     1     -27.443  -9.868   0.389  1.00  0.00     0.056 A
HETATM   14  C20 UNL     1     -26.045 -10.323   0.387  1.00  0.00     0.009 C
ENDROOT
BRANCH  10  15
HETATM   15  N2  UNL     1     -30.496 -11.798   1.142  1.00  0.00    -0.170 N
ATOM     16  H2  UNL     1     -30.709 -12.047   2.108  1.00  0.00     0.186 HD
BRANCH  15  17
HETATM   17  C10 UNL     1     -30.975 -12.457   0.110  1.00  0.00     0.164 A
HETATM   18  N3  UNL     1     -30.344 -12.765  -1.012  1.00  0.00    -0.345 N
HETATM   19  C11 UNL     1     -30.985 -13.432  -1.940  1.00  0.00     0.110 A
ATOM     20  H3  UNL     1     -29.373 -12.488  -1.152  1.00  0.00     0.167 HD
HETATM   21  C12 UNL     1     -32.270 -13.787  -1.727  1.00  0.00     0.035 A
HETATM   22  S1  UNL     1     -32.516 -13.116  -0.128  1.00  0.00    -0.051 SA
BRANCH  21  23
HETATM   23  C13 UNL     1     -33.292 -14.513  -2.496  1.00  0.00     0.004 A
HETATM   24  C14 UNL     1     -34.139 -13.742  -3.318  1.00  0.00     0.016 A
HETATM   25  C15 UNL     1     -35.135 -14.289  -4.090  1.00  0.00     0.025 A
HETATM   26  C16 UNL     1     -35.306 -15.654  -4.051  1.00  0.00     0.035 A
HETATM   27 CL2  UNL     1     -36.566 -16.363  -5.024  1.00  0.00    -0.084 Cl
HETATM   28  C17 UNL     1     -34.494 -16.409  -3.259  1.00  0.00     0.048 A
HETATM   29  C18 UNL     1     -33.474 -15.828  -2.473  1.00  0.00     0.047 A
HETATM   30 CL3  UNL     1     -32.500 -16.898  -1.503  1.00  0.00    -0.083 Cl
ENDBRANCH  21  23
ENDBRANCH  15  17
ENDBRANCH  10  15
BRANCH   1  31
HETATM   31  C2  UNL     1     -23.724 -10.410   1.060  1.00  0.00     0.005 C
HETATM   32  C1  UNL     1     -23.466 -11.153  -0.208  1.00  0.00     0.006 C
ENDBRANCH   1  31
TORSDOF 4
ENDMDL