MODEL 4
REMARK VINA RESULT: -5.305460715      7.011     11.389
REMARK  7 active torsions:
REMARK  status: ('A' for Active; 'I' for Inactive)
REMARK    1  A    between atoms: C2_2  and  C3_3
REMARK    2  A    between atoms: C4_4  and  C5_5
REMARK    3  A    between atoms: C15_17  and  O2_18
REMARK    4  A    between atoms: C16_20  and  C17_21
REMARK    5  A    between atoms: C17_21  and  C18_22
REMARK    6  A    between atoms: C21_27  and  C22_28
REMARK    7  A    between atoms: C22_28  and  C24_30
ROOT
HETATM    1  C5  UNL     1     -14.046 -13.270  24.461  1.00  0.00    -0.037 C
HETATM    2  C6  UNL     1     -13.018 -12.430  24.781  1.00  0.00     0.063 C
HETATM    3 BR1  UNL     1     -13.437 -10.590  24.566  1.00  0.00    -0.047 Br
HETATM    4  C7  UNL     1     -11.686 -12.699  25.298  1.00  0.00     0.171 C
HETATM    5  O1  UNL     1     -10.834 -11.776  25.226  1.00  0.00    -0.291 OA
HETATM    6  C8  UNL     1     -11.292 -14.013  25.906  1.00  0.00     0.069 C
HETATM    7  C9  UNL     1      -9.981 -13.834  26.577  1.00  0.00     0.019 C
HETATM    8  C10 UNL     1     -11.255 -15.058  24.816  1.00  0.00     0.006 C
HETATM    9  C11 UNL     1     -10.008 -14.849  24.006  1.00  0.00     0.014 C
HETATM   10  C12 UNL     1      -9.346 -16.044  23.462  1.00  0.00     0.001 C
HETATM   11  C13 UNL     1      -9.357 -17.281  24.277  1.00  0.00     0.003 C
HETATM   12  C14 UNL     1     -10.330 -17.344  25.397  1.00  0.00     0.039 C
HETATM   13  C15 UNL     1     -11.480 -16.418  25.336  1.00  0.00     0.071 C
HETATM   14  C16 UNL     1     -12.312 -16.678  24.070  1.00  0.00     0.036 C
HETATM   15  C19 UNL     1     -12.458 -15.171  24.002  1.00  0.00     0.010 C
HETATM   16  C20 UNL     1     -13.789 -14.731  24.523  1.00  0.00     0.046 C
ENDROOT
BRANCH   1  17
HETATM   17  C4  UNL     1     -15.261 -12.665  24.028  1.00  0.00     0.009 C
HETATM   18  C3  UNL     1     -15.931 -12.333  23.012  1.00  0.00     0.007 C
BRANCH  18  19
HETATM   19  C2  UNL     1     -15.949 -12.336  21.582  1.00  0.00    -0.065 C
HETATM   20  C1  UNL     1     -15.066 -11.662  20.646  1.00  0.00     0.048 C
HETATM   21  C21 UNL     1     -16.909 -13.103  20.981  1.00  0.00    -0.005 C
BRANCH  21  22
HETATM   22  C22 UNL     1     -17.124 -13.299  19.571  1.00  0.00     0.106 C
HETATM   23  C23 UNL     1     -18.488 -12.589  19.270  1.00  0.00     0.025 C
BRANCH  22  24
HETATM   24  C24 UNL     1     -17.394 -14.726  19.209  1.00  0.00     0.180 C
HETATM   25  O5  UNL     1     -17.708 -15.032  18.056  1.00  0.00    -0.647 OA
HETATM   26  O6  UNL     1     -17.286 -15.685  20.185  1.00  0.00    -0.647 OA
ENDBRANCH  22  24
ENDBRANCH  21  22
ENDBRANCH  18  19
ENDBRANCH   1  17
BRANCH  14  27
HETATM   27  C17 UNL     1     -13.485 -17.500  24.432  1.00  0.00     0.121 C
BRANCH  27  28
HETATM   28  C18 UNL     1     -13.959 -18.354  23.317  1.00  0.00     0.173 C
HETATM   29  O3  UNL     1     -13.396 -19.446  23.061  1.00  0.00    -0.648 OA
HETATM   30  O4  UNL     1     -15.030 -17.986  22.519  1.00  0.00    -0.648 OA
ENDBRANCH  27  28
ENDBRANCH  14  27
BRANCH  13  31
HETATM   31  O2  UNL     1     -12.213 -16.458  26.514  1.00  0.00    -0.389 OA
ATOM     32  H2  UNL     1     -12.778 -17.217  26.593  1.00  0.00     0.210 HD
ENDBRANCH  13  31
TORSDOF 7
ENDMDL