MODEL 5
REMARK VINA RESULT: -4.438526750      2.968      6.999
REMARK  8 active torsions:
REMARK  status: ('A' for Active; 'I' for Inactive)
REMARK    1  A    between atoms: C2_2  and  N1_3
REMARK    2  A    between atoms: N1_3  and  C3_6
REMARK    3  A    between atoms: C5_8  and  C6_9
REMARK    4  A    between atoms: C7_10  and  C8_11
REMARK    5  A    between atoms: C9_12  and  C11_14
REMARK    6  A    between atoms: C11_14  and  O1_15
REMARK    7  A    between atoms: C21_26  and  O2_27
REMARK    8  A    between atoms: C24_31  and  N2_32
ROOT
HETATM    1  C3  UNL     1      -7.761 -11.662  25.111  1.00  0.00     0.191 C
HETATM    2  C4  UNL     1      -7.656 -12.909  24.261  1.00  0.00     0.047 C
HETATM    3  C5  UNL     1      -7.537 -13.990  25.238  1.00  0.00    -0.009 C
HETATM    4  C18 UNL     1      -8.560 -13.482  26.251  1.00  0.00     0.040 C
HETATM    5  C19 UNL     1      -8.237 -12.099  26.496  1.00  0.00     0.020 C
HETATM    6  C20 UNL     1      -7.384 -11.688  27.622  1.00  0.00     0.012 C
HETATM    7  C21 UNL     1      -8.682 -14.549  27.195  1.00  0.00     0.087 C
HETATM    8  C22 UNL     1     -10.076 -14.552  27.783  1.00  0.00     0.042 C
HETATM    9  C23 UNL     1     -10.903 -15.486  26.934  1.00  0.00     0.041 C
HETATM   10  C24 UNL     1      -9.826 -16.504  26.570  1.00  0.00     0.248 C
HETATM   11  C27 UNL     1      -8.608 -15.775  26.258  1.00  0.00     0.103 C
HETATM   12 CL1  UNL     1      -7.224 -16.754  26.900  1.00  0.00    -0.113 Cl
HETATM   13  C28 UNL     1      -8.282 -15.283  24.919  1.00  0.00     0.023 C
HETATM   14  C29 UNL     1      -9.287 -15.156  23.861  1.00  0.00     0.013 C
ENDROOT
BRANCH   3  15
HETATM   15  C6  UNL     1      -6.208 -14.225  25.718  1.00  0.00    -0.020 C
HETATM   16  C7  UNL     1      -5.156 -14.061  24.923  1.00  0.00    -0.024 C
BRANCH  16  17
HETATM   17  C8  UNL     1      -3.781 -14.299  25.374  1.00  0.00     0.026 C
HETATM   18  C9  UNL     1      -3.093 -13.355  26.238  1.00  0.00    -0.015 C
HETATM   19  C10 UNL     1      -3.454 -13.592  27.716  1.00  0.00     0.018 C
HETATM   20  C12 UNL     1      -1.626 -13.815  26.091  1.00  0.00     0.017 C
HETATM   21  C13 UNL     1      -1.504 -14.073  24.599  1.00  0.00    -0.005 C
HETATM   22  C14 UNL     1      -0.875 -15.385  24.254  1.00  0.00     0.006 C
HETATM   23  C16 UNL     1      -2.848 -14.642  24.231  1.00  0.00    -0.033 C
HETATM   24  C15 UNL     1      -2.254 -16.029  24.289  1.00  0.00     0.010 C
HETATM   25  C17 UNL     1      -3.361 -14.329  22.864  1.00  0.00     0.016 C
BRANCH  18  26
HETATM   26  C11 UNL     1      -3.220 -11.898  26.008  1.00  0.00     0.173 C
BRANCH  26  27
HETATM   27  O1  UNL     1      -4.135 -11.229  26.783  1.00  0.00    -0.400 OA
ATOM     28  H1  UNL     1      -4.093 -11.383  27.720  1.00  0.00     0.209 HD
ENDBRANCH  26  27
ENDBRANCH  18  26
ENDBRANCH  16  17
ENDBRANCH   3  15
BRANCH   1  29
HETATM   29  N1  UNL     1      -6.604 -10.851  25.147  1.00  0.00    -0.071 N
ATOM     30  H12 UNL     1      -5.794 -11.397  25.438  1.00  0.00     0.277 HD
ATOM     31  H11 UNL     1      -6.655 -10.189  25.922  1.00  0.00     0.277 HD
BRANCH  29  32
HETATM   32  C2  UNL     1      -6.333 -10.164  23.915  1.00  0.00     0.228 C
HETATM   33  C1  UNL     1      -5.110 -10.643  23.192  1.00  0.00     0.034 C
ENDBRANCH  29  32
ENDBRANCH   1  29
BRANCH   7  34
HETATM   34  O2  UNL     1      -7.802 -14.642  28.246  1.00  0.00    -0.387 OA
ATOM     35  H2  UNL     1      -7.745 -15.446  28.749  1.00  0.00     0.210 HD
ENDBRANCH   7  34
BRANCH  10  36
HETATM   36  N2  UNL     1     -10.270 -17.593  25.789  1.00  0.00     0.086 N
HETATM   37  C25 UNL     1     -10.213 -18.867  26.552  1.00  0.00     0.310 C
HETATM   38  C26 UNL     1     -11.729 -17.436  25.563  1.00  0.00     0.310 C
ENDBRANCH  10  36
TORSDOF 8
ENDMDL