MODEL 4
REMARK VINA RESULT: -6.087370625      6.572      9.382
REMARK  7 active torsions:
REMARK  status: ('A' for Active; 'I' for Inactive)
REMARK    1  A    between atoms: O1_2  and  C2_3
REMARK    2  A    between atoms: C7_8  and  O2_9
REMARK    3  A    between atoms: C10_12  and  N1_13
REMARK       I    between atoms: N1_13  and  C11_15
REMARK    4  A    between atoms: C11_15  and  C12_17
REMARK    5  A    between atoms: C15_20  and  C17_22
REMARK    6  A    between atoms: C17_22  and  N2_23
REMARK       I    between atoms: N2_23  and  C18_25
REMARK       I    between atoms: C18_25  and  N3_27
REMARK    7  A    between atoms: N3_27  and  C19_29
ROOT
HETATM    1  C12 UNL     1     -12.314 -10.294  24.329  1.00  0.00     0.096 C
HETATM    2  C13 UNL     1     -13.167 -10.365  25.584  1.00  0.00     0.017 C
HETATM    3  C14 UNL     1     -13.277 -11.797  25.961  1.00  0.00     0.015 C
HETATM    4  C15 UNL     1     -11.927 -12.214  26.564  1.00  0.00    -0.010 C
HETATM    5  C16 UNL     1     -11.845 -13.723  26.266  1.00  0.00     0.021 C
HETATM    6  C23 UNL     1     -10.818 -11.478  25.934  1.00  0.00     0.035 C
HETATM    7  C24 UNL     1     -11.078 -11.132  24.471  1.00  0.00     0.096 C
HETATM    8 CL1  UNL     1      -9.659 -10.321  23.811  1.00  0.00    -0.124 Cl
ENDROOT
BRANCH   1   9
HETATM    9  C11 UNL     1     -13.154 -10.640  23.179  1.00  0.00     0.223 C
HETATM   10  N1  UNL     1     -14.453 -10.062  22.986  1.00  0.00    -0.356 N
ATOM     11  H1  UNL     1     -14.783  -9.391  23.680  1.00  0.00     0.162 HD
HETATM   12  O3  UNL     1     -12.772 -11.459  22.313  1.00  0.00    -0.273 OA
BRANCH  10  13
HETATM   13  C10 UNL     1     -15.315 -10.363  21.891  1.00  0.00     0.089 C
HETATM   14  C9  UNL     1     -16.072 -11.640  22.287  1.00  0.00     0.064 C
HETATM   15  C5  UNL     1     -16.797 -12.073  21.052  1.00  0.00    -0.047 A
HETATM   16  C4  UNL     1     -17.365 -11.111  20.269  1.00  0.00    -0.049 A
HETATM   17  C6  UNL     1     -16.854 -13.433  20.759  1.00  0.00     0.047 A
HETATM   18  C3  UNL     1     -18.029 -11.566  19.118  1.00  0.00     0.047 A
HETATM   19  C26 UNL     1     -17.308  -9.686  20.585  1.00  0.00     0.041 C
HETATM   20  C2  UNL     1     -18.110 -12.900  18.791  1.00  0.00     0.102 A
HETATM   21  C7  UNL     1     -17.519 -13.834  19.617  1.00  0.00     0.102 A
HETATM   22  C25 UNL     1     -16.313  -9.264  21.602  1.00  0.00     0.030 C
BRANCH  20  23
HETATM   23  O1  UNL     1     -18.766 -13.349  17.653  1.00  0.00    -0.353 OA
HETATM   24  C1  UNL     1     -20.177 -13.425  17.699  1.00  0.00     0.210 C
ENDBRANCH  20  23
BRANCH  21  25
HETATM   25  O2  UNL     1     -17.620 -15.171  19.257  1.00  0.00    -0.353 OA
HETATM   26  C8  UNL     1     -18.309 -16.038  20.143  1.00  0.00     0.210 C
ENDBRANCH  21  25
ENDBRANCH  10  13
ENDBRANCH   1   9
BRANCH   4  27
HETATM   27  C17 UNL     1     -12.069 -12.042  28.037  1.00  0.00     0.075 C
BRANCH  27  28
HETATM   28  N2  UNL     1     -11.352 -11.066  28.740  1.00  0.00    -0.322 N
HETATM   29  C18 UNL     1     -10.106 -11.017  29.318  1.00  0.00     0.320 C
HETATM   30  O4  UNL     1      -9.269 -11.928  29.312  1.00  0.00    -0.247 OA
HETATM   31  N3  UNL     1      -9.650  -9.817  30.024  1.00  0.00    -0.335 N
ATOM     32  H3  UNL     1     -10.274  -9.012  30.074  1.00  0.00     0.165 HD
ATOM     33  H2  UNL     1     -11.871 -10.194  28.845  1.00  0.00     0.169 HD
BRANCH  31  34
HETATM   34  C19 UNL     1      -8.364  -9.727  30.646  1.00  0.00     0.023 C
HETATM   35  C20 UNL     1      -8.329 -10.648  31.839  1.00  0.00     0.037 C
HETATM   36  C21 UNL     1      -8.162  -8.302  31.127  1.00  0.00     0.037 C
HETATM   37  C22 UNL     1      -7.244 -10.136  29.703  1.00  0.00     0.037 C
ENDBRANCH  31  34
ENDBRANCH  27  28
ENDBRANCH   4  27
TORSDOF 7
ENDMDL