MODEL 1
REMARK VINA RESULT: -5.951736834      0.000      0.000
REMARK  13 active torsions:
REMARK  status: ('A' for Active; 'I' for Inactive)
REMARK    1  A    between atoms: C4_4  and  O1_5
REMARK    2  A    between atoms: C6_8  and  C7_9
REMARK    3  A    between atoms: C7_9  and  C8_10
REMARK    4  A    between atoms: C7_9  and  N1_18
REMARK    5  A    between atoms: C8_10  and  C9_11
REMARK    6  A    between atoms: N1_18  and  C15_20
REMARK    7  A    between atoms: C15_20  and  O2_21
REMARK    8  A    between atoms: C15_20  and  C16_23
REMARK    9  A    between atoms: C18_25  and  O3_26
REMARK   10  A    between atoms: C21_30  and  C22_31
REMARK   11  A    between atoms: C22_31  and  C23_32
REMARK   12  A    between atoms: C23_32  and  C24_33
REMARK   13  A    between atoms: C24_33  and  O4_34
ROOT
HETATM    1  N1  UNL     1      -6.665 -12.673  26.796  1.00  0.00    -0.347 N
ATOM      2  H1  UNL     1      -6.122 -13.432  27.208  1.00  0.00     0.167 HD
ENDROOT
BRANCH   1   3
HETATM    3  C7  UNL     1      -6.763 -12.788  25.536  1.00  0.00    -0.003 C
BRANCH   3   4
HETATM    4  C6  UNL     1      -5.594 -12.428  24.652  1.00  0.00     0.038 C
HETATM    5  C5  UNL     1      -6.063 -12.764  23.258  1.00  0.00     0.042 C
HETATM    6  C4  UNL     1      -5.467 -11.931  22.174  1.00  0.00     0.122 C
HETATM    7  C3  UNL     1      -6.062 -10.529  22.400  1.00  0.00     0.065 C
HETATM    8  C2  UNL     1      -5.503 -10.088  23.676  1.00  0.00    -0.086 C
HETATM    9  C1  UNL     1      -5.148  -8.798  23.804  1.00  0.00     0.014 C
HETATM   10  C29 UNL     1      -5.314 -10.981  24.843  1.00  0.00     0.044 C
BRANCH   6  11
HETATM   11  O1  UNL     1      -5.965 -12.383  20.965  1.00  0.00    -0.395 OA
ATOM     12  H1  UNL     1      -5.217 -12.537  20.402  1.00  0.00     0.210 HD
ENDBRANCH   6  11
ENDBRANCH   3   4
BRANCH   3  13
HETATM   13  C8  UNL     1      -8.008 -13.288  24.959  1.00  0.00     0.091 C
BRANCH  13  14
HETATM   14  C9  UNL     1      -9.119 -12.364  24.776  1.00  0.00    -0.053 A
HETATM   15  C10 UNL     1     -10.405 -12.852  24.962  1.00  0.00     0.010 A
HETATM   16  C11 UNL     1     -11.518 -12.062  24.841  1.00  0.00     0.043 A
HETATM   17  C12 UNL     1     -11.322 -10.737  24.522  1.00  0.00     0.116 A
HETATM   18  F1  UNL     1     -12.448  -9.966  24.406  1.00  0.00    -0.206 F
HETATM   19  C13 UNL     1     -10.068 -10.218  24.330  1.00  0.00     0.043 A
HETATM   20  C14 UNL     1      -8.976 -11.033  24.458  1.00  0.00     0.010 A
ENDBRANCH  13  14
ENDBRANCH   3  13
ENDBRANCH   1   3
BRANCH   1  21
HETATM   21  C15 UNL     1      -7.095 -11.807  27.720  1.00  0.00     0.120 C
BRANCH  21  22
HETATM   22  O2  UNL     1      -5.587 -11.629  28.218  1.00  0.00    -0.349 OA
ATOM     23  H2  UNL     1      -5.849 -10.843  28.683  1.00  0.00     0.219 HD
ENDBRANCH  21  22
BRANCH  21  24
HETATM   24  C16 UNL     1      -7.546 -10.899  28.690  1.00  0.00     0.071 C
HETATM   25  C17 UNL     1      -6.674 -10.943  29.969  1.00  0.00     0.045 C
HETATM   26  C18 UNL     1      -7.073  -9.875  30.906  1.00  0.00     0.119 C
HETATM   27  C19 UNL     1      -8.541  -9.885  31.263  1.00  0.00     0.037 C
HETATM   28  C20 UNL     1      -9.318  -9.849  29.988  1.00  0.00     0.001 C
HETATM   29  C21 UNL     1     -10.803 -10.042  30.193  1.00  0.00    -0.010 C
HETATM   30  C27 UNL     1      -8.953 -11.087  29.196  1.00  0.00    -0.029 C
HETATM   31  C25 UNL     1     -11.273 -10.897  29.037  1.00  0.00     0.006 C
HETATM   32  C26 UNL     1     -10.027 -11.048  28.142  1.00  0.00     0.011 C
HETATM   33  C28 UNL     1      -9.158 -12.348  29.988  1.00  0.00     0.016 C
BRANCH  26  34
HETATM   34  O3  UNL     1      -6.731  -8.629  30.384  1.00  0.00    -0.396 OA
ATOM     35  H3  UNL     1      -7.361  -7.975  30.662  1.00  0.00     0.210 HD
ENDBRANCH  26  34
BRANCH  29  36
HETATM   36  C22 UNL     1     -11.462  -8.685  30.039  1.00  0.00     0.007 C
BRANCH  36  37
HETATM   37  C23 UNL     1     -12.807  -8.798  29.357  1.00  0.00     0.026 C
BRANCH  37  38
HETATM   38  C24 UNL     1     -13.479  -7.442  29.416  1.00  0.00     0.164 C
BRANCH  38  39
HETATM   39  O4  UNL     1     -13.766  -7.057  28.096  1.00  0.00    -0.401 OA
ATOM     40  H4  UNL     1     -13.275  -7.631  27.519  1.00  0.00     0.209 HD
ENDBRANCH  38  39
ENDBRANCH  37  38
ENDBRANCH  36  37
ENDBRANCH  29  36
ENDBRANCH  21  24
ENDBRANCH   1  21
TORSDOF 13
ENDMDL