MODEL 3
REMARK VINA RESULT: -6.089643423      1.498      2.602
REMARK  6 active torsions:
REMARK  status: ('A' for Active; 'I' for Inactive)
REMARK    1  A    between atoms: N1_2  and  C2_4
REMARK    2  A    between atoms: C2_4  and  C3_5
REMARK    3  A    between atoms: C8_10  and  C9_11
REMARK    4  A    between atoms: C9_11  and  C10_12
REMARK    5  A    between atoms: C10_12  and  N2_13
REMARK       I    between atoms: N2_13  and  C11_15
REMARK       I    between atoms: C11_15  and  N3_17
REMARK    6  A    between atoms: N4_23  and  C17_24
ROOT
HETATM    1  N2  UNL     1     -12.694 -11.120  22.562  1.00  0.00    -0.343 N
ATOM      2  H2  UNL     1     -12.558 -11.794  21.808  1.00  0.00     0.164 HD
HETATM    3  C11 UNL     1     -13.982 -10.517  22.714  1.00  0.00     0.322 C
HETATM    4  O1  UNL     1     -14.090  -9.696  23.648  1.00  0.00    -0.247 OA
HETATM    5  N3  UNL     1     -15.071 -10.803  21.882  1.00  0.00    -0.299 N
HETATM    6  C12 UNL     1     -15.013 -11.990  21.023  1.00  0.00     0.135 C
HETATM    7  C13 UNL     1     -16.279 -12.760  21.423  1.00  0.00     0.035 C
HETATM    8  C14 UNL     1     -17.480 -12.040  20.846  1.00  0.00    -0.006 C
HETATM    9  C15 UNL     1     -17.227 -11.954  19.361  1.00  0.00     0.045 C
HETATM   10  C16 UNL     1     -18.430 -12.125  18.499  1.00  0.00     0.274 C
HETATM   11  N4  UNL     1     -19.091 -13.338  18.938  1.00  0.00     0.092 N
HETATM   12  C20 UNL     1     -19.719 -13.039  20.185  1.00  0.00     0.274 C
HETATM   13  C21 UNL     1     -18.700 -12.803  21.238  1.00  0.00     0.045 C
HETATM   14  C22 UNL     1     -17.472 -10.653  21.358  1.00  0.00    -0.021 A
HETATM   15  C23 UNL     1     -18.622  -9.865  21.354  1.00  0.00     0.034 A
HETATM   16  C24 UNL     1     -18.617  -8.562  21.790  1.00  0.00     0.034 A
HETATM   17 CL1  UNL     1     -20.083  -7.587  21.776  1.00  0.00    -0.084 Cl
HETATM   18  C25 UNL     1     -17.462  -7.997  22.247  1.00  0.00     0.026 A
HETATM   19  C26 UNL     1     -16.292  -8.773  22.259  1.00  0.00     0.032 A
HETATM   20  C27 UNL     1     -16.301 -10.084  21.821  1.00  0.00     0.046 A
ENDROOT
BRANCH   1  21
HETATM   21  C10 UNL     1     -11.596 -10.822  23.414  1.00  0.00     0.126 C
BRANCH  21  22
HETATM   22  C9  UNL     1     -11.441 -11.688  24.629  1.00  0.00     0.052 C
BRANCH  22  23
HETATM   23  C8  UNL     1      -9.955 -11.735  24.981  1.00  0.00     0.188 C
HETATM   24  C7  UNL     1      -9.268 -10.550  24.400  1.00  0.00     0.033 C
HETATM   25  C6  UNL     1      -7.848 -10.821  23.972  1.00  0.00     0.002 C
HETATM   26  C5  UNL     1      -6.897 -10.955  25.145  1.00  0.00     0.002 C
HETATM   27  C4  UNL     1      -7.447 -11.990  26.138  1.00  0.00     0.038 C
HETATM   28  C3  UNL     1      -8.558 -11.441  26.919  1.00  0.00     0.224 C
HETATM   29  N5  UNL     1      -9.859 -11.891  26.398  1.00  0.00    -0.062 N
ATOM     30  H52 UNL     1     -10.057 -12.852  26.679  1.00  0.00     0.278 HD
ATOM     31  H51 UNL     1     -10.630 -11.421  26.874  1.00  0.00     0.278 HD
BRANCH  28  32
HETATM   32  C2  UNL     1      -8.540 -11.618  28.382  1.00  0.00     0.087 C
BRANCH  32  33
HETATM   33  N1  UNL     1      -8.551 -10.493  29.230  1.00  0.00    -0.405 N
HETATM   34  C1  UNL     1      -9.769  -9.953  29.649  1.00  0.00     0.145 C
ATOM     35  H1  UNL     1      -7.673 -10.075  29.537  1.00  0.00     0.158 HD
ENDBRANCH  32  33
ENDBRANCH  28  32
ENDBRANCH  22  23
ENDBRANCH  21  22
ENDBRANCH   1  21
BRANCH  11  36
HETATM   36  C17 UNL     1     -19.914 -13.934  17.942  1.00  0.00     0.215 C
HETATM   37  C18 UNL     1     -19.128 -14.570  16.817  1.00  0.00     0.042 C
HETATM   38  C19 UNL     1     -20.841 -14.929  18.605  1.00  0.00     0.042 C
ENDBRANCH  11  36
TORSDOF 6
ENDMDL