MODEL 5
REMARK VINA RESULT: -4.926017653      5.348      9.458
REMARK  9 active torsions:
REMARK  status: ('A' for Active; 'I' for Inactive)
REMARK    1  A    between atoms: C2_2  and  O1_3
REMARK    2  A    between atoms: C2_2  and  C3_5
REMARK    3  A    between atoms: C12_16  and  C13_17
REMARK    4  A    between atoms: C13_17  and  C15_19
REMARK    5  A    between atoms: C15_19  and  C16_20
REMARK    6  A    between atoms: C16_20  and  O3_21
REMARK    7  A    between atoms: C16_20  and  C17_23
REMARK    8  A    between atoms: C17_23  and  O4_24
REMARK    9  A    between atoms: C17_23  and  N1_26
ROOT
HETATM    1  C3  UNL     1      -9.920 -11.304  25.394  1.00  0.00     0.028 C
HETATM    2  C4  UNL     1     -10.964 -11.511  26.474  1.00  0.00     0.017 C
HETATM    3  C5  UNL     1     -11.579 -12.797  26.659  1.00  0.00     0.019 C
HETATM    4  C6  UNL     1     -10.830 -13.469  27.825  1.00  0.00     0.010 C
HETATM    5  C7  UNL     1      -9.480 -13.863  27.437  1.00  0.00     0.016 C
HETATM    6  C8  UNL     1      -9.032 -13.611  25.973  1.00  0.00     0.002 C
HETATM    7  C9  UNL     1      -7.820 -14.525  25.974  1.00  0.00     0.061 C
HETATM    8  C10 UNL     1      -6.832 -14.490  24.932  1.00  0.00     0.245 C
HETATM    9  F1  UNL     1      -5.551 -14.689  25.523  1.00  0.00    -0.241 F
HETATM   10  C11 UNL     1      -6.945 -13.269  24.182  1.00  0.00     0.190 C
HETATM   11  O2  UNL     1      -6.444 -13.261  23.043  1.00  0.00    -0.289 OA
HETATM   12  C12 UNL     1      -7.621 -11.980  24.643  1.00  0.00     0.003 C
HETATM   13  C22 UNL     1      -8.696 -12.174  25.641  1.00  0.00     0.005 C
HETATM   14  C23 UNL     1      -8.181 -11.585  26.979  1.00  0.00     0.022 C
HETATM   15  C24 UNL     1     -10.156 -14.208  25.215  1.00  0.00    -0.042 A
HETATM   16  C25 UNL     1     -10.041 -15.130  24.226  1.00  0.00     0.008 A
HETATM   17  C26 UNL     1     -11.182 -15.638  23.625  1.00  0.00     0.001 A
HETATM   18  C27 UNL     1     -12.425 -15.223  24.019  1.00  0.00     0.001 A
HETATM   19  C28 UNL     1     -12.594 -14.290  25.017  1.00  0.00     0.008 A
HETATM   20  C29 UNL     1     -11.416 -13.810  25.586  1.00  0.00    -0.047 A
ENDROOT
BRANCH  12  21
HETATM   21  C13 UNL     1      -6.544 -10.984  24.662  1.00  0.00    -0.070 C
HETATM   22  C14 UNL     1      -5.274 -11.244  25.388  1.00  0.00     0.044 C
BRANCH  21  23
HETATM   23  C15 UNL     1      -6.319 -10.108  23.506  1.00  0.00     0.070 C
BRANCH  23  24
HETATM   24  C16 UNL     1      -4.961  -9.567  23.220  1.00  0.00     0.181 C
BRANCH  24  25
HETATM   25  O3  UNL     1      -4.514  -9.635  21.924  1.00  0.00    -0.391 OA
ATOM     26  H3  UNL     1      -5.123  -9.390  21.238  1.00  0.00     0.210 HD
ENDBRANCH  24  25
BRANCH  24  27
HETATM   27  C17 UNL     1      -4.390  -8.473  24.012  1.00  0.00     0.385 C
BRANCH  27  28
HETATM   28  O4  UNL     1      -5.252  -7.710  24.797  1.00  0.00    -0.366 OA
ATOM     29  H4  UNL     1      -4.876  -7.184  25.494  1.00  0.00     0.212 HD
ENDBRANCH  27  28
BRANCH  27  30
HETATM   30  N1  UNL     1      -3.829  -7.466  23.087  1.00  0.00     0.119 N
HETATM   31  C18 UNL     1      -4.517  -6.227  23.085  1.00  0.00     0.276 C
HETATM   32  C19 UNL     1      -3.454  -5.143  22.841  1.00  0.00     0.032 C
HETATM   33  C20 UNL     1      -2.187  -5.915  22.590  1.00  0.00     0.032 C
HETATM   34  C21 UNL     1      -2.437  -7.236  23.315  1.00  0.00     0.276 C
ENDBRANCH  27  30
ENDBRANCH  24  27
ENDBRANCH  23  24
ENDBRANCH  21  23
ENDBRANCH  12  21
BRANCH   1  35
HETATM   35  C2  UNL     1     -10.545 -11.217  24.060  1.00  0.00     0.119 C
HETATM   36  C1  UNL     1     -11.839 -10.397  24.071  1.00  0.00     0.040 C
BRANCH  35  37
HETATM   37  O1  UNL     1      -9.908 -10.266  23.172  1.00  0.00    -0.396 OA
ATOM     38  H1  UNL     1      -9.049 -10.497  23.503  1.00  0.00     0.210 HD
ENDBRANCH  35  37
ENDBRANCH   1  35
TORSDOF 9
ENDMDL