MODEL 5
REMARK VINA RESULT: -5.415329962      2.015      3.304
REMARK  8 active torsions:
REMARK  status: ('A' for Active; 'I' for Inactive)
REMARK    1  A    between atoms: O1_2  and  C2_3
REMARK    2  A    between atoms: C2_3  and  C3_5
REMARK    3  A    between atoms: C3_5  and  N1_6
REMARK       I    between atoms: N1_6  and  C4_8
REMARK    4  A    between atoms: C4_8  and  C5_10
REMARK    5  A    between atoms: C13_18  and  C15_20
REMARK    6  A    between atoms: C15_20  and  C16_21
REMARK    7  A    between atoms: C16_21  and  C17_22
REMARK    8  A    between atoms: C18_25  and  O6_26
ROOT
HETATM    1  C5  UNL     1      -8.252 -11.988  24.277  1.00  0.00     0.086 C
HETATM    2  C6  UNL     1      -8.831 -11.000  25.238  1.00  0.00     0.015 C
HETATM    3  C7  UNL     1      -9.533 -11.809  26.344  1.00  0.00     0.007 C
HETATM    4  C8  UNL     1      -9.662 -13.139  25.686  1.00  0.00    -0.001 C
HETATM    5  C9  UNL     1     -10.024 -14.292  26.548  1.00  0.00    -0.005 C
HETATM    6  C10 UNL     1     -11.427 -14.047  27.041  1.00  0.00     0.006 C
HETATM    7  C11 UNL     1     -12.449 -14.634  26.108  1.00  0.00     0.007 C
HETATM    8  C12 UNL     1     -12.286 -16.159  26.258  1.00  0.00     0.005 C
HETATM    9  C13 UNL     1     -13.350 -16.824  25.451  1.00  0.00    -0.011 C
HETATM   10  C14 UNL     1     -14.545 -15.860  25.343  1.00  0.00     0.018 C
HETATM   11  C18 UNL     1     -12.886 -16.965  24.024  1.00  0.00     0.160 C
HETATM   12  C19 UNL     1     -11.624 -17.758  23.916  1.00  0.00     0.200 C
HETATM   13  F1  UNL     1     -12.021 -19.079  23.648  1.00  0.00    -0.247 F
HETATM   14  C20 UNL     1     -10.759 -17.773  25.102  1.00  0.00     0.049 C
HETATM   15  C21 UNL     1     -10.889 -16.625  26.070  1.00  0.00    -0.033 C
HETATM   16  C22 UNL     1     -10.456 -17.224  27.434  1.00  0.00     0.016 C
HETATM   17  C23 UNL     1      -9.858 -15.560  25.786  1.00  0.00    -0.001 C
HETATM   18  C24 UNL     1      -9.581 -15.292  24.352  1.00  0.00     0.006 C
HETATM   19  C25 UNL     1      -8.258 -14.502  24.264  1.00  0.00     0.011 C
HETATM   20  C26 UNL     1      -8.256 -13.279  25.093  1.00  0.00    -0.028 C
HETATM   21  C27 UNL     1      -7.196 -13.201  26.151  1.00  0.00     0.016 C
ENDROOT
BRANCH   1  22
HETATM   22  C4  UNL     1      -6.940 -11.678  23.739  1.00  0.00     0.223 C
HETATM   23  N1  UNL     1      -6.304 -10.449  23.998  1.00  0.00    -0.351 N
ATOM     24  H1  UNL     1      -6.784  -9.762  24.580  1.00  0.00     0.163 HD
HETATM   25  O3  UNL     1      -6.352 -12.526  23.024  1.00  0.00    -0.273 OA
BRANCH  23  26
HETATM   26  C3  UNL     1      -4.987 -10.118  23.465  1.00  0.00     0.233 C
BRANCH  26  27
HETATM   27  C2  UNL     1      -5.036  -9.385  22.190  1.00  0.00     0.276 C
HETATM   28  O2  UNL     1      -4.883  -8.148  22.149  1.00  0.00    -0.263 OA
BRANCH  27  29
HETATM   29  O1  UNL     1      -5.257 -10.067  21.007  1.00  0.00    -0.325 OA
HETATM   30  C1  UNL     1      -6.538 -10.067  20.366  1.00  0.00     0.213 C
ENDBRANCH  27  29
ENDBRANCH  26  27
ENDBRANCH  23  26
ENDBRANCH   1  22
BRANCH   9  31
HETATM   31  C15 UNL     1     -13.892 -18.098  25.979  1.00  0.00     0.022 C
BRANCH  31  32
HETATM   32  C16 UNL     1     -13.870 -18.226  27.474  1.00  0.00     0.114 C
BRANCH  32  33
HETATM   33  C17 UNL     1     -13.304 -19.587  27.755  1.00  0.00     0.172 C
HETATM   34  O4  UNL     1     -12.681 -20.195  26.843  1.00  0.00    -0.648 OA
HETATM   35  O5  UNL     1     -13.429 -20.223  28.983  1.00  0.00    -0.648 OA
ENDBRANCH  32  33
ENDBRANCH  31  32
ENDBRANCH   9  31
BRANCH  11  36
HETATM   36  O6  UNL     1     -13.952 -17.553  23.305  1.00  0.00    -0.392 OA
ATOM     37  H6  UNL     1     -13.841 -17.303  22.395  1.00  0.00     0.210 HD
ENDBRANCH  11  36
TORSDOF 8
ENDMDL