MODEL 2
REMARK VINA RESULT: -6.135469409      0.483      1.084
REMARK  7 active torsions:
REMARK  status: ('A' for Active; 'I' for Inactive)
REMARK    1  A    between atoms: C4_4  and  C5_5
REMARK    2  A    between atoms: C5_5  and  N1_6
REMARK    3  A    between atoms: N2_9  and  C8_10
REMARK    4  A    between atoms: C11_13  and  C12_14
REMARK    5  A    between atoms: C12_14  and  C13_15
REMARK    6  A    between atoms: C13_15  and  N3_16
REMARK    7  A    between atoms: N3_16  and  C14_18
ROOT
HETATM    1  C8  UNL     1     -12.229 -11.661  24.060  1.00  0.00     0.223 C
HETATM    2  C9  UNL     1     -11.626 -12.102  25.342  1.00  0.00     0.036 C
HETATM    3  C10 UNL     1     -10.254 -11.654  25.668  1.00  0.00     0.007 C
HETATM    4  C11 UNL     1      -9.564 -10.721  24.770  1.00  0.00    -0.013 C
HETATM    5  C21 UNL     1     -10.240 -10.472  23.434  1.00  0.00     0.007 C
HETATM    6  C22 UNL     1     -11.716 -10.246  23.780  1.00  0.00     0.036 C
ENDROOT
BRANCH   1   7
HETATM    7  N2  UNL     1     -13.669 -11.692  24.054  1.00  0.00     0.096 N
HETATM    8  C7  UNL     1     -14.116 -10.959  22.869  1.00  0.00     0.303 C
HETATM    9  C6  UNL     1     -14.200 -11.964  21.767  1.00  0.00     0.302 C
HETATM   10  N1  UNL     1     -15.448 -12.720  21.909  1.00  0.00     0.092 N
HETATM   11  C24 UNL     1     -15.522 -13.109  23.297  1.00  0.00     0.302 C
HETATM   12  C23 UNL     1     -14.195 -13.040  24.033  1.00  0.00     0.303 C
BRANCH  10  13
HETATM   13  C5  UNL     1     -16.565 -11.964  21.464  1.00  0.00     0.279 C
BRANCH  13  14
HETATM   14  C4  UNL     1     -16.770 -11.728  20.029  1.00  0.00     0.051 C
HETATM   15  C3  UNL     1     -16.843 -12.855  19.070  1.00  0.00     0.041 C
HETATM   16  C2  UNL     1     -18.352 -13.103  18.958  1.00  0.00     0.183 C
HETATM   17  C1  UNL     1     -18.653 -13.970  17.769  1.00  0.00     0.040 C
HETATM   18  N6  UNL     1     -18.801 -11.734  18.762  1.00  0.00    -0.063 N
HETATM   19  C25 UNL     1     -18.085 -10.991  19.807  1.00  0.00     0.124 C
ATOM     20  H62 UNL     1     -18.665 -11.373  17.818  1.00  0.00     0.278 HD
ATOM     21  H61 UNL     1     -19.814 -11.614  18.775  1.00  0.00     0.278 HD
HETATM   22  C26 UNL     1     -18.984 -11.020  21.018  1.00  0.00     0.046 C
HETATM   23  C27 UNL     1     -17.833  -9.557  19.414  1.00  0.00     0.046 C
ENDBRANCH  13  14
ENDBRANCH  10  13
ENDBRANCH   1   7
BRANCH   4  24
HETATM   24  C12 UNL     1      -8.104 -10.980  24.585  1.00  0.00     0.025 C
BRANCH  24  25
HETATM   25  C13 UNL     1      -7.492 -11.991  25.490  1.00  0.00     0.138 C
BRANCH  25  26
HETATM   26  N3  UNL     1      -7.163 -13.256  24.927  1.00  0.00    -0.226 N
ATOM     27  H3  UNL     1      -6.249 -13.365  24.486  1.00  0.00     0.177 HD
BRANCH  26  28
HETATM   28  C14 UNL     1      -7.954 -14.268  24.942  1.00  0.00     0.679 A
HETATM   29  N4  UNL     1      -7.856 -15.291  25.787  1.00  0.00    -0.190 N
HETATM   30  C15 UNL     1      -8.804 -16.199  25.556  1.00  0.00     0.076 A
ATOM     31  H4  UNL     1      -7.148 -15.370  26.516  1.00  0.00     0.184 HD
HETATM   32  C16 UNL     1      -9.091 -17.411  26.171  1.00  0.00     0.034 A
HETATM   33  C20 UNL     1      -9.556 -15.723  24.496  1.00  0.00     0.078 A
HETATM   34  C17 UNL     1     -10.156 -18.154  25.704  1.00  0.00     0.026 A
HETATM   35  C18 UNL     1     -10.920 -17.709  24.655  1.00  0.00     0.036 A
HETATM   36 CL1  UNL     1     -12.259 -18.709  24.105  1.00  0.00    -0.084 Cl
HETATM   37  C19 UNL     1     -10.619 -16.495  24.053  1.00  0.00     0.056 A
HETATM   38  N5  UNL     1      -9.014 -14.541  24.140  1.00  0.00    -0.190 N
ATOM     39  H5  UNL     1      -9.350 -13.944  23.385  1.00  0.00     0.184 HD
ENDBRANCH  26  28
ENDBRANCH  25  26
ENDBRANCH  24  25
ENDBRANCH   4  24
TORSDOF 7
ENDMDL