MODEL 2
REMARK VINA RESULT: -5.278805585      9.891     13.038
REMARK  9 active torsions:
REMARK  status: ('A' for Active; 'I' for Inactive)
REMARK    1  A    between atoms: C2_2  and  C3_3
REMARK    2  A    between atoms: C2_2  and  C4_6
REMARK    3  A    between atoms: C3_3  and  O1_4
REMARK    4  A    between atoms: C4_6  and  O2_7
REMARK    5  A    between atoms: C16_20  and  C17_21
REMARK    6  A    between atoms: C17_21  and  C18_23
REMARK    7  A    between atoms: C18_23  and  O4_24
REMARK    8  A    between atoms: C20_27  and  C21_28
REMARK    9  A    between atoms: C21_28  and  C22_29
ROOT
HETATM    1  C4  UNL     1      -8.833 -17.330  26.980  1.00  0.00     0.087 C
HETATM    2  C5  UNL     1      -7.414 -17.613  27.399  1.00  0.00     0.044 C
HETATM    3  C6  UNL     1      -6.591 -16.437  26.846  1.00  0.00     0.014 C
HETATM    4  C7  UNL     1      -7.554 -15.288  27.183  1.00  0.00    -0.029 C
HETATM    5  C8  UNL     1      -7.489 -15.232  28.680  1.00  0.00     0.016 C
HETATM    6  C9  UNL     1      -8.835 -15.877  26.630  1.00  0.00     0.033 C
HETATM    7  C10 UNL     1      -8.726 -15.851  25.103  1.00  0.00     0.009 C
HETATM    8  C11 UNL     1      -8.381 -14.508  24.551  1.00  0.00     0.006 C
HETATM    9  C12 UNL     1      -7.029 -14.087  25.065  1.00  0.00    -0.001 C
HETATM   10  C13 UNL     1      -6.499 -12.826  24.502  1.00  0.00     0.003 C
HETATM   11  C14 UNL     1      -6.261 -12.811  23.023  1.00  0.00     0.011 C
HETATM   12  C15 UNL     1      -5.259 -11.710  22.764  1.00  0.00     0.042 C
HETATM   13  C16 UNL     1      -5.329 -10.615  23.759  1.00  0.00    -0.013 C
HETATM   14  C19 UNL     1      -6.193 -10.489  24.729  1.00  0.00    -0.006 C
HETATM   15  C20 UNL     1      -7.247 -11.571  24.869  1.00  0.00    -0.017 C
HETATM   16  C23 UNL     1      -7.701 -11.570  26.272  1.00  0.00     0.015 C
HETATM   17  C24 UNL     1      -8.092 -12.898  26.861  1.00  0.00     0.011 C
HETATM   18  C25 UNL     1      -7.132 -14.006  26.555  1.00  0.00    -0.032 C
HETATM   19  C26 UNL     1      -5.821 -13.616  27.231  1.00  0.00     0.016 C
ENDROOT
BRANCH   1  20
HETATM   20  C2  UNL     1      -9.875 -17.814  27.881  1.00  0.00    -0.032 C
HETATM   21  C1  UNL     1     -10.954 -17.156  28.275  1.00  0.00     0.019 C
BRANCH  20  22
HETATM   22  C3  UNL     1      -9.735 -19.207  28.427  1.00  0.00     0.200 C
BRANCH  22  23
HETATM   23  O1  UNL     1     -10.134 -20.091  27.434  1.00  0.00    -0.397 OA
ATOM     24  H1  UNL     1      -9.579 -20.860  27.493  1.00  0.00     0.209 HD
ENDBRANCH  22  23
ENDBRANCH  20  22
ENDBRANCH   1  20
BRANCH   1  25
HETATM   25  O2  UNL     1      -9.008 -18.136  25.805  1.00  0.00    -0.385 OA
ATOM     26  H2  UNL     1      -8.129 -18.206  25.452  1.00  0.00     0.211 HD
ENDBRANCH   1  25
BRANCH  15  27
HETATM   27  C21 UNL     1      -8.265 -11.150  23.836  1.00  0.00     0.025 C
BRANCH  27  28
HETATM   28  C22 UNL     1      -9.451 -10.421  24.398  1.00  0.00     0.086 C
HETATM   29 BR1  UNL     1     -10.913 -11.729  24.399  1.00  0.00    -0.096 Br
ENDBRANCH  27  28
ENDBRANCH  15  27
BRANCH  13  30
HETATM   30  C17 UNL     1      -4.320  -9.555  23.647  1.00  0.00     0.178 C
HETATM   31  O3  UNL     1      -3.119  -9.775  24.023  1.00  0.00    -0.290 OA
BRANCH  30  32
HETATM   32  C18 UNL     1      -4.690  -8.246  23.104  1.00  0.00     0.247 C
BRANCH  32  33
HETATM   33  O4  UNL     1      -3.758  -7.860  22.153  1.00  0.00    -0.393 OA
ATOM     34  H4  UNL     1      -4.200  -7.681  21.331  1.00  0.00     0.209 HD
ENDBRANCH  32  33
ENDBRANCH  30  32
ENDBRANCH  13  30
TORSDOF 9
ENDMDL