MODEL 4
REMARK VINA RESULT: -6.109650070      3.670      9.923
REMARK  8 active torsions:
REMARK  status: ('A' for Active; 'I' for Inactive)
REMARK    1  A    between atoms: C2_2  and  C3_3
REMARK    2  A    between atoms: C9_9  and  N1_10
REMARK    3  A    between atoms: N1_10  and  C10_12
REMARK    4  A    between atoms: C13_18  and  N3_19
REMARK    5  A    between atoms: N3_19  and  C14_21
REMARK    6  A    between atoms: C17_24  and  N4_25
REMARK    7  A    between atoms: N4_25  and  C18_27
REMARK    8  A    between atoms: C18_27  and  C19_28
ROOT
HETATM    1  C10 UNL     1     -15.132 -12.220  21.571  1.00  0.00     0.684 A
HETATM    2  N2  UNL     1     -16.042 -13.037  22.122  1.00  0.00    -0.200 N
ATOM      3  H2  UNL     1     -16.941 -13.162  21.657  1.00  0.00     0.183 HD
HETATM    4  C11 UNL     1     -15.804 -13.696  23.264  1.00  0.00     0.133 A
HETATM    5  C12 UNL     1     -14.603 -13.547  23.910  1.00  0.00     0.094 A
HETATM    6 CL1  UNL     1     -14.216 -14.370  25.387  1.00  0.00    -0.079 Cl
HETATM    7  C13 UNL     1     -13.640 -12.698  23.344  1.00  0.00     0.140 A
HETATM    8  N6  UNL     1     -13.951 -12.070  22.195  1.00  0.00    -0.175 N
ATOM      9  H6  UNL     1     -13.257 -11.451  21.776  1.00  0.00     0.186 HD
ENDROOT
BRANCH   7  10
HETATM   10  N3  UNL     1     -12.551 -12.591  23.977  1.00  0.00    -0.369 N
ATOM     11  H3  UNL     1     -12.149 -13.463  24.321  1.00  0.00     0.161 HD
BRANCH  10  12
HETATM   12  C14 UNL     1     -11.816 -11.413  24.271  1.00  0.00     0.087 C
HETATM   13  C15 UNL     1     -12.612 -10.493  25.151  1.00  0.00     0.027 C
HETATM   14  C16 UNL     1     -13.009 -11.213  26.398  1.00  0.00     0.027 C
HETATM   15  C17 UNL     1     -11.803 -11.577  27.214  1.00  0.00     0.081 C
HETATM   16  C25 UNL     1     -10.507 -11.654  26.442  1.00  0.00     0.031 C
HETATM   17  C26 UNL     1     -10.532 -11.752  24.992  1.00  0.00     0.006 C
HETATM   18  C27 UNL     1      -9.496 -10.744  24.449  1.00  0.00     0.012 C
BRANCH  15  19
HETATM   19  N4  UNL     1     -11.683 -10.616  28.291  1.00  0.00    -0.394 N
ATOM     20  H4  UNL     1     -11.951  -9.642  28.152  1.00  0.00     0.159 HD
BRANCH  19  21
HETATM   21  C18 UNL     1     -11.190 -11.055  29.529  1.00  0.00     0.091 C
BRANCH  21  22
HETATM   22  C19 UNL     1      -9.963 -10.483  30.142  1.00  0.00    -0.033 C
HETATM   23  C20 UNL     1      -9.824  -9.019  30.251  1.00  0.00     0.042 C
HETATM   24  C21 UNL     1      -8.575  -8.762  31.112  1.00  0.00     0.019 C
HETATM   25  C22 UNL     1      -7.407  -9.179  30.283  1.00  0.00     0.094 C
HETATM   26  N5  UNL     1      -7.532 -10.408  29.592  1.00  0.00    -0.296 NA
HETATM   27  C23 UNL     1      -6.339 -11.211  29.917  1.00  0.00     0.116 C
HETATM   28  C24 UNL     1      -8.680 -11.196  29.802  1.00  0.00     0.067 C
ENDBRANCH  21  22
ENDBRANCH  19  21
ENDBRANCH  15  19
ENDBRANCH  10  12
ENDBRANCH   7  10
BRANCH   1  29
HETATM   29  N1  UNL     1     -15.387 -11.571  20.468  1.00  0.00    -0.191 N
ATOM     30  H1  UNL     1     -14.659 -11.493  19.758  1.00  0.00     0.184 HD
BRANCH  29  31
HETATM   31  C9  UNL     1     -16.641 -10.978  20.233  1.00  0.00     0.061 A
HETATM   32  C3  UNL     1     -16.987  -9.807  20.843  1.00  0.00    -0.031 A
HETATM   33  C4  UNL     1     -18.228  -9.213  20.606  1.00  0.00     0.009 A
HETATM   34  C5  UNL     1     -19.100  -9.833  19.739  1.00  0.00     0.001 A
HETATM   35  C6  UNL     1     -18.800 -11.012  19.103  1.00  0.00     0.009 A
HETATM   36  C7  UNL     1     -17.543 -11.581  19.367  1.00  0.00    -0.034 A
HETATM   37  C8  UNL     1     -17.236 -12.843  18.675  1.00  0.00     0.050 C
BRANCH  32  38
HETATM   38  C2  UNL     1     -16.072  -9.122  21.819  1.00  0.00     0.036 C
HETATM   39  C1  UNL     1     -16.617  -9.332  23.239  1.00  0.00     0.010 C
ENDBRANCH  32  38
ENDBRANCH  29  31
ENDBRANCH   1  29
TORSDOF 8
ENDMDL