MODEL 5
REMARK VINA RESULT: -7.609427095      3.878     12.025
REMARK  14 active torsions:
REMARK  status: ('A' for Active; 'I' for Inactive)
REMARK    1  A    between atoms: C2_2  and  O1_3
REMARK    2  A    between atoms: O1_3  and  C3_4
REMARK    3  A    between atoms: C4_7  and  C5_8
REMARK    4  A    between atoms: C5_8  and  O3_10
REMARK    5  A    between atoms: O3_10  and  C6_11
REMARK    6  A    between atoms: C6_11  and  C7_12
REMARK    7  A    between atoms: C7_12  and  N2_13
REMARK    8  A    between atoms: C20_34  and  O6_35
REMARK    9  A    between atoms: C21_39  and  N7_40
REMARK   10  A    between atoms: N7_40  and  C22_42
REMARK   11  A    between atoms: C22_42  and  C23_43
REMARK   12  A    between atoms: N8_44  and  C24_46
REMARK   13  A    between atoms: C24_46  and  O7_50
REMARK   14  A    between atoms: O7_50  and  C25_51
ROOT
HETATM    1  C3  UNL     1      14.243  -6.162  -3.213  1.00  0.00     0.157 A
HETATM    2  N1  UNL     1      13.341  -5.311  -3.747  1.00  0.00    -0.317 N
ATOM      3  H1  UNL     1      13.491  -4.908  -4.672  1.00  0.00     0.169 HD
HETATM    4  C4  UNL     1      12.244  -5.005  -3.036  1.00  0.00     0.184 A
HETATM    5  N4  UNL     1      12.001  -5.507  -1.819  1.00  0.00    -0.337 N
ATOM      6  H4  UNL     1      11.149  -5.239  -1.327  1.00  0.00     0.167 HD
HETATM    7  C12 UNL     1      12.875  -6.370  -1.230  1.00  0.00     0.050 A
HETATM    8  C13 UNL     1      12.624  -6.890   0.022  1.00  0.00     0.055 A
HETATM    9  C14 UNL     1      13.562  -7.759   0.543  1.00  0.00     0.049 A
HETATM   10 CL1  UNL     1      13.266  -8.444   2.152  1.00  0.00    -0.083 Cl
HETATM   11  C15 UNL     1      14.712  -8.109  -0.146  1.00  0.00     0.026 A
HETATM   12  C16 UNL     1      14.936  -7.575  -1.394  1.00  0.00    -0.008 A
HETATM   13  C17 UNL     1      14.009  -6.685  -1.963  1.00  0.00     0.051 A
HETATM   14  C18 UNL     1      16.176  -8.065  -1.902  1.00  0.00     0.188 A
HETATM   15  N5  UNL     1      16.679  -8.966  -0.878  1.00  0.00    -0.174 N
HETATM   16  C19 UNL     1      15.831  -8.988   0.158  1.00  0.00     0.116 A
HETATM   17  C20 UNL     1      16.364  -9.854   1.107  1.00  0.00     0.184 A
HETATM   18  N6  UNL     1      17.517 -10.309   0.579  1.00  0.00    -0.168 N
ATOM     19  H6  UNL     1      18.142 -10.969   1.042  1.00  0.00     0.186 HD
HETATM   20  C21 UNL     1      17.735  -9.782  -0.635  1.00  0.00     0.683 A
ENDROOT
BRANCH   4  21
HETATM   21  C5  UNL     1      11.285  -4.070  -3.659  1.00  0.00     0.327 C
HETATM   22  O2  UNL     1      11.459  -2.819  -3.528  1.00  0.00    -0.256 OA
BRANCH  21  23
HETATM   23  O3  UNL     1      10.212  -4.524  -4.375  1.00  0.00    -0.314 OA
BRANCH  23  24
HETATM   24  C6  UNL     1      10.230  -4.956  -5.696  1.00  0.00     0.199 C
BRANCH  24  25
HETATM   25  C7  UNL     1      11.300  -4.262  -6.471  1.00  0.00     0.160 C
BRANCH  25  26
HETATM   26  N2  UNL     1      10.712  -3.092  -7.093  1.00  0.00    -0.308 N
HETATM   27  C8  UNL     1       9.503  -3.095  -7.669  1.00  0.00     0.101 A
HETATM   28  C9  UNL     1       8.980  -1.951  -8.252  1.00  0.00     0.092 A
HETATM   29  C10 UNL     1       9.705  -0.779  -8.247  1.00  0.00     0.250 A
HETATM   30  O4  UNL     1       9.283   0.285  -8.759  1.00  0.00    -0.268 OA
HETATM   31  N3  UNL     1      10.928  -0.811  -7.654  1.00  0.00    -0.275 N
HETATM   32  C11 UNL     1      11.412  -1.947  -7.092  1.00  0.00     0.329 A
ATOM     33  H3  UNL     1      11.494   0.037  -7.632  1.00  0.00     0.173 HD
HETATM   34  O5  UNL     1      12.542  -1.890  -6.569  1.00  0.00    -0.246 OA
ENDBRANCH  25  26
ENDBRANCH  24  25
ENDBRANCH  23  24
ENDBRANCH  21  23
ENDBRANCH   4  21
BRANCH   1  35
HETATM   35  O1  UNL     1      15.395  -6.528  -3.877  1.00  0.00    -0.335 OA
BRANCH  35  36
HETATM   36  C2  UNL     1      15.496  -6.763  -5.248  1.00  0.00     0.173 C
HETATM   37  C1  UNL     1      16.213  -8.021  -5.614  1.00  0.00     0.034 C
ENDBRANCH  35  36
ENDBRANCH   1  35
BRANCH  17  38
HETATM   38  O6  UNL     1      15.823 -10.191   2.353  1.00  0.00    -0.344 OA
ATOM     39  H6  UNL     1      16.220 -10.727   3.030  1.00  0.00     0.219 HD
ENDBRANCH  17  38
BRANCH  20  40
HETATM   40  N7  UNL     1      18.742 -10.000  -1.424  1.00  0.00    -0.221 N
ATOM     41  H7  UNL     1      18.547 -10.234  -2.397  1.00  0.00     0.178 HD
BRANCH  40  42
HETATM   42  C22 UNL     1      20.103  -9.931  -1.009  1.00  0.00     0.182 C
BRANCH  42  43
HETATM   43  C23 UNL     1      20.951  -9.727  -2.210  1.00  0.00     0.084 C
HETATM   44  N8  UNL     1      21.473  -8.607  -2.545  1.00  0.00    -0.334 N
ATOM     45  H8  UNL     1      22.039  -8.586  -3.393  1.00  0.00     0.168 HD
BRANCH  44  46
HETATM   46  C24 UNL     1      21.324  -7.404  -1.830  1.00  0.00     0.225 C
HETATM   47  N9  UNL     1      22.361  -6.747  -1.422  1.00  0.00    -0.365 N
ATOM     48  H92 UNL     1      23.288  -7.120  -1.627  1.00  0.00     0.159 HD
ATOM     49  H91 UNL     1      22.253  -5.875  -0.903  1.00  0.00     0.159 HD
BRANCH  46  50
HETATM   50  O7  UNL     1      20.062  -6.898  -1.550  1.00  0.00    -0.231 OA
BRANCH  50  51
HETATM   51  C25 UNL     1      19.757  -6.213  -0.382  1.00  0.00     0.380 C
HETATM   52  N10 UNL     1      20.458  -5.031  -0.057  1.00  0.00    -0.032 NA
HETATM   53  O8  UNL     1      18.863  -6.647   0.375  1.00  0.00    -0.242 OA
ENDBRANCH  50  51
ENDBRANCH  46  50
ENDBRANCH  44  46
ENDBRANCH  42  43
ENDBRANCH  40  42
ENDBRANCH  20  40
TORSDOF 14
ENDMDL