MODEL 4
REMARK VINA RESULT: -6.395537182      0.991      1.707
REMARK  13 active torsions:
REMARK  status: ('A' for Active; 'I' for Inactive)
REMARK    1  A    between atoms: C5_6  and  N1_7
REMARK       I    between atoms: N1_7  and  C6_9
REMARK    2  A    between atoms: C6_9  and  C7_11
REMARK    3  A    between atoms: C9_14  and  N2_15
REMARK    4  A    between atoms: C11_24  and  C12_25
REMARK    5  A    between atoms: C12_25  and  O2_26
REMARK    6  A    between atoms: C12_25  and  C15_31
REMARK    7  A    between atoms: O2_26  and  C13_27
REMARK    8  A    between atoms: C13_27  and  O4_29
REMARK    9  A    between atoms: C15_31  and  O6_33
REMARK   10  A    between atoms: C17_35  and  C18_36
REMARK   11  A    between atoms: C18_36  and  S3_37
REMARK   12  A    between atoms: S3_37  and  C19_38
REMARK   13  A    between atoms: C20_40  and  N5_41
ROOT
HETATM    1  C1  UNL     1       9.308  -6.912  -1.478  1.00  0.00     0.020 C
HETATM    2  C2  UNL     1      10.492  -6.394  -1.727  1.00  0.00    -0.049 C
HETATM    3  C3  UNL     1      11.435  -6.536  -0.599  1.00  0.00     0.114 C
HETATM    4  S1  UNL     1      13.047  -5.860  -0.816  1.00  0.00    -0.137 SA
HETATM    5  C4  UNL     1      13.886  -6.206  -2.316  1.00  0.00     0.183 C
HETATM    6  C5  UNL     1      14.557  -7.552  -2.502  1.00  0.00     0.213 C
HETATM    7  C10 UNL     1      14.040  -7.459  -3.954  1.00  0.00     0.348 C
HETATM    8  F1  UNL     1      15.024  -6.982  -4.755  1.00  0.00    -0.180 F
HETATM    9  F2  UNL     1      13.588  -8.684  -4.317  1.00  0.00    -0.180 F
HETATM   10  N4  UNL     1      13.064  -6.479  -3.485  1.00  0.00    -0.298 N
HETATM   11  C11 UNL     1      11.812  -5.857  -3.827  1.00  0.00     0.084 C
HETATM   12  C17 UNL     1      10.697  -5.813  -3.071  1.00  0.00    -0.012 C
ENDROOT
BRANCH  12  13
HETATM   13  C18 UNL     1       9.530  -5.195  -3.616  1.00  0.00     0.123 C
BRANCH  13  14
HETATM   14  S3  UNL     1       9.253  -3.532  -3.063  1.00  0.00    -0.098 SA
BRANCH  14  15
HETATM   15  C19 UNL     1       7.674  -2.937  -2.691  1.00  0.00     0.146 A
HETATM   16  O7  UNL     1       6.982  -3.318  -1.612  1.00  0.00    -0.270 OA
HETATM   17  C20 UNL     1       5.798  -2.868  -1.351  1.00  0.00     0.225 A
HETATM   18  N6  UNL     1       5.137  -1.981  -2.122  1.00  0.00    -0.287 N
HETATM   19  C21 UNL     1       5.750  -1.541  -3.231  1.00  0.00     0.276 A
ATOM     20  H6  UNL     1       4.203  -1.656  -1.872  1.00  0.00     0.172 HD
HETATM   21  O8  UNL     1       5.163  -0.709  -3.980  1.00  0.00    -0.266 OA
HETATM   22  C22 UNL     1       7.006  -2.024  -3.500  1.00  0.00     0.154 A
HETATM   23  N7  UNL     1       7.618  -1.596  -4.710  1.00  0.00    -0.093 NA
BRANCH  17  24
HETATM   24  N5  UNL     1       5.176  -3.276  -0.285  1.00  0.00    -0.365 N
ATOM     25  H52 UNL     1       4.455  -3.983  -0.428  1.00  0.00     0.159 HD
ATOM     26  H51 UNL     1       5.424  -2.886   0.624  1.00  0.00     0.159 HD
ENDBRANCH  17  24
ENDBRANCH  14  15
ENDBRANCH  13  14
ENDBRANCH  12  13
BRANCH  11  27
HETATM   27  C12 UNL     1      11.718  -5.278  -5.153  1.00  0.00     0.183 C
BRANCH  27  28
HETATM   28  O2  UNL     1      12.246  -4.016  -5.387  1.00  0.00    -0.247 OA
BRANCH  28  29
HETATM   29  C13 UNL     1      11.750  -3.023  -6.189  1.00  0.00     0.411 C
HETATM   30  O3  UNL     1      10.888  -2.250  -5.665  1.00  0.00    -0.229 OA
BRANCH  29  31
HETATM   31  O4  UNL     1      12.190  -2.902  -7.501  1.00  0.00    -0.303 OA
HETATM   32  C14 UNL     1      11.339  -3.379  -8.525  1.00  0.00     0.215 C
ENDBRANCH  29  31
ENDBRANCH  28  29
ENDBRANCH  27  28
BRANCH  27  33
HETATM   33  C15 UNL     1      11.854  -6.241  -6.302  1.00  0.00     0.319 C
HETATM   34  O5  UNL     1      11.009  -7.080  -6.582  1.00  0.00    -0.257 OA
BRANCH  33  35
HETATM   35  O6  UNL     1      13.007  -6.145  -7.065  1.00  0.00    -0.321 OA
HETATM   36  C16 UNL     1      13.599  -7.250  -7.740  1.00  0.00     0.213 C
ENDBRANCH  33  35
ENDBRANCH  27  33
ENDBRANCH  11  27
BRANCH   6  37
HETATM   37  N1  UNL     1      16.011  -7.492  -2.433  1.00  0.00    -0.341 N
HETATM   38  C6  UNL     1      16.720  -7.601  -1.222  1.00  0.00     0.269 C
HETATM   39  O1  UNL     1      16.119  -7.762  -0.132  1.00  0.00    -0.266 OA
ATOM     40  H1  UNL     1      16.537  -7.365  -3.297  1.00  0.00     0.163 HD
BRANCH  38  41
HETATM   41  C7  UNL     1      18.204  -7.519  -1.258  1.00  0.00     0.109 A
HETATM   42  C8  UNL     1      18.950  -8.447  -1.944  1.00  0.00     0.088 A
HETATM   43  S2  UNL     1      20.551  -7.901  -1.680  1.00  0.00    -0.064 SA
HETATM   44  C9  UNL     1      20.184  -6.539  -0.726  1.00  0.00     0.142 A
HETATM   45  N3  UNL     1      18.863  -6.564  -0.651  1.00  0.00    -0.332 N
ATOM     46  H3  UNL     1      18.363  -5.846  -0.126  1.00  0.00     0.168 HD
BRANCH  44  47
HETATM   47  N2  UNL     1      21.006  -5.659  -0.185  1.00  0.00    -0.380 N
ATOM     48  H22 UNL     1      21.635  -5.797   0.606  1.00  0.00     0.158 HD
ATOM     49  H21 UNL     1      21.168  -4.687  -0.448  1.00  0.00     0.158 HD
ENDBRANCH  44  47
ENDBRANCH  38  41
ENDBRANCH   6  37
TORSDOF 13
ENDMDL