MODEL 2
REMARK VINA RESULT: -6.632068858      3.919      6.889
REMARK  13 active torsions:
REMARK  status: ('A' for Active; 'I' for Inactive)
REMARK    1  A    between atoms: C2_2  and  O2_4
REMARK    2  A    between atoms: O2_4  and  N1_5
REMARK    3  A    between atoms: C3_6  and  C4_7
REMARK    4  A    between atoms: C4_7  and  C5_8
REMARK    5  A    between atoms: C4_7  and  S2_38
REMARK       I    between atoms: C5_8  and  N2_10
REMARK    6  A    between atoms: N2_10  and  C6_12
REMARK    7  A    between atoms: C6_12  and  C7_13
REMARK       I    between atoms: C7_13  and  N3_15
REMARK    8  A    between atoms: N3_15  and  C8_17
REMARK    9  A    between atoms: C9_19  and  C10_20
REMARK   10  A    between atoms: C11_26  and  N6_27
REMARK   11  A    between atoms: S2_38  and  N8_41
REMARK   12  A    between atoms: C18_44  and  O7_45
REMARK   13  A    between atoms: C19_47  and  O8_48
ROOT
HETATM    1  C6  UNL     1      17.337  -9.987  -0.486  1.00  0.00     0.114 C
HETATM    2  C13 UNL     1      16.933  -9.821   0.929  1.00  0.00     0.041 C
HETATM    3  C14 UNL     1      16.961 -11.171   1.559  1.00  0.00     0.003 C
HETATM    4  C15 UNL     1      17.122 -12.184   0.490  1.00  0.00     0.003 C
HETATM    5  C16 UNL     1      17.446 -11.472  -0.792  1.00  0.00     0.041 C
ENDROOT
BRANCH   1   6
HETATM    6  N2  UNL     1      16.407  -9.349  -1.404  1.00  0.00    -0.342 N
HETATM    7  C5  UNL     1      16.000  -8.004  -1.348  1.00  0.00     0.237 C
HETATM    8  O3  UNL     1      16.489  -7.261  -0.460  1.00  0.00    -0.272 OA
ATOM      9  H2  UNL     1      16.017  -9.925  -2.151  1.00  0.00     0.163 HD
BRANCH   7  10
HETATM   10  C4  UNL     1      14.989  -7.418  -2.306  1.00  0.00     0.203 C
BRANCH  10  11
HETATM   11  C3  UNL     1      13.589  -7.579  -1.957  1.00  0.00     0.145 C
HETATM   12  N1  UNL     1      13.253  -8.812  -1.233  1.00  0.00    -0.168 NA
HETATM   13  C20 UNL     1      12.137  -8.542  -0.372  1.00  0.00     0.061 C
HETATM   14  C19 UNL     1      11.757  -7.109  -0.623  1.00  0.00     0.173 C
HETATM   15  C21 UNL     1      10.918  -9.395  -0.680  1.00  0.00     0.037 C
HETATM   16  C22 UNL     1      12.442  -8.674   1.094  1.00  0.00     0.037 C
HETATM   17  C18 UNL     1      13.154  -6.517  -0.912  1.00  0.00     0.170 C
BRANCH  12  18
HETATM   18  O2  UNL     1      12.756  -9.651  -2.199  1.00  0.00    -0.223 OA
BRANCH  18  19
HETATM   19  C2  UNL     1      13.203 -10.886  -2.541  1.00  0.00     0.271 C
HETATM   20  C1  UNL     1      12.334 -11.769  -3.354  1.00  0.00     0.127 C
HETATM   21  O1  UNL     1      14.336 -11.223  -2.153  1.00  0.00    -0.264 OA
ENDBRANCH  18  19
ENDBRANCH  12  18
BRANCH  14  22
HETATM   22  O8  UNL     1      10.954  -6.980  -1.761  1.00  0.00    -0.391 OA
ATOM     23  H8  UNL     1      10.273  -6.339  -1.595  1.00  0.00     0.210 HD
ENDBRANCH  14  22
BRANCH  17  24
HETATM   24  O7  UNL     1      12.973  -5.277  -1.415  1.00  0.00    -0.391 OA
ATOM     25  H7  UNL     1      13.451  -4.594  -0.961  1.00  0.00     0.210 HD
ENDBRANCH  17  24
ENDBRANCH  10  11
BRANCH  10  26
HETATM   26  S2  UNL     1      15.551  -7.840  -3.915  1.00  0.00     0.058 S
HETATM   27  C17 UNL     1      15.295  -6.569  -5.098  1.00  0.00     0.139 C
HETATM   28  O6  UNL     1      17.070  -8.005  -3.782  1.00  0.00    -0.247 OA
BRANCH  26  29
HETATM   29  N8  UNL     1      15.092  -9.210  -4.435  1.00  0.00    -0.181 N
HETATM   30  F1  UNL     1      14.145  -9.347  -5.394  1.00  0.00    -0.093 F
ATOM     31  H8  UNL     1      15.517 -10.050  -4.043  1.00  0.00     0.209 HD
ENDBRANCH  26  29
ENDBRANCH  10  26
ENDBRANCH   7  10
ENDBRANCH   1   6
BRANCH   1  32
HETATM   32  C7  UNL     1      18.681  -9.424  -0.690  1.00  0.00     0.251 C
HETATM   33  O4  UNL     1      19.642  -9.867  -0.028  1.00  0.00    -0.270 OA
HETATM   34  N3  UNL     1      18.891  -8.393  -1.631  1.00  0.00    -0.317 N
ATOM     35  H3  UNL     1      18.125  -8.008  -2.182  1.00  0.00     0.169 HD
BRANCH  34  36
HETATM   36  C8  UNL     1      20.248  -7.907  -1.775  1.00  0.00     0.117 A
HETATM   37  S1  UNL     1      21.539  -8.551  -2.685  1.00  0.00    -0.049 SA
HETATM   38  C9  UNL     1      22.731  -7.370  -2.323  1.00  0.00     0.110 A
HETATM   39  N7  UNL     1      22.059  -6.551  -1.522  1.00  0.00    -0.337 N
HETATM   40  C12 UNL     1      20.826  -6.792  -1.231  1.00  0.00     0.138 A
ATOM     41  H7  UNL     1      22.520  -5.727  -1.135  1.00  0.00     0.167 HD
HETATM   42 CL1  UNL     1      19.874  -5.727  -0.165  1.00  0.00    -0.061 Cl
BRANCH  38  43
HETATM   43  C10 UNL     1      24.126  -7.265  -2.778  1.00  0.00     0.135 A
HETATM   44  N4  UNL     1      24.431  -6.822  -4.007  1.00  0.00    -0.235 N
HETATM   45  O5  UNL     1      25.727  -6.828  -4.151  1.00  0.00    -0.155 OA
ATOM     46  H4  UNL     1      23.758  -6.528  -4.715  1.00  0.00     0.197 HD
HETATM   47  N5  UNL     1      26.262  -7.256  -3.072  1.00  0.00    -0.224 N
HETATM   48  C11 UNL     1      25.290  -7.554  -2.153  1.00  0.00     0.153 A
ATOM     49  H5  UNL     1      27.264  -7.361  -2.917  1.00  0.00     0.198 HD
BRANCH  48  50
HETATM   50  N6  UNL     1      25.467  -7.997  -0.977  1.00  0.00    -0.382 N
ATOM     51  H62 UNL     1      25.560  -8.975  -0.701  1.00  0.00     0.157 HD
ATOM     52  H61 UNL     1      25.553  -7.473  -0.106  1.00  0.00     0.157 HD
ENDBRANCH  48  50
ENDBRANCH  38  43
ENDBRANCH  34  36
ENDBRANCH   1  32
TORSDOF 13
ENDMDL