MODEL 2
REMARK VINA RESULT: -9.072270079      0.640      1.618
REMARK  11 active torsions:
REMARK  status: ('A' for Active; 'I' for Inactive)
REMARK    1  A    between atoms: C3_5  and  N3_6
REMARK       I    between atoms: N3_6  and  C4_8
REMARK    2  A    between atoms: C4_8  and  C5_10
REMARK    3  A    between atoms: C5_10  and  O2_11
REMARK    4  A    between atoms: O2_11  and  C6_12
REMARK    5  A    between atoms: C6_12  and  C7_14
REMARK    6  A    between atoms: C9_16  and  N4_17
REMARK       I    between atoms: N4_17  and  C10_19
REMARK    7  A    between atoms: C10_19  and  C11_21
REMARK    8  A    between atoms: C13_25  and  N6_26
REMARK    9  A    between atoms: N6_26  and  C14_28
REMARK   10  A    between atoms: C16_38  and  N10_39
REMARK   11  A    between atoms: C18_43  and  N11_44
ROOT
HETATM    1  C7  UNL     1      13.951  -7.044  -1.266  1.00  0.00     0.044 A
HETATM    2  C8  UNL     1      15.263  -7.027  -1.628  1.00  0.00     0.047 A
HETATM    3  C9  UNL     1      16.294  -7.617  -0.850  1.00  0.00     0.038 A
HETATM    4  C17 UNL     1      15.914  -8.226   0.318  1.00  0.00     0.065 A
HETATM    5  C18 UNL     1      14.581  -8.244   0.691  1.00  0.00     0.106 A
HETATM    6  C19 UNL     1      13.608  -7.660  -0.088  1.00  0.00     0.053 A
ENDROOT
BRANCH   3   7
HETATM    7  N4  UNL     1      17.617  -7.566  -1.327  1.00  0.00    -0.323 N
HETATM    8  C10 UNL     1      18.723  -7.182  -0.575  1.00  0.00     0.261 C
HETATM    9  O4  UNL     1      18.678  -6.831   0.609  1.00  0.00    -0.267 OA
ATOM     10  H4  UNL     1      17.777  -7.830  -2.299  1.00  0.00     0.169 HD
BRANCH   8  11
HETATM   11  C11 UNL     1      20.086  -7.174  -1.188  1.00  0.00     0.092 A
HETATM   12  C12 UNL     1      20.355  -8.159  -2.108  1.00  0.00     0.127 A
HETATM   13  N5  UNL     1      21.598  -8.165  -2.677  1.00  0.00    -0.200 N
HETATM   14  C13 UNL     1      22.524  -7.237  -2.348  1.00  0.00     0.685 A
ATOM     15  H5  UNL     1      21.831  -8.883  -3.363  1.00  0.00     0.183 HD
HETATM   16  N9  UNL     1      22.210  -6.292  -1.440  1.00  0.00    -0.176 N
HETATM   17  C16 UNL     1      21.008  -6.221  -0.836  1.00  0.00     0.132 A
ATOM     18  H9  UNL     1      22.916  -5.597  -1.198  1.00  0.00     0.186 HD
BRANCH  14  19
HETATM   19  N6  UNL     1      23.795  -7.297  -2.974  1.00  0.00    -0.168 N
ATOM     20  H6  UNL     1      23.895  -7.669  -3.918  1.00  0.00     0.186 HD
BRANCH  19  21
HETATM   21  C14 UNL     1      24.827  -6.867  -2.317  1.00  0.00     0.181 A
HETATM   22  N7  UNL     1      25.284  -5.613  -2.259  1.00  0.00    -0.278 N
HETATM   23  N8  UNL     1      26.317  -5.371  -1.559  1.00  0.00    -0.282 N
ATOM     24  H7  UNL     1      24.813  -4.864  -2.767  1.00  0.00     0.189 HD
HETATM   25  C15 UNL     1      26.923  -6.348  -0.903  1.00  0.00     0.163 A
ATOM     26  H8  UNL     1      26.681  -4.420  -1.502  1.00  0.00     0.188 HD
HETATM   27 CL1  UNL     1      28.363  -6.261   0.128  1.00  0.00    -0.055 Cl
HETATM   28  S1  UNL     1      25.947  -7.688  -1.319  1.00  0.00    -0.021 SA
ENDBRANCH  19  21
ENDBRANCH  14  19
BRANCH  17  29
HETATM   29  N10 UNL     1      20.739  -5.304   0.028  1.00  0.00    -0.384 N
ATOM     30 2H10 UNL     1      20.178  -4.487  -0.215  1.00  0.00     0.157 HD
ATOM     31 1H10 UNL     1      21.076  -5.358   0.989  1.00  0.00     0.157 HD
ENDBRANCH  17  29
ENDBRANCH   8  11
ENDBRANCH   3   7
BRANCH   1  32
HETATM   32  C6  UNL     1      12.929  -6.429  -2.089  1.00  0.00     0.293 C
HETATM   33  O3  UNL     1      13.022  -6.370  -3.348  1.00  0.00    -0.259 OA
BRANCH  32  34
HETATM   34  O2  UNL     1      11.796  -5.879  -1.509  1.00  0.00    -0.308 OA
BRANCH  34  35
HETATM   35  C5  UNL     1      10.541  -6.496  -1.536  1.00  0.00     0.282 C
BRANCH  35  36
HETATM   36  C4  UNL     1       9.455  -5.686  -2.111  1.00  0.00     0.246 C
HETATM   37  N3  UNL     1       9.358  -4.307  -1.816  1.00  0.00    -0.318 N
ATOM     38  H3  UNL     1      10.039  -3.859  -1.202  1.00  0.00     0.169 HD
HETATM   39  O1  UNL     1       8.617  -6.222  -2.865  1.00  0.00    -0.271 OA
BRANCH  37  40
HETATM   40  C3  UNL     1       8.288  -3.550  -2.393  1.00  0.00     0.145 A
HETATM   41  C2  UNL     1       8.398  -2.951  -3.640  1.00  0.00     0.154 A
HETATM   42  N1  UNL     1       7.337  -2.263  -4.092  1.00  0.00    -0.290 N
HETATM   43  N2  UNL     1       9.604  -3.088  -4.373  1.00  0.00    -0.080 NA
HETATM   44  C1  UNL     1       7.443  -1.635  -5.392  1.00  0.00     0.162 C
HETATM   45  C22 UNL     1       6.202  -2.144  -3.382  1.00  0.00     0.332 A
HETATM   46  N12 UNL     1       6.069  -2.719  -2.160  1.00  0.00    -0.269 N
HETATM   47  O8  UNL     1       5.264  -1.480  -3.888  1.00  0.00    -0.246 OA
HETATM   48  C20 UNL     1       7.125  -3.426  -1.669  1.00  0.00     0.281 A
HETATM   49  C21 UNL     1       4.840  -2.587  -1.398  1.00  0.00     0.164 C
HETATM   50  O7  UNL     1       7.016  -3.960  -0.548  1.00  0.00    -0.265 OA
ENDBRANCH  37  40
ENDBRANCH  35  36
ENDBRANCH  34  35
ENDBRANCH  32  34
ENDBRANCH   1  32
BRANCH   5  51
HETATM   51  N11 UNL     1      14.222  -8.882   1.908  1.00  0.00    -0.116 N
HETATM   52  O5  UNL     1      13.142  -8.603   2.462  1.00  0.00    -0.532 OA
HETATM   53  O6  UNL     1      15.027  -9.811   2.518  1.00  0.00    -0.532 OA
ENDBRANCH   5  51
TORSDOF 11
ENDMDL