MODEL 2
REMARK VINA RESULT: -6.284483554      1.734      2.952
REMARK  13 active torsions:
REMARK  status: ('A' for Active; 'I' for Inactive)
REMARK    1  A    between atoms: O1_2  and  C2_3
REMARK    2  A    between atoms: C2_3  and  C3_5
REMARK    3  A    between atoms: C3_5  and  N1_6
REMARK    4  A    between atoms: C3_5  and  C6_11
REMARK    5  A    between atoms: C3_5  and  C9_18
REMARK       I    between atoms: N1_6  and  C4_8
REMARK    6  A    between atoms: C9_18  and  N3_19
REMARK    7  A    between atoms: C9_18  and  C20_37
REMARK       I    between atoms: N3_19  and  C10_21
REMARK    8  A    between atoms: C10_21  and  C11_23
REMARK       I    between atoms: N5_27  and  C14_28
REMARK    9  A    between atoms: C14_28  and  C15_30
REMARK   10  A    between atoms: C15_30  and  O6_31
REMARK   11  A    between atoms: C15_30  and  C16_33
REMARK   12  A    between atoms: C22_41  and  N7_42
REMARK   13  A    between atoms: C24_46  and  O7_47
ROOT
HETATM    1  C9  UNL     1      16.335  -7.985  -0.687  1.00  0.00     0.205 C
ENDROOT
BRANCH   1   2
HETATM    2  C3  UNL     1      15.181  -8.249  -1.572  1.00  0.00     0.198 C
BRANCH   2   3
HETATM    3  C2  UNL     1      14.930  -6.975  -2.395  1.00  0.00     0.296 C
HETATM    4  O2  UNL     1      15.336  -6.918  -3.571  1.00  0.00    -0.262 OA
BRANCH   3   5
HETATM    5  O1  UNL     1      14.271  -5.887  -1.900  1.00  0.00    -0.324 OA
HETATM    6  C1  UNL     1      13.433  -5.060  -2.731  1.00  0.00     0.213 C
ENDBRANCH   3   5
ENDBRANCH   2   3
BRANCH   2   7
HETATM    7  N1  UNL     1      15.472  -9.253  -2.580  1.00  0.00    -0.335 N
HETATM    8  C4  UNL     1      15.508 -10.628  -2.506  1.00  0.00     0.215 C
HETATM    9  C5  UNL     1      15.863 -11.431  -3.736  1.00  0.00     0.117 C
HETATM   10  O3  UNL     1      15.270 -11.288  -1.500  1.00  0.00    -0.274 OA
ATOM     11  H1  UNL     1      15.687  -8.874  -3.502  1.00  0.00     0.164 HD
ENDBRANCH   2   7
BRANCH   2  12
HETATM   12  C6  UNL     1      13.894  -8.522  -0.862  1.00  0.00     0.093 A
HETATM   13  N2  UNL     1      13.626  -8.242   0.416  1.00  0.00    -0.359 N
HETATM   14  C7  UNL     1      12.469  -8.516   0.905  1.00  0.00     0.120 A
ATOM     15  H2  UNL     1      14.339  -7.811   1.004  1.00  0.00     0.165 HD
HETATM   16  C8  UNL     1      11.536  -9.096   0.084  1.00  0.00     0.091 A
HETATM   17 CL1  UNL     1       9.884  -9.578   0.476  1.00  0.00    -0.075 Cl
HETATM   18  S1  UNL     1      12.412  -9.208  -1.374  1.00  0.00    -0.060 SA
ENDBRANCH   2  12
ENDBRANCH   1   2
BRANCH   1  19
HETATM   19  N3  UNL     1      17.580  -7.672  -1.308  1.00  0.00    -0.344 N
HETATM   20  C10 UNL     1      18.698  -7.139  -0.540  1.00  0.00     0.243 C
HETATM   21  O4  UNL     1      18.401  -6.952   0.675  1.00  0.00    -0.271 OA
ATOM     22  H3  UNL     1      17.691  -7.825  -2.310  1.00  0.00     0.163 HD
BRANCH  20  23
HETATM   23  C11 UNL     1      19.953  -6.896  -1.175  1.00  0.00     0.200 C
HETATM   24  C12 UNL     1      20.722  -5.751  -0.567  1.00  0.00     0.054 C
HETATM   25  C13 UNL     1      22.049  -5.886  -1.303  1.00  0.00     0.138 C
HETATM   26  N4  UNL     1      22.007  -7.208  -1.954  1.00  0.00    -0.135 NA
HETATM   27  N5  UNL     1      20.963  -7.906  -1.222  1.00  0.00    -0.249 N
HETATM   28  C14 UNL     1      21.175  -9.204  -0.791  1.00  0.00     0.265 C
HETATM   29  O5  UNL     1      20.357  -9.926  -0.121  1.00  0.00    -0.269 OA
BRANCH  28  30
HETATM   30  C15 UNL     1      22.456  -9.934  -1.083  1.00  0.00     0.218 C
BRANCH  30  31
HETATM   31  O6  UNL     1      23.583  -9.206  -0.818  1.00  0.00    -0.385 OA
ATOM     32  H6  UNL     1      24.295  -9.716  -0.451  1.00  0.00     0.210 HD
ENDBRANCH  30  31
BRANCH  30  33
HETATM   33  C16 UNL     1      22.458 -10.578  -2.437  1.00  0.00    -0.017 C
HETATM   34  C17 UNL     1      22.793 -12.057  -2.209  1.00  0.00     0.017 C
HETATM   35  C18 UNL     1      21.108 -10.547  -3.095  1.00  0.00     0.017 C
HETATM   36  C19 UNL     1      23.502 -10.040  -3.362  1.00  0.00     0.017 C
ENDBRANCH  30  33
ENDBRANCH  28  30
ENDBRANCH  20  23
ENDBRANCH   1  19
BRANCH   1  37
HETATM   37  C20 UNL     1      16.647  -9.119   0.276  1.00  0.00     0.153 A
HETATM   38  N6  UNL     1      17.516 -10.117   0.162  1.00  0.00    -0.333 N
HETATM   39  C21 UNL     1      17.441 -10.894   1.279  1.00  0.00     0.115 A
ATOM     40  H6  UNL     1      18.137 -10.276  -0.632  1.00  0.00     0.168 HD
HETATM   41  C22 UNL     1      18.051 -12.024   1.747  1.00  0.00     0.094 A
HETATM   42  C25 UNL     1      16.485 -10.319   2.080  1.00  0.00     0.181 A
HETATM   43  C23 UNL     1      17.663 -12.503   2.984  1.00  0.00     0.090 A
HETATM   44  C24 UNL     1      16.700 -11.893   3.751  1.00  0.00     0.144 A
HETATM   45  N8  UNL     1      16.111 -10.783   3.277  1.00  0.00    -0.315 N
ATOM     46  H8  UNL     1      15.392 -10.304   3.820  1.00  0.00     0.170 HD
HETATM   47  O8  UNL     1      16.048  -9.256   1.418  1.00  0.00    -0.276 OA
BRANCH  41  48
HETATM   48  N7  UNL     1      19.037 -12.639   0.951  1.00  0.00    -0.222 N
HETATM   49  F1  UNL     1      20.315 -12.613   1.338  1.00  0.00    -0.101 F
ATOM     50  H7  UNL     1      18.776 -13.103   0.081  1.00  0.00     0.200 HD
ENDBRANCH  41  48
BRANCH  44  51
HETATM   51  O7  UNL     1      16.340 -12.413   4.999  1.00  0.00    -0.346 OA
ATOM     52  H7  UNL     1      17.000 -12.645   5.640  1.00  0.00     0.219 HD
ENDBRANCH  44  51
ENDBRANCH   1  37
TORSDOF 13
ENDMDL