MODEL 4
REMARK VINA RESULT: -6.191705287      3.288      6.865
REMARK  14 active torsions:
REMARK  status: ('A' for Active; 'I' for Inactive)
REMARK    1  A    between atoms: O1_2  and  C2_3
REMARK    2  A    between atoms: C2_3  and  O2_4
REMARK    3  A    between atoms: C2_3  and  C3_6
REMARK    4  A    between atoms: C4_7  and  O3_8
REMARK    5  A    between atoms: C5_10  and  C6_11
REMARK       I    between atoms: C6_11  and  N1_13
REMARK    6  A    between atoms: N1_13  and  C7_15
REMARK    7  A    between atoms: C8_16  and  O5_17
REMARK    8  A    between atoms: C10_21  and  O6_22
REMARK    9  A    between atoms: N3_24  and  N4_25
REMARK       I    between atoms: N4_25  and  C12_27
REMARK   10  A    between atoms: C12_27  and  C13_29
REMARK   11  A    between atoms: C13_29  and  N5_30
REMARK   12  A    between atoms: C15_36  and  O9_37
REMARK   13  A    between atoms: C18_42  and  O10_43
REMARK   14  A    between atoms: C21_47  and  O11_48
ROOT
HETATM    1  C3  UNL     1      13.462  -8.124   0.688  1.00  0.00     0.070 A
HETATM    2  C4  UNL     1      14.846  -8.467   0.739  1.00  0.00     0.100 A
HETATM    3  C5  UNL     1      15.719  -8.183  -0.315  1.00  0.00     0.100 A
HETATM    4  C15 UNL     1      15.223  -7.551  -1.439  1.00  0.00     0.097 A
HETATM    5  C16 UNL     1      13.865  -7.213  -1.492  1.00  0.00     0.033 A
HETATM    6  C17 UNL     1      13.424  -6.576  -2.654  1.00  0.00     0.060 A
HETATM    7 BR1  UNL     1      14.634  -6.205  -4.065  1.00  0.00    -0.047 Br
HETATM    8  C18 UNL     1      12.092  -6.196  -2.812  1.00  0.00     0.111 A
HETATM    9  C20 UNL     1      11.266  -6.483  -1.775  1.00  0.00     0.102 A
HETATM   10 CL1  UNL     1       9.567  -6.036  -1.896  1.00  0.00    -0.078 Cl
HETATM   11  C21 UNL     1      11.684  -7.119  -0.604  1.00  0.00     0.102 A
HETATM   12  C22 UNL     1      13.006  -7.494  -0.450  1.00  0.00     0.031 A
ENDROOT
BRANCH   3  13
HETATM   13  C6  UNL     1      17.121  -8.522  -0.278  1.00  0.00     0.262 C
HETATM   14  O4  UNL     1      17.766  -8.195   0.800  1.00  0.00    -0.267 OA
HETATM   15  N1  UNL     1      17.866  -9.166  -1.275  1.00  0.00    -0.315 N
ATOM     16  H1  UNL     1      17.424  -9.452  -2.148  1.00  0.00     0.169 HD
BRANCH  15  17
HETATM   17  C7  UNL     1      19.281  -9.422  -1.047  1.00  0.00     0.157 A
HETATM   18  C8  UNL     1      19.669 -10.614  -0.513  1.00  0.00     0.178 A
HETATM   19  N2  UNL     1      20.986 -10.793  -0.327  1.00  0.00    -0.299 N
HETATM   20  C10 UNL     1      21.904  -9.870  -0.637  1.00  0.00     0.250 A
ATOM     21  H2  UNL     1      21.303 -11.677   0.071  1.00  0.00     0.171 HD
HETATM   22  N3  UNL     1      21.555  -8.654  -1.177  1.00  0.00    -0.177 N
HETATM   23  C14 UNL     1      20.246  -8.477  -1.362  1.00  0.00     0.301 A
HETATM   24  O8  UNL     1      19.808  -7.423  -1.842  1.00  0.00    -0.263 OA
BRANCH  18  25
HETATM   25  O5  UNL     1      18.727 -11.579  -0.188  1.00  0.00    -0.339 OA
HETATM   26  C9  UNL     1      18.449 -11.779   1.199  1.00  0.00     0.211 C
ENDBRANCH  18  25
BRANCH  20  27
HETATM   27  O6  UNL     1      23.253 -10.171  -0.396  1.00  0.00    -0.325 OA
HETATM   28  C11 UNL     1      23.664 -10.627   0.876  1.00  0.00     0.213 C
ENDBRANCH  20  27
BRANCH  22  29
HETATM   29  N4  UNL     1      22.575  -7.773  -1.461  1.00  0.00    -0.256 N
HETATM   30  C12 UNL     1      23.206  -7.369  -2.626  1.00  0.00     0.262 C
HETATM   31  O7  UNL     1      22.939  -7.773  -3.775  1.00  0.00    -0.270 OA
ATOM     32  H4  UNL     1      22.949  -7.318  -0.628  1.00  0.00     0.191 HD
BRANCH  30  33
HETATM   33  C13 UNL     1      24.332  -6.338  -2.527  1.00  0.00     0.333 C
BRANCH  33  34
HETATM   34  N5  UNL     1      25.280  -6.662  -1.515  1.00  0.00    -0.071 N
ATOM     35  H53 UNL     1      24.974  -6.321  -0.603  1.00  0.00     0.274 HD
ATOM     36  H52 UNL     1      25.284  -7.663  -1.323  1.00  0.00     0.274 HD
ATOM     37  H51 UNL     1      26.217  -6.326  -1.736  1.00  0.00     0.274 HD
ENDBRANCH  33  34
ENDBRANCH  30  33
ENDBRANCH  22  29
ENDBRANCH  15  17
ENDBRANCH   3  13
BRANCH   2  38
HETATM   38  O3  UNL     1      15.309  -9.070   1.820  1.00  0.00    -0.358 OA
ATOM     39  H3  UNL     1      16.190  -8.867   2.112  1.00  0.00     0.217 HD
ENDBRANCH   2  38
BRANCH   4  40
HETATM   40  O9  UNL     1      15.966  -7.218  -2.533  1.00  0.00    -0.359 OA
ATOM     41  H9  UNL     1      15.803  -6.465  -3.088  1.00  0.00     0.217 HD
ENDBRANCH   4  40
BRANCH   1  42
HETATM   42  C2  UNL     1      12.658  -8.463   1.829  1.00  0.00     0.192 C
BRANCH  42  43
HETATM   43  O1  UNL     1      11.555  -9.187   2.079  1.00  0.00    -0.335 OA
HETATM   44  C1  UNL     1      10.726  -8.979   3.244  1.00  0.00     0.212 C
ENDBRANCH  42  43
BRANCH  42  45
HETATM   45  O2  UNL     1      13.084  -7.943   2.960  1.00  0.00    -0.340 OA
ATOM     46  H2  UNL     1      13.378  -7.056   2.792  1.00  0.00     0.220 HD
ENDBRANCH  42  45
ENDBRANCH   1  42
BRANCH  11  47
HETATM   47  O11 UNL     1      10.766  -7.357   0.373  1.00  0.00    -0.358 OA
ATOM     48  H11 UNL     1      10.258  -8.159   0.335  1.00  0.00     0.217 HD
ENDBRANCH  11  47
BRANCH   8  49
HETATM   49  O10 UNL     1      11.694  -5.566  -3.981  1.00  0.00    -0.353 OA
HETATM   50  C19 UNL     1      11.607  -4.147  -3.951  1.00  0.00     0.210 C
ENDBRANCH   8  49
TORSDOF 14
ENDMDL