MODEL 3
REMARK VINA RESULT: -7.101800362      4.315      7.802
REMARK  11 active torsions:
REMARK  status: ('A' for Active; 'I' for Inactive)
REMARK    1  A    between atoms: C3_5  and  N2_6
REMARK    2  A    between atoms: C4_10  and  C5_11
REMARK    3  A    between atoms: C5_11  and  O2_13
REMARK    4  A    between atoms: O2_13  and  C6_14
REMARK    5  A    between atoms: C6_14  and  C7_15
REMARK       I    between atoms: C7_15  and  N3_17
REMARK    6  A    between atoms: N3_17  and  C8_19
REMARK    7  A    between atoms: C9_20  and  N4_21
REMARK    8  A    between atoms: C11_25  and  C12_26
REMARK       I    between atoms: C12_26  and  N5_28
REMARK    9  A    between atoms: N5_28  and  C13_30
REMARK   10  A    between atoms: N10_38  and  S2_39
REMARK   11  A    between atoms: S2_39  and  C14_42
ROOT
HETATM    1  C8  UNL     1      17.360 -12.596   1.490  1.00  0.00     0.159 A
HETATM    2  C9  UNL     1      16.829 -11.529   2.165  1.00  0.00     0.150 A
HETATM    3  C10 UNL     1      17.144 -11.717   3.509  1.00  0.00     0.076 A
HETATM    4  C11 UNL     1      17.868 -12.916   3.638  1.00  0.00     0.123 A
HETATM    5  N10 UNL     1      17.983 -13.429   2.394  1.00  0.00    -0.212 N
ENDROOT
BRANCH   1   6
HETATM    6  N3  UNL     1      17.449 -12.775   0.082  1.00  0.00    -0.308 N
HETATM    7  C7  UNL     1      18.340 -12.041  -0.720  1.00  0.00     0.247 C
HETATM    8  O3  UNL     1      18.222 -12.138  -1.969  1.00  0.00    -0.271 OA
ATOM      9  H3  UNL     1      16.842 -13.463  -0.363  1.00  0.00     0.170 HD
BRANCH   7  10
HETATM   10  C6  UNL     1      19.387 -11.201  -0.165  1.00  0.00     0.282 C
BRANCH  10  11
HETATM   11  O2  UNL     1      19.101  -9.840  -0.078  1.00  0.00    -0.308 OA
BRANCH  11  12
HETATM   12  C5  UNL     1      19.128  -8.910  -1.095  1.00  0.00     0.302 C
HETATM   13  O1  UNL     1      18.085  -8.744  -1.757  1.00  0.00    -0.259 OA
BRANCH  12  14
HETATM   14  C4  UNL     1      20.359  -8.142  -1.381  1.00  0.00     0.105 A
HETATM   15  C2  UNL     1      20.669  -6.856  -1.039  1.00  0.00     0.030 A
HETATM   16  C1  UNL     1      19.650  -6.041  -0.250  1.00  0.00     0.070 C
HETATM   17  N1  UNL     1      21.825  -6.391  -1.403  1.00  0.00    -0.339 N
HETATM   18  C3  UNL     1      22.650  -7.186  -2.089  1.00  0.00     0.143 A
ATOM     19  H1  UNL     1      22.098  -5.436  -1.170  1.00  0.00     0.168 HD
HETATM   20  S1  UNL     1      21.759  -8.633  -2.220  1.00  0.00    -0.046 SA
BRANCH  18  21
HETATM   21  N2  UNL     1      23.854  -6.890  -2.538  1.00  0.00    -0.380 N
ATOM     22  H22 UNL     1      24.348  -5.998  -2.547  1.00  0.00     0.158 HD
ATOM     23  H21 UNL     1      24.525  -7.525  -2.972  1.00  0.00     0.158 HD
ENDBRANCH  18  21
ENDBRANCH  12  14
ENDBRANCH  11  12
ENDBRANCH  10  11
ENDBRANCH   7  10
ENDBRANCH   1   6
BRANCH   2  24
HETATM   24  N4  UNL     1      16.018 -10.479   1.683  1.00  0.00    -0.112 N
HETATM   25  O4  UNL     1      15.920 -10.056   0.556  1.00  0.00    -0.532 OA
HETATM   26  O5  UNL     1      15.185  -9.860   2.633  1.00  0.00    -0.532 OA
ENDBRANCH   2  24
BRANCH   5  27
HETATM   27  S2  UNL     1      18.744 -14.875   1.928  1.00  0.00     0.271 S
HETATM   28  O7  UNL     1      17.957 -16.005   2.671  1.00  0.00    -0.200 OA
HETATM   29  O8  UNL     1      18.641 -15.263   0.505  1.00  0.00    -0.200 OA
BRANCH  27  30
HETATM   30  C14 UNL     1      20.394 -15.045   2.436  1.00  0.00     0.085 A
HETATM   31  C15 UNL     1      20.750 -16.138   3.200  1.00  0.00     0.069 A
HETATM   32  C16 UNL     1      22.040 -16.306   3.660  1.00  0.00     0.143 A
HETATM   33  F1  UNL     1      22.391 -17.387   4.417  1.00  0.00    -0.204 F
HETATM   34  C17 UNL     1      23.005 -15.362   3.354  1.00  0.00     0.106 A
HETATM   35  N11 UNL     1      24.348 -15.482   3.801  1.00  0.00    -0.097 NA
HETATM   36  C18 UNL     1      22.664 -14.266   2.593  1.00  0.00     0.062 A
HETATM   37 CL1  UNL     1      23.870 -13.043   2.185  1.00  0.00    -0.082 Cl
HETATM   38  C19 UNL     1      21.356 -14.122   2.141  1.00  0.00     0.051 A
ENDBRANCH  27  30
ENDBRANCH   5  27
BRANCH   4  39
HETATM   39  C12 UNL     1      18.325 -13.375   4.931  1.00  0.00     0.287 C
HETATM   40  O6  UNL     1      19.491 -13.538   5.250  1.00  0.00    -0.265 OA
HETATM   41  N5  UNL     1      17.340 -13.667   5.941  1.00  0.00    -0.152 N
ATOM     42  H5  UNL     1      16.982 -12.910   6.523  1.00  0.00     0.188 HD
BRANCH  41  43
HETATM   43  C13 UNL     1      16.903 -14.861   6.127  1.00  0.00     0.713 A
HETATM   44  N6  UNL     1      16.053 -15.248   7.093  1.00  0.00    -0.113 N
HETATM   45  N7  UNL     1      15.808 -16.544   7.004  1.00  0.00     0.009 NA
ATOM     46  H6  UNL     1      15.654 -14.628   7.798  1.00  0.00     0.203 HD
HETATM   47  N8  UNL     1      16.516 -16.986   5.964  1.00  0.00    -0.212 N
HETATM   48  N9  UNL     1      17.176 -15.978   5.430  1.00  0.00    -0.118 N
ATOM     49  H8  UNL     1      16.541 -17.951   5.634  1.00  0.00     0.206 HD
ATOM     50  H9  UNL     1      17.795 -16.036   4.621  1.00  0.00     0.207 HD
ENDBRANCH  41  43
ENDBRANCH   4  39
TORSDOF 11
ENDMDL