MODEL 1
REMARK VINA RESULT: -7.507221602      0.000      0.000
REMARK  13 active torsions:
REMARK  status: ('A' for Active; 'I' for Inactive)
REMARK    1  A    between atoms: C2_2  and  O1_3
REMARK    2  A    between atoms: O1_3  and  C3_4
REMARK    3  A    between atoms: C3_4  and  C4_6
REMARK    4  A    between atoms: C4_6  and  N1_7
REMARK    5  A    between atoms: C4_6  and  C23_48
REMARK    6  A    between atoms: N1_7  and  N2_9
REMARK    7  A    between atoms: N2_9  and  C5_11
REMARK    8  A    between atoms: N7_26  and  C10_27
REMARK    9  A    between atoms: C10_27  and  C11_28
REMARK   10  A    between atoms: C11_28  and  C12_29
REMARK   11  A    between atoms: C12_29  and  N8_30
REMARK   12  A    between atoms: N8_30  and  C13_32
REMARK   13  A    between atoms: C23_48  and  O5_50
ROOT
HETATM    1  C5  UNL     1      10.241  -6.099  -1.083  1.00  0.00     0.166 A
HETATM    2  N3  UNL     1      10.170  -7.240  -0.359  1.00  0.00    -0.173 N
ATOM      3  H3  UNL     1       9.281  -7.486   0.076  1.00  0.00     0.186 HD
HETATM    4  C6  UNL     1      11.222  -8.064  -0.187  1.00  0.00     0.679 A
HETATM    5  N4  UNL     1      11.087  -9.120   0.509  1.00  0.00    -0.234 N
ATOM      6  H41 UNL     1      11.883  -9.743   0.639  1.00  0.00     0.174 HD
ATOM      7  H42 UNL     1      10.214  -9.396   0.958  1.00  0.00     0.174 HD
HETATM    8  N5  UNL     1      12.383  -7.697  -0.784  1.00  0.00    -0.174 N
ATOM      9  H5  UNL     1      13.195  -8.304  -0.671  1.00  0.00     0.186 HD
HETATM   10  C7  UNL     1      12.522  -6.585  -1.514  1.00  0.00     0.156 A
HETATM   11  C8  UNL     1      11.431  -5.738  -1.686  1.00  0.00     0.126 A
HETATM   12  N6  UNL     1      11.859  -4.745  -2.455  1.00  0.00    -0.326 N
ATOM     13  H6  UNL     1      11.297  -3.953  -2.765  1.00  0.00     0.168 HD
HETATM   14  C9  UNL     1      13.169  -4.953  -2.765  1.00  0.00     0.183 A
HETATM   15 CL1  UNL     1      14.112  -3.891  -3.783  1.00  0.00    -0.044 Cl
HETATM   16  N7  UNL     1      13.601  -6.073  -2.199  1.00  0.00    -0.307 N
ENDROOT
BRANCH  16  17
HETATM   17  C10 UNL     1      14.862  -6.758  -2.234  1.00  0.00     0.135 C
BRANCH  17  18
HETATM   18  C11 UNL     1      15.127  -7.582  -3.429  1.00  0.00     0.039 C
BRANCH  18  19
HETATM   19  C12 UNL     1      16.226  -8.595  -3.230  1.00  0.00     0.116 C
BRANCH  19  20
HETATM   20  N8  UNL     1      15.628  -9.756  -2.592  1.00  0.00    -0.406 N
ATOM     21  H8  UNL     1      14.833 -10.252  -2.995  1.00  0.00     0.154 HD
BRANCH  20  22
HETATM   22  C13 UNL     1      16.230 -10.154  -1.365  1.00  0.00     0.209 C
HETATM   23  C14 UNL     1      17.059 -11.418  -1.532  1.00  0.00     0.247 C
HETATM   24  O3  UNL     1      16.879 -12.395  -2.287  1.00  0.00    -0.271 OA
HETATM   25  N9  UNL     1      17.922 -10.950  -0.575  1.00  0.00    -0.324 N
HETATM   26  C15 UNL     1      18.889 -11.386   0.438  1.00  0.00     0.167 C
HETATM   27  C22 UNL     1      17.514  -9.571  -0.915  1.00  0.00     0.222 C
HETATM   28  C16 UNL     1      18.145 -11.715   1.700  1.00  0.00    -0.020 A
HETATM   29  C17 UNL     1      18.602 -12.821   2.342  1.00  0.00     0.036 A
HETATM   30  C21 UNL     1      17.076 -10.937   2.144  1.00  0.00     0.027 A
HETATM   31  C18 UNL     1      17.973 -13.196   3.503  1.00  0.00     0.058 A
HETATM   32 CL2  UNL     1      18.470 -14.618   4.432  1.00  0.00    -0.082 Cl
HETATM   33  C19 UNL     1      16.895 -12.459   4.006  1.00  0.00     0.069 A
HETATM   34  N10 UNL     1      16.261 -12.878   5.209  1.00  0.00    -0.101 NA
HETATM   35  C20 UNL     1      16.469 -11.336   3.306  1.00  0.00     0.048 A
HETATM   36  S1  UNL     1      16.348  -9.486   1.445  1.00  0.00    -0.023 SA
HETATM   37  N11 UNL     1      17.493  -8.786   0.312  1.00  0.00    -0.146 NA
ENDBRANCH  20  22
ENDBRANCH  19  20
ENDBRANCH  18  19
ENDBRANCH  17  18
ENDBRANCH  16  17
BRANCH   1  38
HETATM   38  N2  UNL     1       9.206  -5.407  -1.224  1.00  0.00    -0.282 N
ATOM     39  H2  UNL     1       8.558  -5.791  -1.912  1.00  0.00     0.188 HD
BRANCH  38  40
HETATM   40  N1  UNL     1       8.762  -4.260  -0.660  1.00  0.00    -0.288 N
ATOM     41  H1  UNL     1       9.069  -4.002   0.278  1.00  0.00     0.187 HD
BRANCH  40  42
HETATM   42  C4  UNL     1       7.959  -3.498  -1.302  1.00  0.00     0.199 C
BRANCH  42  43
HETATM   43  C3  UNL     1       8.507  -2.514  -2.221  1.00  0.00     0.317 C
HETATM   44  O2  UNL     1       9.489  -2.787  -2.982  1.00  0.00    -0.257 OA
BRANCH  43  45
HETATM   45  O1  UNL     1       7.969  -1.229  -2.298  1.00  0.00    -0.317 OA
BRANCH  45  46
HETATM   46  C2  UNL     1       7.116  -0.941  -3.388  1.00  0.00     0.175 C
HETATM   47  C1  UNL     1       6.520   0.427  -3.169  1.00  0.00     0.034 C
ENDBRANCH  45  46
ENDBRANCH  43  45
ENDBRANCH  42  43
BRANCH  42  48
HETATM   48  C23 UNL     1       6.530  -3.621  -1.129  1.00  0.00     0.317 C
HETATM   49  O4  UNL     1       5.991  -3.490  -0.013  1.00  0.00    -0.257 OA
BRANCH  48  50
HETATM   50  O5  UNL     1       5.674  -3.896  -2.201  1.00  0.00    -0.321 OA
HETATM   51  C24 UNL     1       5.871  -5.075  -2.981  1.00  0.00     0.213 C
ENDBRANCH  48  50
ENDBRANCH  42  48
ENDBRANCH  40  42
ENDBRANCH  38  40
ENDBRANCH   1  38
TORSDOF 13
ENDMDL