MODEL 3
REMARK VINA RESULT: -6.695136179      6.954     10.374
REMARK  12 active torsions:
REMARK  status: ('A' for Active; 'I' for Inactive)
REMARK    1  A    between atoms: O1_2  and  C2_3
REMARK    2  A    between atoms: C2_3  and  C3_5
REMARK    3  A    between atoms: C3_5  and  C24_46
REMARK    4  A    between atoms: N1_6  and  O3_8
REMARK    5  A    between atoms: O3_8  and  C4_9
REMARK       I    between atoms: C4_9  and  N2_11
REMARK    6  A    between atoms: N2_11  and  C5_13
REMARK    7  A    between atoms: C13_29  and  C14_30
REMARK    8  A    between atoms: C14_30  and  O8_31
REMARK    9  A    between atoms: C15_33  and  C16_35
REMARK   10  A    between atoms: C17_36  and  O9_37
REMARK   11  A    between atoms: C21_41  and  O10_42
REMARK   12  A    between atoms: C26_49  and  N5_50
ROOT
HETATM    1  C5  UNL     1      12.776  -7.584  -2.298  1.00  0.00     0.123 C
HETATM    2  C6  UNL     1      14.093  -6.841  -2.360  1.00  0.00     0.030 C
HETATM    3  C7  UNL     1      15.091  -7.528  -3.257  1.00  0.00     0.029 C
HETATM    4  C8  UNL     1      16.458  -7.672  -2.646  1.00  0.00     0.233 C
HETATM    5  N3  UNL     1      16.426  -7.601  -1.203  1.00  0.00    -0.067 N
ATOM      6  H31 UNL     1      15.548  -7.966  -0.837  1.00  0.00     0.277 HD
ATOM      7  H32 UNL     1      16.347  -6.634  -0.886  1.00  0.00     0.277 HD
HETATM    8  C9  UNL     1      17.553  -8.255  -0.594  1.00  0.00     0.334 C
HETATM    9  C10 UNL     1      17.208  -9.194   0.492  1.00  0.00     0.243 C
HETATM   10  O5  UNL     1      18.092 -10.055   0.814  1.00  0.00    -0.272 OA
HETATM   11  N4  UNL     1      15.989  -9.225   1.209  1.00  0.00    -0.350 N
ATOM     12  H4  UNL     1      16.046  -9.292   2.225  1.00  0.00     0.163 HD
HETATM   13  C11 UNL     1      14.665  -9.169   0.619  1.00  0.00     0.233 C
HETATM   14  C12 UNL     1      13.997  -7.873   0.929  1.00  0.00     0.277 C
HETATM   15  O6  UNL     1      14.369  -7.307   1.985  1.00  0.00    -0.263 OA
HETATM   16  O7  UNL     1      13.014  -7.316   0.100  1.00  0.00    -0.306 OA
HETATM   17  C13 UNL     1      12.380  -8.037  -0.943  1.00  0.00     0.214 C
ENDROOT
BRANCH   1  18
HETATM   18  N2  UNL     1      11.759  -6.773  -2.935  1.00  0.00    -0.328 N
HETATM   19  C4  UNL     1      11.221  -7.074  -4.193  1.00  0.00     0.383 C
HETATM   20  O4  UNL     1      11.628  -8.101  -4.829  1.00  0.00    -0.236 OA
ATOM     21  H2  UNL     1      11.418  -5.947  -2.444  1.00  0.00     0.165 HD
BRANCH  19  22
HETATM   22  O3  UNL     1      10.249  -6.282  -4.777  1.00  0.00    -0.180 OA
BRANCH  22  23
HETATM   23  N1  UNL     1      10.466  -5.035  -5.075  1.00  0.00    -0.248 N
HETATM   24  C3  UNL     1      10.116  -3.878  -4.713  1.00  0.00     0.157 C
ATOM     25  H1  UNL     1      11.130  -4.972  -5.847  1.00  0.00     0.195 HD
BRANCH  24  26
HETATM   26  C2  UNL     1      10.730  -2.778  -5.466  1.00  0.00     0.313 C
HETATM   27  O2  UNL     1      11.909  -2.413  -5.430  1.00  0.00    -0.257 OA
BRANCH  26  28
HETATM   28  O1  UNL     1       9.853  -2.061  -6.329  1.00  0.00    -0.321 OA
HETATM   29  C1  UNL     1      10.388  -1.619  -7.593  1.00  0.00     0.213 C
ENDBRANCH  26  28
ENDBRANCH  24  26
BRANCH  24  30
HETATM   30  C24 UNL     1       9.142  -3.624  -3.605  1.00  0.00     0.075 A
HETATM   31  C25 UNL     1       7.857  -3.240  -3.936  1.00  0.00     0.085 A
HETATM   32  S1  UNL     1       7.113  -3.081  -2.405  1.00  0.00    -0.064 SA
HETATM   33  C26 UNL     1       8.448  -3.501  -1.442  1.00  0.00     0.142 A
HETATM   34  N6  UNL     1       9.406  -3.746  -2.338  1.00  0.00    -0.335 N
ATOM     35  H6  UNL     1      10.338  -4.026  -2.032  1.00  0.00     0.168 HD
BRANCH  33  36
HETATM   36  N5  UNL     1       8.535  -3.574  -0.129  1.00  0.00    -0.380 N
ATOM     37  H52 UNL     1       8.499  -2.806   0.542  1.00  0.00     0.158 HD
ATOM     38  H51 UNL     1       8.654  -4.395   0.463  1.00  0.00     0.158 HD
ENDBRANCH  33  36
ENDBRANCH  24  30
ENDBRANCH  22  23
ENDBRANCH  19  22
ENDBRANCH   1  18
BRANCH  17  39
HETATM   39  C14 UNL     1      10.928  -7.985  -0.666  1.00  0.00     0.114 C
HETATM   40  C15 UNL     1      10.206  -9.074  -0.691  1.00  0.00     0.164 C
HETATM   41  F1  UNL     1      10.858 -10.257  -0.991  1.00  0.00    -0.202 F
BRANCH  39  42
HETATM   42  O8  UNL     1      10.358  -6.762  -0.383  1.00  0.00    -0.359 OA
ATOM     43  H8  UNL     1       9.846  -6.675   0.413  1.00  0.00     0.217 HD
ENDBRANCH  39  42
BRANCH  40  44
HETATM   44  C16 UNL     1       8.795  -9.216  -0.407  1.00  0.00     0.080 A
HETATM   45  C17 UNL     1       7.848  -8.748  -1.271  1.00  0.00     0.084 A
HETATM   46  C19 UNL     1       6.497  -8.947  -0.954  1.00  0.00     0.040 A
HETATM   47  C20 UNL     1       6.128  -9.599   0.203  1.00  0.00     0.043 A
HETATM   48  C21 UNL     1       7.076 -10.074   1.081  1.00  0.00     0.107 A
HETATM   49  C23 UNL     1       8.399  -9.879   0.769  1.00  0.00     0.165 A
HETATM   50  F2  UNL     1       9.338 -10.333   1.612  1.00  0.00    -0.202 F
BRANCH  45  51
HETATM   51  O9  UNL     1       8.219  -8.093  -2.424  1.00  0.00    -0.355 OA
HETATM   52  C18 UNL     1       7.512  -6.924  -2.789  1.00  0.00     0.210 C
ENDBRANCH  45  51
BRANCH  48  53
HETATM   53  O10 UNL     1       6.708 -10.741   2.266  1.00  0.00    -0.353 OA
HETATM   54  C22 UNL     1       5.336 -10.970   2.520  1.00  0.00     0.210 C
ENDBRANCH  48  53
ENDBRANCH  40  44
ENDBRANCH  17  39
TORSDOF 12
ENDMDL