MODEL 2
REMARK VINA RESULT: -7.458632743      2.230      3.123
REMARK  11 active torsions:
REMARK  status: ('A' for Active; 'I' for Inactive)
REMARK    1  A    between atoms: C2_2  and  C3_4
REMARK    2  A    between atoms: C4_6  and  N1_7
REMARK    3  A    between atoms: C5_12  and  C6_13
REMARK    4  A    between atoms: C9_17  and  C10_18
REMARK    5  A    between atoms: N3_20  and  N4_22
REMARK       I    between atoms: N4_22  and  C12_24
REMARK    6  A    between atoms: C12_24  and  C13_26
REMARK    7  A    between atoms: C13_26  and  N5_27
REMARK    8  A    between atoms: C15_30  and  C16_31
REMARK    9  A    between atoms: C20_44  and  O7_45
REMARK   10  A    between atoms: N9_47  and  C21_48
REMARK   11  A    between atoms: C21_48  and  C22_49
ROOT
HETATM    1  N5  UNL     1      15.229  -8.092  -2.483  1.00  0.00    -0.256 N
HETATM    2  C14 UNL     1      16.561  -8.065  -2.521  1.00  0.00     0.268 A
HETATM    3  O4  UNL     1      17.101  -8.172  -3.655  1.00  0.00    -0.267 OA
HETATM    4  C15 UNL     1      17.394  -7.927  -1.389  1.00  0.00     0.112 A
HETATM    5  C20 UNL     1      16.729  -7.819  -0.210  1.00  0.00     0.164 A
HETATM    6  N9  UNL     1      15.360  -7.847  -0.164  1.00  0.00    -0.274 N
HETATM    7  C23 UNL     1      14.649  -7.979  -1.281  1.00  0.00     0.334 A
HETATM    8  O8  UNL     1      13.382  -8.004  -1.243  1.00  0.00    -0.246 OA
ENDROOT
BRANCH   1   9
HETATM    9  C13 UNL     1      14.431  -8.234  -3.651  1.00  0.00     0.241 C
BRANCH   9  10
HETATM   10  C12 UNL     1      14.081  -6.939  -4.283  1.00  0.00     0.254 C
HETATM   11  N4  UNL     1      13.156  -6.023  -3.688  1.00  0.00    -0.269 N
ATOM     12  H4  UNL     1      12.742  -6.299  -2.797  1.00  0.00     0.190 HD
HETATM   13  O3  UNL     1      14.587  -6.600  -5.372  1.00  0.00    -0.270 OA
BRANCH  11  14
HETATM   14  N3  UNL     1      12.782  -4.839  -4.188  1.00  0.00    -0.304 N
HETATM   15  C10 UNL     1      11.770  -4.076  -4.094  1.00  0.00     0.029 C
HETATM   16  C11 UNL     1      11.897  -2.836  -4.948  1.00  0.00     0.068 C
ATOM     17  H3  UNL     1      13.494  -4.448  -4.806  1.00  0.00     0.186 HD
BRANCH  15  18
HETATM   18  C9  UNL     1      10.575  -4.303  -3.312  1.00  0.00     0.177 C
HETATM   19  C6  UNL     1       9.585  -5.315  -3.685  1.00  0.00     0.074 C
HETATM   20  C7  UNL     1       9.081  -4.627  -4.991  1.00  0.00     0.040 C
HETATM   21  C8  UNL     1       8.833  -3.257  -4.325  1.00  0.00     0.169 C
HETATM   22  O2  UNL     1       9.838  -3.089  -3.393  1.00  0.00    -0.379 OA
BRANCH  19  23
HETATM   23  C5  UNL     1      10.018  -6.711  -3.964  1.00  0.00     0.039 A
HETATM   24  C3  UNL     1      10.039  -7.641  -2.967  1.00  0.00     0.076 A
HETATM   25  S1  UNL     1      10.630  -9.050  -3.792  1.00  0.00    -0.049 SA
HETATM   26  C4  UNL     1      10.807  -8.365  -5.335  1.00  0.00     0.143 A
HETATM   27  N2  UNL     1      10.417  -7.109  -5.173  1.00  0.00    -0.339 N
ATOM     28  H2  UNL     1      10.421  -6.458  -5.958  1.00  0.00     0.168 HD
BRANCH  24  29
HETATM   29  C2  UNL     1       9.662  -7.571  -1.543  1.00  0.00     0.164 C
HETATM   30  C1  UNL     1       8.473  -8.336  -1.082  1.00  0.00     0.097 C
HETATM   31  O1  UNL     1      10.294  -6.903  -0.724  1.00  0.00    -0.292 OA
ENDBRANCH  24  29
BRANCH  26  32
HETATM   32  N1  UNL     1      11.233  -8.947  -6.440  1.00  0.00    -0.380 N
ATOM     33  H12 UNL     1      12.039  -9.560  -6.555  1.00  0.00     0.158 HD
ATOM     34  H11 UNL     1      10.833  -8.887  -7.376  1.00  0.00     0.158 HD
ENDBRANCH  26  32
ENDBRANCH  19  23
ENDBRANCH  15  18
ENDBRANCH  11  14
ENDBRANCH   9  10
ENDBRANCH   1   9
BRANCH   4  35
HETATM   35  C16 UNL     1      18.860  -7.919  -1.585  1.00  0.00     0.077 A
HETATM   36  N6  UNL     1      19.323  -8.960  -2.256  1.00  0.00    -0.277 N
HETATM   37  S2  UNL     1      21.000  -8.825  -2.407  1.00  0.00     0.281 S
ATOM     38  H6  UNL     1      18.757  -9.725  -2.624  1.00  0.00     0.179 HD
HETATM   39  O5  UNL     1      21.751  -9.909  -1.679  1.00  0.00    -0.199 OA
HETATM   40  O6  UNL     1      21.460  -8.711  -3.835  1.00  0.00    -0.199 OA
HETATM   41  C17 UNL     1      21.158  -7.321  -1.553  1.00  0.00     0.178 A
HETATM   42  N7  UNL     1      22.032  -6.419  -1.147  1.00  0.00    -0.288 N
HETATM   43  C19 UNL     1      19.863  -6.993  -1.184  1.00  0.00     0.051 A
HETATM   44  N8  UNL     1      21.383  -5.501  -0.524  1.00  0.00    -0.310 N
ATOM     45  H7  UNL     1      23.041  -6.446  -1.301  1.00  0.00     0.188 HD
HETATM   46  C18 UNL     1      20.072  -5.781  -0.506  1.00  0.00     0.124 A
ATOM     47  H8  UNL     1      21.806  -4.675  -0.101  1.00  0.00     0.186 HD
ENDBRANCH   4  35
BRANCH   6  48
HETATM   48  C21 UNL     1      14.739  -7.737   1.138  1.00  0.00     0.207 C
BRANCH  48  49
HETATM   49  C22 UNL     1      14.305  -9.110   1.580  1.00  0.00     0.371 C
HETATM   50  F1  UNL     1      13.191  -9.122   2.382  1.00  0.00    -0.213 F
HETATM   51  F2  UNL     1      15.314  -9.785   2.268  1.00  0.00    -0.213 F
ENDBRANCH  48  49
ENDBRANCH   6  48
BRANCH   5  52
HETATM   52  O7  UNL     1      17.348  -7.675   0.994  1.00  0.00    -0.345 OA
ATOM     53  H7  UNL     1      17.582  -8.404   1.556  1.00  0.00     0.219 HD
ENDBRANCH   5  52
TORSDOF 11
ENDMDL