MODEL 2
REMARK VINA RESULT: -8.673056887      1.062      1.461
REMARK  8 active torsions:
REMARK  status: ('A' for Active; 'I' for Inactive)
REMARK    1  A    between atoms: C2_4  and  C3_5
REMARK       I    between atoms: C3_5  and  N2_7
REMARK    2  A    between atoms: N2_7  and  C4_9
REMARK    3  A    between atoms: C4_9  and  C5_10
REMARK    4  A    between atoms: C5_10  and  C6_11
REMARK    5  A    between atoms: C6_11  and  O3_12
REMARK    6  A    between atoms: O3_12  and  C7_13
REMARK    7  A    between atoms: C7_13  and  C8_15
REMARK    8  A    between atoms: C20_38  and  O6_39
ROOT
HETATM    1  C8  UNL     1      25.445  31.805  27.696  1.00  0.00     0.181 C
HETATM    2  C9  UNL     1      25.035  32.439  26.357  1.00  0.00     0.037 C
HETATM    3  C10 UNL     1      24.070  33.597  26.578  1.00  0.00     0.030 C
HETATM    4  C11 UNL     1      22.655  33.197  26.219  1.00  0.00     0.232 C
HETATM    5  N3  UNL     1      22.538  32.828  24.843  1.00  0.00    -0.074 N
ATOM      6  H31 UNL     1      23.398  32.387  24.516  1.00  0.00     0.277 HD
ATOM      7  H32 UNL     1      22.533  33.657  24.249  1.00  0.00     0.277 HD
HETATM    8  C12 UNL     1      21.395  31.988  24.552  1.00  0.00     0.259 C
HETATM    9  C13 UNL     1      21.451  30.646  25.247  1.00  0.00     0.259 C
HETATM   10  N4  UNL     1      21.273  29.579  24.307  1.00  0.00    -0.072 N
ATOM     11  H41 UNL     1      21.452  29.905  23.357  1.00  0.00     0.277 HD
ATOM     12  H42 UNL     1      20.285  29.337  24.222  1.00  0.00     0.277 HD
HETATM   13  C14 UNL     1      22.060  28.402  24.597  1.00  0.00     0.251 C
HETATM   14  C15 UNL     1      23.514  28.671  24.800  1.00  0.00     0.141 C
HETATM   15  N5  UNL     1      23.954  28.175  26.065  1.00  0.00    -0.415 N
ATOM     16  H5  UNL     1      23.512  27.380  26.527  1.00  0.00     0.153 HD
HETATM   17  C16 UNL     1      25.073  28.886  26.643  1.00  0.00     0.158 C
HETATM   18  C17 UNL     1      24.780  29.455  27.989  1.00  0.00     0.075 C
HETATM   19  N6  UNL     1      24.544  30.828  28.092  1.00  0.00    -0.387 N
ATOM     20  H6  UNL     1      23.652  31.132  28.483  1.00  0.00     0.159 HD
ENDROOT
BRANCH   1  21
HETATM   21  C7  UNL     1      26.876  31.529  27.694  1.00  0.00     0.281 C
HETATM   22  O4  UNL     1      27.588  31.843  26.721  1.00  0.00    -0.263 OA
BRANCH  21  23
HETATM   23  O3  UNL     1      27.500  30.913  28.762  1.00  0.00    -0.320 OA
BRANCH  23  24
HETATM   24  C6  UNL     1      27.723  31.436  30.027  1.00  0.00     0.180 C
BRANCH  24  25
HETATM   25  C5  UNL     1      26.897  30.746  31.080  1.00  0.00     0.046 C
BRANCH  25  26
HETATM   26  C4  UNL     1      27.288  29.289  31.232  1.00  0.00     0.125 C
BRANCH  26  27
HETATM   27  N2  UNL     1      28.508  28.933  30.582  1.00  0.00    -0.355 N
HETATM   28  C3  UNL     1      28.697  27.757  29.808  1.00  0.00     0.275 C
HETATM   29  O2  UNL     1      27.727  26.972  29.680  1.00  0.00    -0.265 OA
ATOM     30  H2  UNL     1      29.300  29.569  30.679  1.00  0.00     0.162 HD
BRANCH  28  31
HETATM   31  C2  UNL     1      29.977  27.470  29.179  1.00  0.00     0.148 A
HETATM   32  O1  UNL     1      31.084  27.563  29.904  1.00  0.00    -0.287 OA
HETATM   33  C1  UNL     1      32.258  27.315  29.387  1.00  0.00     0.195 A
HETATM   34  N1  UNL     1      33.422  27.419  30.173  1.00  0.00    -0.071 NA
HETATM   35  C20 UNL     1      32.325  26.954  28.062  1.00  0.00     0.165 A
HETATM   36  C19 UNL     1      31.197  26.845  27.270  1.00  0.00     0.211 A
HETATM   37  C18 UNL     1      29.987  27.113  27.849  1.00  0.00     0.101 A
HETATM   38  O5  UNL     1      31.286  26.513  26.066  1.00  0.00    -0.285 OA
BRANCH  35  39
HETATM   39  O6  UNL     1      33.540  26.672  27.431  1.00  0.00    -0.354 OA
ATOM     40  H6  UNL     1      34.250  27.303  27.402  1.00  0.00     0.218 HD
ENDBRANCH  35  39
ENDBRANCH  28  31
ENDBRANCH  26  27
ENDBRANCH  25  26
ENDBRANCH  24  25
ENDBRANCH  23  24
ENDBRANCH  21  23
ENDBRANCH   1  21
TORSDOF 8
ENDMDL