MODEL 3
REMARK VINA RESULT: -8.347166173      2.271      2.967
REMARK  11 active torsions:
REMARK  status: ('A' for Active; 'I' for Inactive)
REMARK    1  A    between atoms: C2_3  and  C3_4
REMARK    2  A    between atoms: N4_10  and  O2_11
REMARK    3  A    between atoms: C5_15  and  N6_16
REMARK    4  A    between atoms: N6_16  and  C6_19
REMARK    5  A    between atoms: C6_19  and  O3_20
REMARK    6  A    between atoms: C6_19  and  C7_22
REMARK    7  A    between atoms: C7_22  and  N7_23
REMARK    8  A    between atoms: C7_22  and  C8_27
REMARK    9  A    between atoms: C8_27  and  C9_28
REMARK   10  A    between atoms: C12_31  and  O4_32
REMARK   11  A    between atoms: C18_43  and  N10_44
ROOT
HETATM    1  C1  UNL     1      30.676  29.008  30.149  1.00  0.00     0.159 C
HETATM    2  N1  UNL     1      29.799  29.974  29.541  1.00  0.00    -0.321 N
HETATM    3  C2  UNL     1      28.396  29.838  29.614  1.00  0.00     0.142 A
HETATM    4  N5  UNL     1      27.674  30.715  29.087  1.00  0.00    -0.343 N
ATOM      5  H5  UNL     1      26.670  30.559  29.177  1.00  0.00     0.163 HD
HETATM    6  C5  UNL     1      28.043  31.910  28.374  1.00  0.00     0.330 A
HETATM    7  C15 UNL     1      29.524  32.047  28.322  1.00  0.00     0.079 A
HETATM    8  C16 UNL     1      30.394  31.097  28.882  1.00  0.00     0.123 A
HETATM    9  N8  UNL     1      31.728  31.242  28.809  1.00  0.00    -0.338 N
ATOM     10  H8  UNL     1      32.326  30.529  29.228  1.00  0.00     0.168 HD
HETATM   11  C17 UNL     1      32.299  32.293  28.202  1.00  0.00     0.183 A
HETATM   12  N9  UNL     1      31.496  33.210  27.663  1.00  0.00    -0.338 N
ATOM     13  H9  UNL     1      31.915  34.016  27.200  1.00  0.00     0.168 HD
HETATM   14  C18 UNL     1      30.123  33.113  27.708  1.00  0.00     0.113 A
ENDROOT
BRANCH   6  15
HETATM   15  N6  UNL     1      27.471  31.895  27.037  1.00  0.00    -0.022 N
ATOM     16  H62 UNL     1      28.185  32.096  26.336  1.00  0.00     0.283 HD
ATOM     17  H61 UNL     1      27.224  30.945  26.761  1.00  0.00     0.283 HD
BRANCH  15  18
HETATM   18  C6  UNL     1      26.343  32.780  26.885  1.00  0.00     0.352 C
BRANCH  18  19
HETATM   19  O3  UNL     1      26.484  33.574  25.734  1.00  0.00    -0.368 OA
ATOM     20  H3  UNL     1      26.512  34.496  25.961  1.00  0.00     0.212 HD
ENDBRANCH  18  19
BRANCH  18  21
HETATM   21  C7  UNL     1      25.005  32.089  26.891  1.00  0.00     0.243 C
BRANCH  21  22
HETATM   22  N7  UNL     1      24.370  32.294  28.196  1.00  0.00    -0.071 N
ATOM     23  H73 UNL     1      23.354  32.226  28.148  1.00  0.00     0.274 HD
ATOM     24  H72 UNL     1      24.536  31.516  28.835  1.00  0.00     0.274 HD
ATOM     25  H71 UNL     1      24.683  33.186  28.580  1.00  0.00     0.274 HD
ENDBRANCH  21  22
BRANCH  21  26
HETATM   26  C8  UNL     1      25.103  30.577  26.771  1.00  0.00     0.075 C
BRANCH  26  27
HETATM   27  C9  UNL     1      23.984  29.982  26.007  1.00  0.00    -0.056 A
HETATM   28  C10 UNL     1      23.925  28.606  25.756  1.00  0.00     0.010 A
HETATM   29  C11 UNL     1      22.887  28.037  25.056  1.00  0.00     0.037 A
HETATM   30  C12 UNL     1      21.866  28.811  24.578  1.00  0.00     0.065 A
HETATM   31  C13 UNL     1      21.892  30.152  24.805  1.00  0.00     0.037 A
HETATM   32  C14 UNL     1      22.948  30.728  25.516  1.00  0.00     0.010 A
BRANCH  30  33
HETATM   33  O4  UNL     1      20.804  28.232  23.862  1.00  0.00    -0.361 OA
ATOM     34  H4  UNL     1      19.954  28.113  24.270  1.00  0.00     0.217 HD
ENDBRANCH  30  33
ENDBRANCH  26  27
ENDBRANCH  21  26
ENDBRANCH  18  21
ENDBRANCH  15  18
ENDBRANCH   6  15
BRANCH   3  35
HETATM   35  C3  UNL     1      27.860  28.655  30.313  1.00  0.00     0.176 A
HETATM   36  C4  UNL     1      27.274  28.687  31.572  1.00  0.00     0.173 A
HETATM   37  N2  UNL     1      27.119  29.847  32.380  1.00  0.00    -0.078 NA
HETATM   38  N3  UNL     1      26.893  27.445  31.874  1.00  0.00    -0.223 N
HETATM   39  O1  UNL     1      27.211  26.675  30.881  1.00  0.00    -0.126 OA
ATOM     40  H3  UNL     1      26.432  27.153  32.736  1.00  0.00     0.198 HD
HETATM   41  N4  UNL     1      27.792  27.377  29.934  1.00  0.00    -0.095 N
BRANCH  41  42
HETATM   42  O2  UNL     1      28.254  26.898  28.738  1.00  0.00    -0.261 OA
ATOM     43  H2  UNL     1      29.160  26.936  28.457  1.00  0.00     0.247 HD
ENDBRANCH  41  42
ENDBRANCH   3  35
BRANCH  14  44
HETATM   44  N10 UNL     1      29.425  34.048  27.194  1.00  0.00    -0.385 N
ATOM     45 2H10 UNL     1      28.750  33.813  26.466  1.00  0.00     0.157 HD
ATOM     46 1H10 UNL     1      29.552  35.017  27.484  1.00  0.00     0.157 HD
ENDBRANCH  14  44
TORSDOF 11
ENDMDL