MODEL 3
REMARK VINA RESULT: -7.809113884      3.018      8.757
REMARK  8 active torsions:
REMARK  status: ('A' for Active; 'I' for Inactive)
REMARK    1  A    between atoms: C2_7  and  C3_8
REMARK    2  A    between atoms: C3_8  and  O1_9
REMARK    3  A    between atoms: O1_9  and  C4_10
REMARK    4  A    between atoms: C8_18  and  N6_19
REMARK    5  A    between atoms: C11_29  and  N9_30
REMARK    6  A    between atoms: N9_30  and  C12_32
REMARK    7  A    between atoms: C14_34  and  C15_35
REMARK    8  A    between atoms: C15_35  and  O2_36
ROOT
HETATM    1  C4  UNL     1      31.474  27.681  32.283  1.00  0.00     0.226 A
HETATM    2  N4  UNL     1      30.750  28.781  32.115  1.00  0.00    -0.320 N
ATOM      3  H4  UNL     1      30.571  29.389  32.915  1.00  0.00     0.169 HD
HETATM    4  C5  UNL     1      30.239  29.114  30.887  1.00  0.00     0.068 A
HETATM    5  C6  UNL     1      29.468  30.330  30.787  1.00  0.00     0.052 A
HETATM    6  C7  UNL     1      30.030  31.463  30.243  1.00  0.00     0.123 A
HETATM    7  N5  UNL     1      29.373  32.658  30.264  1.00  0.00    -0.201 N
ATOM      8  H5  UNL     1      29.810  33.485  29.855  1.00  0.00     0.183 HD
HETATM    9  C8  UNL     1      28.155  32.750  30.820  1.00  0.00     0.677 A
HETATM   10  N7  UNL     1      27.592  31.657  31.356  1.00  0.00    -0.176 N
ATOM     11  H7  UNL     1      26.667  31.732  31.779  1.00  0.00     0.186 HD
HETATM   12  C9  UNL     1      28.225  30.448  31.350  1.00  0.00     0.128 A
HETATM   13  N8  UNL     1      27.643  29.417  31.879  1.00  0.00    -0.384 N
ATOM     14  H81 UNL     1      26.717  29.505  32.299  1.00  0.00     0.157 HD
ATOM     15  H82 UNL     1      28.116  28.514  31.875  1.00  0.00     0.157 HD
HETATM   16  C10 UNL     1      30.469  28.298  29.812  1.00  0.00     0.080 A
HETATM   17  C11 UNL     1      29.929  28.563  28.560  1.00  0.00     0.118 A
HETATM   18  N10 UNL     1      30.164  27.685  27.540  1.00  0.00    -0.338 N
ATOM     19  H10 UNL     1      29.779  27.857  26.612  1.00  0.00     0.168 HD
HETATM   20  C17 UNL     1      30.906  26.597  27.774  1.00  0.00     0.183 A
HETATM   21  N11 UNL     1      31.431  26.323  28.966  1.00  0.00    -0.338 N
ATOM     22  H11 UNL     1      31.989  25.478  29.088  1.00  0.00     0.168 HD
HETATM   23  C18 UNL     1      31.235  27.142  30.006  1.00  0.00     0.125 A
HETATM   24  N12 UNL     1      31.709  26.873  31.227  1.00  0.00    -0.307 N
ATOM     25  H12 UNL     1      32.268  26.030  31.366  1.00  0.00     0.171 HD
ENDROOT
BRANCH   1  26
HETATM   26  O1  UNL     1      31.995  27.326  33.498  1.00  0.00    -0.314 OA
BRANCH  26  27
HETATM   27  C3  UNL     1      33.326  27.506  33.876  1.00  0.00     0.258 C
BRANCH  27  28
HETATM   28  C2  UNL     1      33.491  28.894  34.400  1.00  0.00     0.138 A
HETATM   29  N3  UNL     1      33.257  29.334  35.636  1.00  0.00    -0.270 N
HETATM   30  N2  UNL     1      33.547  30.632  35.634  1.00  0.00    -0.225 N
ATOM     31  H3  UNL     1      32.921  28.784  36.428  1.00  0.00     0.190 HD
HETATM   32  N1  UNL     1      33.952  31.003  34.440  1.00  0.00    -0.223 N
ATOM     33  H2  UNL     1      33.467  31.250  36.441  1.00  0.00     0.210 HD
HETATM   34  C1  UNL     1      34.371  32.306  33.973  1.00  0.00     0.202 C
HETATM   35  N13 UNL     1      33.919  29.928  33.668  1.00  0.00    -0.269 N
ATOM     36  H13 UNL     1      34.177  29.895  32.681  1.00  0.00     0.190 HD
ENDBRANCH  27  28
ENDBRANCH  26  27
ENDBRANCH   1  26
BRANCH  17  37
HETATM   37  N9  UNL     1      29.184  29.556  28.310  1.00  0.00    -0.371 N
ATOM     38  H9  UNL     1      29.387  30.446  28.765  1.00  0.00     0.161 HD
BRANCH  37  39
HETATM   39  C12 UNL     1      28.083  29.485  27.427  1.00  0.00     0.084 C
HETATM   40  C13 UNL     1      27.253  30.735  27.188  1.00  0.00     0.032 C
HETATM   41  C14 UNL     1      26.086  29.746  26.967  1.00  0.00     0.013 C
HETATM   42  C16 UNL     1      26.786  28.913  28.037  1.00  0.00     0.032 C
BRANCH  41  43
HETATM   43  C15 UNL     1      24.731  30.257  27.273  1.00  0.00     0.168 C
BRANCH  43  44
HETATM   44  O2  UNL     1      23.959  30.162  26.089  1.00  0.00    -0.400 OA
ATOM     45  H2  UNL     1      24.101  30.956  25.589  1.00  0.00     0.209 HD
ENDBRANCH  43  44
ENDBRANCH  41  43
ENDBRANCH  37  39
ENDBRANCH  17  37
BRANCH   9  46
HETATM   46  N6  UNL     1      27.517  33.900  30.844  1.00  0.00    -0.234 N
ATOM     47  H62 UNL     1      27.734  34.591  31.563  1.00  0.00     0.174 HD
ATOM     48  H61 UNL     1      26.803  34.112  30.147  1.00  0.00     0.174 HD
ENDBRANCH   9  46
TORSDOF 8
ENDMDL