MODEL 4
REMARK VINA RESULT: -6.406484424      3.630      8.019
REMARK  12 active torsions:
REMARK  status: ('A' for Active; 'I' for Inactive)
REMARK    1  A    between atoms: C3_4  and  C4_5
REMARK    2  A    between atoms: C4_5  and  O2_6
REMARK    3  A    between atoms: C6_10  and  O3_11
REMARK    4  A    between atoms: O3_11  and  C7_12
REMARK    5  A    between atoms: C8_14  and  C9_15
REMARK    6  A    between atoms: C9_15  and  O5_16
REMARK    7  A    between atoms: C10_18  and  O6_19
REMARK    8  A    between atoms: O6_19  and  N1_20
REMARK    9  A    between atoms: N1_20  and  C11_22
REMARK   10  A    between atoms: C11_22  and  N2_24
REMARK   11  A    between atoms: N2_24  and  C12_26
REMARK   12  A    between atoms: C13_30  and  O8_31
ROOT
HETATM    1  C7  UNL     1      28.070  28.002  28.248  1.00  0.00     0.316 C
HETATM    2  O4  UNL     1      27.641  27.952  29.530  1.00  0.00    -0.344 OA
HETATM    3  C8  UNL     1      28.501  27.558  30.489  1.00  0.00     0.206 C
HETATM    4  C10 UNL     1      29.946  27.817  30.252  1.00  0.00     0.323 C
HETATM    5  O7  UNL     1      30.213  28.465  29.049  1.00  0.00    -0.322 OA
HETATM    6  C13 UNL     1      29.543  27.791  28.054  1.00  0.00     0.315 C
ENDROOT
BRANCH   1   7
HETATM    7  O3  UNL     1      27.745  29.247  27.710  1.00  0.00    -0.348 OA
BRANCH   7   8
HETATM    8  C6  UNL     1      26.401  29.537  27.772  1.00  0.00     0.163 C
HETATM    9  C2  UNL     1      25.734  29.648  26.436  1.00  0.00     0.148 C
HETATM   10  C1  UNL     1      24.578  28.672  26.361  1.00  0.00     0.042 C
HETATM   11  O1  UNL     1      25.389  30.919  26.069  1.00  0.00    -0.366 OA
HETATM   12  C3  UNL     1      24.196  31.370  26.625  1.00  0.00     0.206 C
HETATM   13  S1  UNL     1      24.421  31.211  28.441  1.00  0.00    -0.133 SA
HETATM   14  C5  UNL     1      26.203  30.799  28.615  1.00  0.00     0.111 C
BRANCH  12  15
HETATM   15  C4  UNL     1      24.134  32.874  26.353  1.00  0.00     0.207 C
BRANCH  15  16
HETATM   16  O2  UNL     1      25.125  33.111  25.372  1.00  0.00    -0.398 OA
ATOM     17  H2  UNL     1      25.247  34.053  25.367  1.00  0.00     0.209 HD
ENDBRANCH  15  16
ENDBRANCH  12  15
ENDBRANCH   7   8
ENDBRANCH   1   7
BRANCH   6  18
HETATM   18  O8  UNL     1      29.891  26.458  27.946  1.00  0.00    -0.367 OA
ATOM     19  H8  UNL     1      30.555  26.195  28.572  1.00  0.00     0.212 HD
ENDBRANCH   6  18
BRANCH   3  20
HETATM   20  C9  UNL     1      28.067  28.211  31.807  1.00  0.00     0.201 C
BRANCH  20  21
HETATM   21  O5  UNL     1      26.777  28.726  31.681  1.00  0.00    -0.398 OA
ATOM     22  H5  UNL     1      26.246  28.456  32.421  1.00  0.00     0.209 HD
ENDBRANCH  20  21
ENDBRANCH   3  20
BRANCH   4  23
HETATM   23  O6  UNL     1      30.731  26.677  30.284  1.00  0.00    -0.243 OA
BRANCH  23  24
HETATM   24  N1  UNL     1      31.671  26.726  31.274  1.00  0.00    -0.238 N
ATOM     25  H1  UNL     1      31.430  26.492  32.238  1.00  0.00     0.197 HD
BRANCH  24  26
HETATM   26  C11 UNL     1      32.977  27.106  30.929  1.00  0.00     0.197 C
HETATM   27  S2  UNL     1      34.195  26.684  32.014  1.00  0.00    -0.039 SA
BRANCH  26  28
HETATM   28  N2  UNL     1      33.314  27.795  29.772  1.00  0.00    -0.311 N
ATOM     29  H2  UNL     1      33.216  28.809  29.830  1.00  0.00     0.170 HD
BRANCH  28  30
HETATM   30  C12 UNL     1      33.759  27.325  28.564  1.00  0.00     0.187 C
HETATM   31  N3  UNL     1      32.919  26.912  27.509  1.00  0.00    -0.070 NA
HETATM   32  S3  UNL     1      35.422  27.237  28.332  1.00  0.00    -0.044 SA
ENDBRANCH  28  30
ENDBRANCH  26  28
ENDBRANCH  24  26
ENDBRANCH  23  24
ENDBRANCH   4  23
TORSDOF 12
ENDMDL