MODEL 4
REMARK VINA RESULT: -8.394991804      1.219      1.358
REMARK  9 active torsions:
REMARK  status: ('A' for Active; 'I' for Inactive)
REMARK    1  A    between atoms: C2_2  and  O1_4
REMARK    2  A    between atoms: C2_2  and  C4_6
REMARK    3  A    between atoms: C4_6  and  C12_30
REMARK    4  A    between atoms: N1_7  and  N2_9
REMARK    5  A    between atoms: C8_19  and  C9_20
REMARK       I    between atoms: C9_20  and  N6_22
REMARK    6  A    between atoms: N6_22  and  C10_24
REMARK    7  A    between atoms: C10_24  and  C11_25
REMARK    8  A    between atoms: C11_25  and  O3_26
REMARK    9  A    between atoms: N10_37  and  O4_39
ROOT
HETATM    1  N2  UNL     1      27.912  28.525  30.209  1.00  0.00    -0.132 N
ATOM      2  H2  UNL     1      27.672  28.791  31.164  1.00  0.00     0.205 HD
HETATM    3  C5  UNL     1      29.071  27.993  30.008  1.00  0.00     0.700 A
HETATM    4  N3  UNL     1      29.452  27.618  28.778  1.00  0.00    -0.165 N
ATOM      5  H3  UNL     1      28.809  27.760  27.999  1.00  0.00     0.186 HD
HETATM    6  C6  UNL     1      30.653  27.061  28.539  1.00  0.00     0.204 A
HETATM    7  C7  UNL     1      30.968  26.691  27.175  1.00  0.00     0.137 C
HETATM    8  N4  UNL     1      31.228  26.404  26.079  1.00  0.00    -0.188 NA
HETATM    9  N5  UNL     1      31.491  26.875  29.554  1.00  0.00    -0.314 N
ATOM     10  H5  UNL     1      32.404  26.455  29.385  1.00  0.00     0.170 HD
HETATM   11  C8  UNL     1      31.140  27.241  30.815  1.00  0.00     0.191 A
HETATM   12  N7  UNL     1      29.932  27.795  31.015  1.00  0.00    -0.169 N
ATOM     13  H7  UNL     1      29.663  28.073  31.959  1.00  0.00     0.186 HD
ENDROOT
BRANCH  11  14
HETATM   14  C9  UNL     1      32.091  27.018  31.892  1.00  0.00     0.286 C
HETATM   15  O2  UNL     1      31.721  27.265  33.064  1.00  0.00    -0.264 OA
HETATM   16  N6  UNL     1      33.393  26.538  31.638  1.00  0.00    -0.352 N
ATOM     17  H6  UNL     1      33.652  26.350  30.670  1.00  0.00     0.162 HD
BRANCH  16  18
HETATM   18  C10 UNL     1      34.381  26.297  32.657  1.00  0.00     0.149 C
BRANCH  18  19
HETATM   19  C11 UNL     1      34.434  24.842  33.032  1.00  0.00     0.183 C
BRANCH  19  20
HETATM   20  O3  UNL     1      35.736  24.520  33.452  1.00  0.00    -0.399 OA
ATOM     21  H3  UNL     1      35.687  23.976  34.230  1.00  0.00     0.209 HD
ENDBRANCH  19  20
ENDBRANCH  18  19
ENDBRANCH  16  18
ENDBRANCH  11  14
BRANCH   1  22
HETATM   22  N1  UNL     1      26.983  28.757  29.230  1.00  0.00    -0.285 N
HETATM   23  C4  UNL     1      26.877  29.775  28.478  1.00  0.00     0.093 C
ATOM     24  H1  UNL     1      26.291  28.022  29.087  1.00  0.00     0.187 HD
BRANCH  23  25
HETATM   25  C2  UNL     1      27.728  30.971  28.462  1.00  0.00     0.097 C
HETATM   26  C1  UNL     1      27.461  31.884  29.635  1.00  0.00     0.052 C
HETATM   27  C3  UNL     1      27.690  31.764  27.196  1.00  0.00     0.052 C
BRANCH  25  28
HETATM   28  O1  UNL     1      29.063  30.529  28.617  1.00  0.00    -0.384 OA
ATOM     29  H1  UNL     1      29.546  30.911  27.894  1.00  0.00     0.211 HD
ENDBRANCH  25  28
ENDBRANCH  23  25
BRANCH  23  30
HETATM   30  C12 UNL     1      25.761  29.743  27.502  1.00  0.00     0.105 A
HETATM   31  N8  UNL     1      24.819  30.644  27.298  1.00  0.00    -0.332 N
HETATM   32  C13 UNL     1      23.915  30.444  26.391  1.00  0.00     0.156 A
ATOM     33  H8  UNL     1      24.803  31.499  27.854  1.00  0.00     0.168 HD
HETATM   34  N9  UNL     1      22.817  31.097  25.889  1.00  0.00    -0.172 N
HETATM   35  C15 UNL     1      23.975  29.284  25.668  1.00  0.00     0.137 A
HETATM   36  C14 UNL     1      22.254  30.366  24.918  1.00  0.00     0.704 A
ATOM     37  H9  UNL     1      22.481  32.006  26.207  1.00  0.00     0.186 HD
HETATM   38  N10 UNL     1      21.184  30.717  24.239  1.00  0.00    -0.098 N
HETATM   39  N11 UNL     1      22.956  29.232  24.762  1.00  0.00    -0.180 N
ATOM     40  H10 UNL     1      20.815  30.101  23.514  1.00  0.00     0.213 HD
ATOM     41  H11 UNL     1      22.766  28.482  24.097  1.00  0.00     0.185 HD
HETATM   42  S1  UNL     1      25.359  28.541  26.355  1.00  0.00    -0.048 SA
BRANCH  38  43
HETATM   43  O4  UNL     1      20.564  31.912  24.505  1.00  0.00    -0.276 OA
ATOM     44  H4  UNL     1      19.872  31.952  25.154  1.00  0.00     0.245 HD
ENDBRANCH  38  43
ENDBRANCH  23  30
ENDBRANCH   1  22
TORSDOF 9
ENDMDL