MODEL 5
REMARK VINA RESULT: -7.314198232      4.672      7.257
REMARK  12 active torsions:
REMARK  status: ('A' for Active; 'I' for Inactive)
REMARK    1  A    between atoms: N1_1  and  C1_4
REMARK    2  A    between atoms: C2_7  and  N3_8
REMARK    3  A    between atoms: N3_8  and  C3_10
REMARK    4  A    between atoms: C6_13  and  C7_14
REMARK    5  A    between atoms: C7_14  and  C8_16
REMARK    6  A    between atoms: C8_16  and  N4_17
REMARK    7  A    between atoms: C11_25  and  N5_26
REMARK    8  A    between atoms: N5_26  and  C12_28
REMARK    9  A    between atoms: C12_28  and  O3_29
REMARK   10  A    between atoms: C12_28  and  C13_31
REMARK   11  A    between atoms: C14_34  and  C15_35
REMARK   12  A    between atoms: C15_35  and  N7_36
ROOT
HETATM    1  C1  UNL     1      21.802  28.977  24.353  1.00  0.00     0.679 A
HETATM    2  N2  UNL     1      21.365  30.248  24.420  1.00  0.00    -0.176 N
ATOM      3  H2  UNL     1      20.499  30.551  23.975  1.00  0.00     0.186 HD
HETATM    4  C2  UNL     1      22.149  31.091  25.113  1.00  0.00     0.138 A
HETATM    5  C10 UNL     1      23.337  30.642  25.715  1.00  0.00     0.097 A
HETATM    6  S1  UNL     1      24.578  31.352  26.651  1.00  0.00    -0.047 SA
HETATM    7  C11 UNL     1      25.547  29.963  26.875  1.00  0.00     0.149 A
HETATM    8  N9  UNL     1      24.871  29.021  26.221  1.00  0.00    -0.321 N
ATOM      9  H9  UNL     1      25.220  28.063  26.183  1.00  0.00     0.169 HD
HETATM   10  C16 UNL     1      23.751  29.344  25.627  1.00  0.00     0.144 A
HETATM   11  N10 UNL     1      22.917  28.522  24.908  1.00  0.00    -0.175 N
ATOM     12  H10 UNL     1      23.160  27.537  24.800  1.00  0.00     0.186 HD
ENDROOT
BRANCH   7  13
HETATM   13  N5  UNL     1      26.681  29.839  27.529  1.00  0.00    -0.338 N
ATOM     14  H5  UNL     1      27.558  30.102  27.080  1.00  0.00     0.164 HD
BRANCH  13  15
HETATM   15  C12 UNL     1      26.688  29.338  28.861  1.00  0.00     0.298 C
BRANCH  15  16
HETATM   16  O3  UNL     1      25.382  28.862  29.131  1.00  0.00    -0.369 OA
ATOM     17  H3  UNL     1      25.351  27.959  28.840  1.00  0.00     0.212 HD
ENDBRANCH  15  16
BRANCH  15  18
HETATM   18  C13 UNL     1      27.057  30.364  29.866  1.00  0.00     0.197 A
HETATM   19  N6  UNL     1      27.677  31.532  29.629  1.00  0.00    -0.322 N
HETATM   20  C14 UNL     1      27.821  32.165  30.807  1.00  0.00     0.129 A
ATOM     21  H6  UNL     1      27.984  31.877  28.720  1.00  0.00     0.169 HD
HETATM   22  N8  UNL     1      27.290  31.377  31.737  1.00  0.00    -0.245 N
HETATM   23  O4  UNL     1      26.839  30.305  31.137  1.00  0.00    -0.218 OA
ATOM     24  H8  UNL     1      27.242  31.573  32.736  1.00  0.00     0.196 HD
BRANCH  20  25
HETATM   25  C15 UNL     1      28.442  33.482  31.089  1.00  0.00     0.307 C
BRANCH  25  26
HETATM   26  N7  UNL     1      27.816  34.150  32.211  1.00  0.00    -0.073 N
ATOM     27  H73 UNL     1      28.179  35.096  32.327  1.00  0.00     0.274 HD
ATOM     28  H72 UNL     1      26.842  34.376  32.010  1.00  0.00     0.274 HD
ATOM     29  H71 UNL     1      27.900  33.613  33.073  1.00  0.00     0.274 HD
ENDBRANCH  25  26
ENDBRANCH  20  25
ENDBRANCH  15  18
ENDBRANCH  13  15
ENDBRANCH   7  13
BRANCH   4  30
HETATM   30  N3  UNL     1      21.885  32.329  25.277  1.00  0.00    -0.367 N
ATOM     31  H3  UNL     1      22.383  33.009  24.701  1.00  0.00     0.161 HD
BRANCH  30  32
HETATM   32  C3  UNL     1      20.920  32.823  26.237  1.00  0.00     0.115 C
HETATM   33  C4  UNL     1      19.970  33.814  25.635  1.00  0.00     0.031 C
HETATM   34  C5  UNL     1      20.717  35.149  25.755  1.00  0.00     0.051 C
HETATM   35  C6  UNL     1      21.349  34.977  27.120  1.00  0.00     0.151 A
HETATM   36  O2  UNL     1      22.616  34.436  27.103  1.00  0.00    -0.359 OA
HETATM   37  C9  UNL     1      21.555  33.570  27.366  1.00  0.00     0.188 A
BRANCH  35  38
HETATM   38  C7  UNL     1      21.088  35.972  28.175  1.00  0.00     0.189 C
HETATM   39  O1  UNL     1      20.047  35.999  28.771  1.00  0.00    -0.293 OA
BRANCH  38  40
HETATM   40  C8  UNL     1      22.125  36.998  28.546  1.00  0.00     0.311 C
BRANCH  40  41
HETATM   41  N4  UNL     1      23.278  36.395  29.143  1.00  0.00    -0.073 N
ATOM     42  H43 UNL     1      23.117  36.179  30.127  1.00  0.00     0.274 HD
ATOM     43  H42 UNL     1      23.425  35.448  28.794  1.00  0.00     0.274 HD
ATOM     44  H41 UNL     1      24.111  36.970  29.020  1.00  0.00     0.274 HD
ENDBRANCH  40  41
ENDBRANCH  38  40
ENDBRANCH  35  38
ENDBRANCH  30  32
ENDBRANCH   4  30
BRANCH   1  45
HETATM   45  N1  UNL     1      21.072  28.113  23.686  1.00  0.00    -0.234 N
ATOM     46  H12 UNL     1      20.059  28.215  23.750  1.00  0.00     0.174 HD
ATOM     47  H11 UNL     1      21.558  27.396  23.146  1.00  0.00     0.174 HD
ENDBRANCH   1  45
TORSDOF 12
ENDMDL