MODEL 3
REMARK VINA RESULT: -6.980032043      2.160      2.902
REMARK  8 active torsions:
REMARK  status: ('A' for Active; 'I' for Inactive)
REMARK    1  A    between atoms: C6_13  and  N5_14
REMARK    2  A    between atoms: N5_14  and  N6_16
REMARK    3  A    between atoms: C8_22  and  N8_23
REMARK    4  A    between atoms: N8_23  and  C9_25
REMARK    5  A    between atoms: C9_25  and  C10_26
REMARK    6  A    between atoms: C10_26  and  N9_27
REMARK    7  A    between atoms: C13_34  and  N10_35
REMARK    8  A    between atoms: N10_35  and  C14_37
ROOT
HETATM    1  C1  UNL     1      25.177  29.135  28.851  1.00  0.00     0.160 C
HETATM    2  N1  UNL     1      26.345  29.722  28.251  1.00  0.00    -0.312 N
HETATM    3  C2  UNL     1      26.145  30.844  27.532  1.00  0.00     0.112 C
HETATM    4  C3  UNL     1      24.993  30.896  26.665  1.00  0.00     0.137 A
HETATM    5  N2  UNL     1      24.513  32.014  26.061  1.00  0.00    -0.325 N
ATOM      6  H2  UNL     1      24.938  32.937  26.148  1.00  0.00     0.169 HD
HETATM    7  C4  UNL     1      23.421  31.761  25.343  1.00  0.00     0.139 A
HETATM    8  N3  UNL     1      22.586  32.517  24.571  1.00  0.00    -0.337 N
ATOM      9  H3  UNL     1      22.759  33.516  24.459  1.00  0.00     0.168 HD
HETATM   10  C5  UNL     1      21.537  31.941  23.958  1.00  0.00     0.183 A
HETATM   11  N4  UNL     1      21.295  30.625  24.094  1.00  0.00    -0.336 N
ATOM     12  H4  UNL     1      20.493  30.212  23.620  1.00  0.00     0.168 HD
HETATM   13  C6  UNL     1      22.098  29.839  24.851  1.00  0.00     0.151 A
HETATM   14  C7  UNL     1      23.192  30.418  25.494  1.00  0.00     0.124 A
HETATM   15  N7  UNL     1      24.155  29.934  26.293  1.00  0.00    -0.334 N
ATOM     16  H7  UNL     1      24.233  28.958  26.577  1.00  0.00     0.168 HD
HETATM   17  C8  UNL     1      26.963  31.993  27.576  1.00  0.00     0.110 C
HETATM   18  C11 UNL     1      28.331  31.991  27.889  1.00  0.00     0.203 C
HETATM   19  O1  UNL     1      28.879  33.092  27.995  1.00  0.00    -0.286 OA
HETATM   20  C12 UNL     1      29.142  30.866  28.093  1.00  0.00     0.092 C
HETATM   21  C13 UNL     1      28.790  29.658  28.627  1.00  0.00     0.105 C
HETATM   22  C18 UNL     1      27.512  29.088  28.504  1.00  0.00     0.274 C
HETATM   23  O2  UNL     1      27.454  27.853  28.647  1.00  0.00    -0.265 OA
ENDROOT
BRANCH  17  24
HETATM   24  N8  UNL     1      26.375  33.229  27.274  1.00  0.00    -0.383 N
ATOM     25  H8  UNL     1      26.269  33.487  26.292  1.00  0.00     0.159 HD
BRANCH  24  26
HETATM   26  C9  UNL     1      25.907  34.163  28.286  1.00  0.00     0.147 C
BRANCH  26  27
HETATM   27  C10 UNL     1      24.935  35.158  27.726  1.00  0.00     0.249 C
BRANCH  27  28
HETATM   28  N9  UNL     1      23.570  34.770  27.869  1.00  0.00    -0.078 N
ATOM     29  H93 UNL     1      22.950  35.497  27.511  1.00  0.00     0.274 HD
ATOM     30  H92 UNL     1      23.340  34.017  27.220  1.00  0.00     0.274 HD
ATOM     31  H91 UNL     1      23.313  34.515  28.822  1.00  0.00     0.274 HD
ENDBRANCH  27  28
ENDBRANCH  26  27
ENDBRANCH  24  26
ENDBRANCH  17  24
BRANCH  21  32
HETATM   32  N10 UNL     1      29.755  28.907  29.310  1.00  0.00    -0.349 N
ATOM     33  H10 UNL     1      29.665  28.883  30.325  1.00  0.00     0.166 HD
BRANCH  32  34
HETATM   34  C14 UNL     1      30.833  28.185  28.772  1.00  0.00     0.063 A
HETATM   35  C15 UNL     1      30.709  27.110  27.941  1.00  0.00     0.119 A
HETATM   36  N11 UNL     1      31.780  26.461  27.492  1.00  0.00    -0.360 N
HETATM   37  C16 UNL     1      33.011  26.877  27.868  1.00  0.00     0.180 A
ATOM     38  H11 UNL     1      31.674  25.658  26.871  1.00  0.00     0.166 HD
HETATM   39  N12 UNL     1      33.167  27.934  28.687  1.00  0.00    -0.360 N
HETATM   40  C17 UNL     1      32.121  28.604  29.153  1.00  0.00     0.119 A
ATOM     41  H12 UNL     1      34.108  28.225  28.955  1.00  0.00     0.166 HD
ENDBRANCH  32  34
ENDBRANCH  21  32
BRANCH  13  42
HETATM   42  N5  UNL     1      21.910  28.591  25.008  1.00  0.00    -0.290 N
ATOM     43  H5  UNL     1      21.635  28.276  25.939  1.00  0.00     0.188 HD
BRANCH  42  44
HETATM   44  N6  UNL     1      22.044  27.627  24.034  1.00  0.00    -0.344 N
ATOM     45  H62 UNL     1      21.189  27.138  23.768  1.00  0.00     0.176 HD
ATOM     46  H61 UNL     1      22.912  27.369  23.566  1.00  0.00     0.176 HD
ENDBRANCH  42  44
ENDBRANCH  13  42
TORSDOF 8
ENDMDL