MODEL 5
REMARK VINA RESULT: -7.863266813      2.337      3.146
REMARK  10 active torsions:
REMARK  status: ('A' for Active; 'I' for Inactive)
REMARK    1  A    between atoms: C2_2  and  C3_3
REMARK       I    between atoms: C3_3  and  N1_5
REMARK    2  A    between atoms: C4_6  and  C5_7
REMARK    3  A    between atoms: C5_7  and  S1_8
REMARK    4  A    between atoms: S1_8  and  C6_11
REMARK    5  A    between atoms: C6_11  and  C7_12
REMARK       I    between atoms: C7_12  and  N2_14
REMARK    6  A    between atoms: N2_14  and  C8_16
REMARK    7  A    between atoms: C10_24  and  C11_25
REMARK    8  A    between atoms: C11_25  and  O5_26
REMARK    9  A    between atoms: C11_25  and  O6_28
REMARK   10  A    between atoms: C13_36  and  N8_37
ROOT
HETATM    1  C7  UNL     1      26.414  30.932  26.714  1.00  0.00     0.237 C
HETATM    2  O4  UNL     1      26.768  32.128  26.425  1.00  0.00    -0.272 OA
HETATM    3  N2  UNL     1      25.071  30.682  26.985  1.00  0.00    -0.311 N
ATOM      4  H2  UNL     1      24.845  30.368  27.928  1.00  0.00     0.170 HD
ENDROOT
BRANCH   1   5
HETATM    5  C6  UNL     1      27.384  29.842  26.765  1.00  0.00     0.243 C
BRANCH   5   6
HETATM    6  S1  UNL     1      28.032  29.419  28.318  1.00  0.00     0.159 S
HETATM    7  O2  UNL     1      29.431  29.972  28.531  1.00  0.00    -0.227 OA
HETATM    8  O3  UNL     1      27.191  30.095  29.394  1.00  0.00    -0.227 OA
BRANCH   6   9
HETATM    9  C5  UNL     1      28.096  27.715  28.727  1.00  0.00     0.219 C
BRANCH   9  10
HETATM   10  C4  UNL     1      29.483  27.247  29.047  1.00  0.00     0.137 A
HETATM   11  N1  UNL     1      30.187  27.304  30.164  1.00  0.00    -0.101 N
HETATM   12  C3  UNL     1      29.769  27.670  31.488  1.00  0.00     0.244 C
HETATM   13  C13 UNL     1      31.448  26.834  29.902  1.00  0.00     0.701 A
HETATM   14  O1  UNL     1      30.688  27.730  32.380  1.00  0.00    -0.272 OA
HETATM   15  N7  UNL     1      31.459  26.491  28.583  1.00  0.00    -0.130 N
HETATM   16  N6  UNL     1      30.302  26.732  28.073  1.00  0.00    -0.273 N
ATOM     17  H7  UNL     1      32.257  26.105  28.080  1.00  0.00     0.205 HD
ATOM     18  H6  UNL     1      30.037  26.567  27.102  1.00  0.00     0.189 HD
BRANCH  12  19
HETATM   19  C2  UNL     1      28.426  27.971  31.934  1.00  0.00     0.100 C
HETATM   20  C1  UNL     1      27.707  26.698  32.429  1.00  0.00     0.014 C
ENDBRANCH  12  19
BRANCH  13  21
HETATM   21  N8  UNL     1      32.461  26.707  30.676  1.00  0.00    -0.233 N
ATOM     22  H82 UNL     1      33.342  27.203  30.538  1.00  0.00     0.174 HD
ATOM     23  H81 UNL     1      32.582  26.135  31.511  1.00  0.00     0.174 HD
ENDBRANCH  13  21
ENDBRANCH   9  10
ENDBRANCH   6   9
ENDBRANCH   5   6
ENDBRANCH   1   5
BRANCH   3  24
HETATM   24  C8  UNL     1      24.074  30.810  26.156  1.00  0.00     0.135 A
HETATM   25  N3  UNL     1      23.722  32.011  25.740  1.00  0.00    -0.321 N
HETATM   26  C9  UNL     1      22.723  32.325  24.904  1.00  0.00     0.144 A
ATOM     27  H3  UNL     1      24.276  32.791  26.095  1.00  0.00     0.169 HD
HETATM   28  N4  UNL     1      22.439  33.541  24.539  1.00  0.00    -0.380 N
HETATM   29  S2  UNL     1      21.828  30.988  24.337  1.00  0.00    -0.052 SA
ATOM     30  H42 UNL     1      22.974  34.340  24.879  1.00  0.00     0.158 HD
ATOM     31  H41 UNL     1      21.678  33.780  23.903  1.00  0.00     0.158 HD
HETATM   32  C10 UNL     1      22.391  29.510  24.953  1.00  0.00     0.068 A
HETATM   33  C12 UNL     1      23.470  29.607  25.806  1.00  0.00     0.108 A
HETATM   34  N5  UNL     1      23.988  28.382  26.348  1.00  0.00    -0.097 NA
BRANCH  32  35
HETATM   35  C11 UNL     1      21.804  28.167  24.631  1.00  0.00     0.297 C
BRANCH  35  36
HETATM   36  O5  UNL     1      20.543  28.355  24.117  1.00  0.00    -0.367 OA
ATOM     37  H5  UNL     1      20.191  27.509  23.865  1.00  0.00     0.213 HD
ENDBRANCH  35  36
BRANCH  35  38
HETATM   38  O6  UNL     1      22.646  27.557  23.686  1.00  0.00    -0.367 OA
ATOM     39  H6  UNL     1      23.317  28.190  23.455  1.00  0.00     0.213 HD
ENDBRANCH  35  38
ENDBRANCH  32  35
ENDBRANCH   3  24
TORSDOF 10
ENDMDL