MODEL 3
REMARK VINA RESULT: -7.584462199      2.911      3.669
REMARK  12 active torsions:
REMARK  status: ('A' for Active; 'I' for Inactive)
REMARK    1  A    between atoms: O1_2  and  C2_3
REMARK    2  A    between atoms: C2_3  and  C3_5
REMARK    3  A    between atoms: C3_5  and  C12_33
REMARK    4  A    between atoms: N1_6  and  N2_8
REMARK    5  A    between atoms: N2_8  and  C4_10
REMARK    6  A    between atoms: C4_10  and  O3_11
REMARK    7  A    between atoms: C4_10  and  C5_13
REMARK    8  A    between atoms: C5_13  and  C6_14
REMARK    9  A    between atoms: C8_18  and  N4_19
REMARK       I    between atoms: N4_19  and  C9_21
REMARK   10  A    between atoms: C9_21  and  C10_23
REMARK   11  A    between atoms: C10_23  and  N5_25
REMARK   12  A    between atoms: C16_39  and  N9_40
ROOT
HETATM    1  N2  UNL     1      26.419  29.501  30.530  1.00  0.00    -0.307 N
ATOM      2  H2  UNL     1      26.673  28.528  30.702  1.00  0.00     0.183 HD
ENDROOT
BRANCH   1   3
HETATM    3  N1  UNL     1      25.615  29.760  29.447  1.00  0.00    -0.295 N
HETATM    4  C3  UNL     1      25.905  29.601  28.205  1.00  0.00     0.150 C
ATOM      5  H1  UNL     1      24.683  30.119  29.652  1.00  0.00     0.187 HD
BRANCH   4   6
HETATM    6  C2  UNL     1      27.216  29.094  27.855  1.00  0.00     0.313 C
HETATM    7  O2  UNL     1      27.602  29.216  26.664  1.00  0.00    -0.257 OA
BRANCH   6   8
HETATM    8  O1  UNL     1      28.102  28.477  28.715  1.00  0.00    -0.321 OA
HETATM    9  C1  UNL     1      28.604  27.162  28.506  1.00  0.00     0.213 C
ENDBRANCH   6   8
ENDBRANCH   4   6
BRANCH   4  10
HETATM   10  C12 UNL     1      24.878  29.950  27.230  1.00  0.00     0.069 A
HETATM   11  C13 UNL     1      24.370  31.189  26.906  1.00  0.00     0.063 A
HETATM   12  C14 UNL     1      23.400  31.064  25.920  1.00  0.00     0.062 A
HETATM   13  C15 UNL     1      23.335  29.713  25.655  1.00  0.00     0.103 A
HETATM   14  N11 UNL     1      22.590  32.017  25.251  1.00  0.00    -0.372 N
HETATM   15  N8  UNL     1      24.221  29.066  26.444  1.00  0.00    -0.349 N
HETATM   16  C16 UNL     1      22.373  29.276  24.633  1.00  0.00     0.125 C
ATOM     17  H8  UNL     1      24.372  28.058  26.446  1.00  0.00     0.166 HD
HETATM   18  N10 UNL     1      21.574  30.234  23.978  1.00  0.00    -0.359 N
HETATM   19  C17 UNL     1      21.790  31.661  24.090  1.00  0.00     0.245 C
ATOM     20  H10 UNL     1      20.804  29.905  23.395  1.00  0.00     0.162 HD
ATOM     21  H11 UNL     1      22.569  32.978  25.592  1.00  0.00     0.161 HD
BRANCH  16  22
HETATM   22  N9  UNL     1      22.328  28.009  24.400  1.00  0.00    -0.384 N
ATOM     23  H92 UNL     1      21.468  27.470  24.305  1.00  0.00     0.157 HD
ATOM     24  H91 UNL     1      23.228  27.536  24.311  1.00  0.00     0.157 HD
ENDBRANCH  16  22
ENDBRANCH   4  10
ENDBRANCH   1   3
BRANCH   1  25
HETATM   25  C4  UNL     1      26.933  30.492  31.446  1.00  0.00     0.240 C
BRANCH  25  26
HETATM   26  O3  UNL     1      27.416  29.919  32.621  1.00  0.00    -0.375 OA
ATOM     27  H3  UNL     1      26.893  30.160  33.376  1.00  0.00     0.212 HD
ENDBRANCH  25  26
BRANCH  25  28
HETATM   28  C5  UNL     1      28.069  31.253  30.822  1.00  0.00     0.132 C
BRANCH  28  29
HETATM   29  C6  UNL     1      29.369  30.762  31.342  1.00  0.00     0.100 A
HETATM   30  N3  UNL     1      29.998  31.531  32.255  1.00  0.00    -0.351 N
HETATM   31  C7  UNL     1      31.183  31.101  32.744  1.00  0.00     0.139 A
ATOM     32  H3  UNL     1      29.591  32.412  32.568  1.00  0.00     0.166 HD
HETATM   33  C8  UNL     1      31.678  29.908  32.284  1.00  0.00     0.138 A
HETATM   34  N6  UNL     1      31.026  29.159  31.370  1.00  0.00    -0.283 N
HETATM   35  N7  UNL     1      29.870  29.609  30.912  1.00  0.00    -0.287 N
ATOM     36  H6  UNL     1      31.413  28.274  31.043  1.00  0.00     0.188 HD
ATOM     37  H7  UNL     1      29.356  29.064  30.220  1.00  0.00     0.188 HD
BRANCH  33  38
HETATM   38  N4  UNL     1      32.796  29.450  32.717  1.00  0.00    -0.309 N
HETATM   39  C9  UNL     1      32.801  28.649  33.884  1.00  0.00     0.253 C
HETATM   40  O4  UNL     1      32.331  27.491  33.825  1.00  0.00    -0.271 OA
ATOM     41  H4  UNL     1      33.667  29.660  32.229  1.00  0.00     0.170 HD
BRANCH  39  42
HETATM   42  C10 UNL     1      33.341  29.146  35.157  1.00  0.00     0.271 C
HETATM   43  C11 UNL     1      34.677  29.836  34.986  1.00  0.00     0.050 C
BRANCH  42  44
HETATM   44  N5  UNL     1      33.414  28.069  36.111  1.00  0.00    -0.067 N
ATOM     45  H53 UNL     1      32.491  27.699  36.342  1.00  0.00     0.275 HD
ATOM     46  H52 UNL     1      33.815  27.224  35.705  1.00  0.00     0.275 HD
ATOM     47  H51 UNL     1      33.923  28.375  36.940  1.00  0.00     0.275 HD
ENDBRANCH  42  44
ENDBRANCH  39  42
ENDBRANCH  33  38
ENDBRANCH  28  29
ENDBRANCH  25  28
ENDBRANCH   1  25
TORSDOF 12
ENDMDL