MODEL 2
REMARK VINA RESULT: -7.202427471      1.935      2.918
REMARK  8 active torsions:
REMARK  status: ('A' for Active; 'I' for Inactive)
REMARK    1  A    between atoms: O1_2  and  S1_3
REMARK    2  A    between atoms: S1_3  and  N1_6
REMARK    3  A    between atoms: N1_6  and  C2_8
REMARK    4  A    between atoms: C2_8  and  C3_9
REMARK    5  A    between atoms: C3_9  and  N2_10
REMARK    6  A    between atoms: C10_21  and  C12_23
REMARK    7  A    between atoms: C15_34  and  N10_35
REMARK    8  A    between atoms: C15_34  and  O4_39
ROOT
HETATM    1  N2  UNL     1      28.886  29.231  29.918  1.00  0.00    -0.365 N
HETATM    2  C4  UNL     1      27.591  29.533  30.463  1.00  0.00     0.126 C
HETATM    3  C5  UNL     1      26.462  29.296  29.486  1.00  0.00     0.039 C
HETATM    4  C6  UNL     1      25.673  30.535  29.158  1.00  0.00     0.115 C
HETATM    5  N3  UNL     1      25.735  30.796  27.762  1.00  0.00    -0.420 N
ATOM      6  H3  UNL     1      24.899  30.913  27.189  1.00  0.00     0.153 HD
HETATM    7  C7  UNL     1      27.049  30.881  27.222  1.00  0.00     0.133 C
HETATM    8  C8  UNL     1      27.999  31.626  28.091  1.00  0.00     0.140 C
HETATM    9  N4  UNL     1      29.290  30.919  28.126  1.00  0.00    -0.374 N
ATOM     10  H4  UNL     1      29.877  30.953  27.294  1.00  0.00     0.161 HD
HETATM   11  C9  UNL     1      29.775  30.177  29.277  1.00  0.00     0.107 C
HETATM   12  C10 UNL     1      30.965  30.463  29.720  1.00  0.00     0.011 C
HETATM   13  C11 UNL     1      31.790  31.453  28.918  1.00  0.00     0.054 C
ENDROOT
BRANCH   1  14
HETATM   14  C3  UNL     1      29.316  27.822  30.003  1.00  0.00     0.145 C
BRANCH  14  15
HETATM   15  C2  UNL     1      28.952  27.011  28.780  1.00  0.00     0.154 C
BRANCH  15  16
HETATM   16  N1  UNL     1      29.599  27.548  27.590  1.00  0.00    -0.295 N
ATOM     17  H1  UNL     1      29.210  28.248  26.959  1.00  0.00     0.174 HD
BRANCH  16  18
HETATM   18  S1  UNL     1      31.144  26.786  27.439  1.00  0.00     0.357 S
HETATM   19  O2  UNL     1      31.397  26.629  25.949  1.00  0.00    -0.176 OA
HETATM   20  O3  UNL     1      31.108  25.384  28.002  1.00  0.00    -0.176 OA
BRANCH  18  21
HETATM   21  O1  UNL     1      32.359  27.694  28.124  1.00  0.00    -0.265 OA
HETATM   22  C1  UNL     1      33.570  26.995  27.945  1.00  0.00     0.227 C
ENDBRANCH  18  21
ENDBRANCH  16  18
ENDBRANCH  15  16
ENDBRANCH  14  15
ENDBRANCH   1  14
BRANCH  12  23
HETATM   23  C12 UNL     1      31.572  30.172  31.024  1.00  0.00     0.106 A
HETATM   24  N5  UNL     1      32.294  29.127  31.080  1.00  0.00    -0.328 N
HETATM   25  C13 UNL     1      33.068  28.394  31.973  1.00  0.00     0.195 A
ATOM     26  H5  UNL     1      32.311  28.677  30.165  1.00  0.00     0.168 HD
HETATM   27  N6  UNL     1      33.671  27.171  31.508  1.00  0.00    -0.063 NA
HETATM   28  N7  UNL     1      33.290  28.722  33.199  1.00  0.00    -0.305 N
HETATM   29  C14 UNL     1      32.793  29.890  33.884  1.00  0.00     0.194 A
ATOM     30  H7  UNL     1      33.878  28.090  33.742  1.00  0.00     0.171 HD
HETATM   31  N8  UNL     1      33.213  30.049  35.233  1.00  0.00    -0.063 NA
HETATM   32  N9  UNL     1      32.032  30.741  33.349  1.00  0.00    -0.304 N
HETATM   33  C15 UNL     1      31.346  31.082  32.153  1.00  0.00     0.349 A
ATOM     34  H9  UNL     1      31.831  31.462  34.042  1.00  0.00     0.167 HD
BRANCH  33  35
HETATM   35  N10 UNL     1      29.943  31.168  32.569  1.00  0.00    -0.021 N
ATOM     36 3H10 UNL     1      29.323  31.073  31.765  1.00  0.00     0.280 HD
ATOM     37 2H10 UNL     1      29.672  30.335  33.093  1.00  0.00     0.280 HD
ATOM     38 1H10 UNL     1      29.723  32.012  33.096  1.00  0.00     0.280 HD
ENDBRANCH  33  35
BRANCH  33  39
HETATM   39  O4  UNL     1      31.848  32.388  31.847  1.00  0.00    -0.344 OA
ATOM     40  H4  UNL     1      31.919  32.907  32.639  1.00  0.00     0.214 HD
ENDBRANCH  33  39
ENDBRANCH  12  23
TORSDOF 8
ENDMDL