MODEL 3
REMARK VINA RESULT: -4.251083907      1.163      1.502
REMARK  4 active torsions:
REMARK  status: ('A' for Active; 'I' for Inactive)
REMARK    1  A    between atoms: C1_2  and  O2_7
REMARK    2  A    between atoms: N2_3  and  O1_5
REMARK    3  A    between atoms: O2_7  and  C2_8
REMARK    4  A    between atoms: C2_8  and  C3_9
ROOT
HETATM    1  C2  UNL     1      26.354   1.124  36.997  1.00  0.00     0.211 C
ENDROOT
BRANCH   1   2
HETATM    2  O2  UNL     1      27.068   0.451  37.981  1.00  0.00    -0.321 OA
BRANCH   2   3
HETATM    3  C1  UNL     1      28.191   0.928  38.625  1.00  0.00     0.251 C
HETATM    4  N1  UNL     1      28.552   0.591  39.958  1.00  0.00    -0.054 NA
HETATM    5  N2  UNL     1      28.956   1.729  37.968  1.00  0.00    -0.235 N
ATOM      6  H2  UNL     1      28.714   1.981  37.010  1.00  0.00     0.197 HD
BRANCH   5   7
HETATM    7  O1  UNL     1      30.093   2.249  38.537  1.00  0.00    -0.287 OA
ATOM      8  H1  UNL     1      30.043   2.902  39.225  1.00  0.00     0.244 HD
ENDBRANCH   5   7
ENDBRANCH   2   3
ENDBRANCH   1   2
BRANCH   1   9
HETATM    9  C3  UNL     1      25.689   2.388  37.468  1.00  0.00     0.210 C
HETATM   10  C4  UNL     1      26.121   3.495  36.504  1.00  0.00     0.037 C
HETATM   11  C5  UNL     1      24.919   3.523  35.561  1.00  0.00     0.029 C
HETATM   12  C6  UNL     1      23.782   3.373  36.567  1.00  0.00     0.233 C
HETATM   13  N3  UNL     1      24.263   2.314  37.402  1.00  0.00    -0.069 N
ATOM     14  H32 UNL     1      23.935   1.397  37.098  1.00  0.00     0.277 HD
ATOM     15  H31 UNL     1      23.830   2.319  38.326  1.00  0.00     0.277 HD
ENDBRANCH   1   9
TORSDOF 4
ENDMDL