MODEL 3
REMARK VINA RESULT: -3.461806831      6.769      8.266
REMARK  5 active torsions:
REMARK  status: ('A' for Active; 'I' for Inactive)
REMARK    1  A    between atoms: N1_7  and  O1_8
REMARK    2  A    between atoms: O1_8  and  C7_9
REMARK    3  A    between atoms: C7_9  and  N2_10
REMARK    4  A    between atoms: C7_9  and  N3_14
REMARK    5  A    between atoms: N3_14  and  N4_15
ROOT
HETATM    1  C7  UNL     1      28.148   0.284  38.693  1.00  0.00     0.453 C
ENDROOT
BRANCH   1   2
HETATM    2  O1  UNL     1      27.586   0.963  37.641  1.00  0.00    -0.251 OA
BRANCH   2   3
HETATM    3  N1  UNL     1      26.354   1.480  37.942  1.00  0.00    -0.189 NA
HETATM    4  C2  UNL     1      25.927   2.276  36.809  1.00  0.00     0.082 C
HETATM    5  C1  UNL     1      26.889   3.412  36.523  1.00  0.00     0.028 C
HETATM    6  C3  UNL     1      24.590   2.898  37.127  1.00  0.00     0.022 C
HETATM    7  C4  UNL     1      23.579   1.778  37.305  1.00  0.00     0.003 C
HETATM    8  C5  UNL     1      24.043   0.803  38.373  1.00  0.00     0.017 C
HETATM    9  C6  UNL     1      25.446   0.354  38.051  1.00  0.00     0.121 C
ENDBRANCH   2   3
ENDBRANCH   1   2
BRANCH   1  10
HETATM   10  N2  UNL     1      28.730  -0.980  38.324  1.00  0.00    -0.035 N
ATOM     11  H23 UNL     1      28.231  -1.388  37.534  1.00  0.00     0.279 HD
ATOM     12  H22 UNL     1      29.645  -0.843  37.895  1.00  0.00     0.279 HD
ATOM     13  H21 UNL     1      28.789  -1.646  39.095  1.00  0.00     0.279 HD
ENDBRANCH   1  10
BRANCH   1  14
HETATM   14  N3  UNL     1      29.242   1.090  39.260  1.00  0.00    -0.086 NA
BRANCH  14  15
HETATM   15  N4  UNL     1      29.703   2.033  38.351  1.00  0.00    -0.344 N
ATOM     16  H42 UNL     1      29.378   2.088  37.386  1.00  0.00     0.172 HD
ATOM     17  H41 UNL     1      30.396   2.651  38.773  1.00  0.00     0.172 HD
ENDBRANCH  14  15
ENDBRANCH   1  14
TORSDOF 5
ENDMDL