MODEL 4
REMARK VINA RESULT: -3.545027007      8.321      9.669
REMARK  2 active torsions:
REMARK  status: ('A' for Active; 'I' for Inactive)
REMARK    1  A    between atoms: O1_2  and  C2_3
REMARK    2  A    between atoms: C3_4  and  N1_5
ROOT
HETATM    1  C2  UNL     1      26.305   1.617  37.868  1.00  0.00     0.194 C
HETATM    2  C3  UNL     1      27.571   1.200  37.187  1.00  0.00     0.322 C
HETATM    3  N2  UNL     1      27.294   1.261  35.765  1.00  0.00    -0.112 NA
HETATM    4  N3  UNL     1      25.919   1.070  35.627  1.00  0.00    -0.133 NA
HETATM    5  C4  UNL     1      25.301   1.769  36.737  1.00  0.00     0.076 C
HETATM    6  C5  UNL     1      24.997   3.196  36.413  1.00  0.00     0.031 C
HETATM    7  C6  UNL     1      23.695   3.558  37.073  1.00  0.00     0.002 C
HETATM    8  C7  UNL     1      23.099   2.263  37.597  1.00  0.00     0.002 C
HETATM    9  C8  UNL     1      23.972   1.169  37.053  1.00  0.00     0.031 C
ENDROOT
BRANCH   2  10
HETATM   10  N1  UNL     1      28.620   2.160  37.464  1.00  0.00    -0.058 N
ATOM     11  H13 UNL     1      29.013   2.555  36.610  1.00  0.00     0.276 HD
ATOM     12  H12 UNL     1      28.253   3.021  37.869  1.00  0.00     0.276 HD
ATOM     13  H11 UNL     1      29.335   1.734  38.053  1.00  0.00     0.276 HD
ENDBRANCH   2  10
BRANCH   1  14
HETATM   14  O1  UNL     1      25.866   0.769  38.846  1.00  0.00    -0.385 OA
HETATM   15  C1  UNL     1      26.671  -0.322  39.083  1.00  0.00     0.202 C
ENDBRANCH   1  14
TORSDOF 2
ENDMDL