MODEL 4
REMARK VINA RESULT: -3.786559858      1.481      1.814
REMARK  4 active torsions:
REMARK  status: ('A' for Active; 'I' for Inactive)
REMARK    1  A    between atoms: C2_2  and  C3_3
REMARK    2  A    between atoms: C3_3  and  C4_4
REMARK    3  A    between atoms: C5_8  and  N2_9
REMARK    4  A    between atoms: N2_9  and  N3_10
ROOT
HETATM    1  C4  UNL     1      25.350   4.519  33.123  1.00  0.00     0.205 C
HETATM    2  N1  UNL     1      25.477   4.688  34.542  1.00  0.00    -0.041 N
ATOM      3  H11 UNL     1      25.107   5.581  34.868  1.00  0.00     0.280 HD
ATOM      4  H12 UNL     1      26.443   4.824  34.838  1.00  0.00     0.280 HD
HETATM    5  C5  UNL     1      24.850   3.556  35.181  1.00  0.00     0.360 C
HETATM    6  S1  UNL     1      23.238   3.602  34.318  1.00  0.00    -0.112 SA
HETATM    7  C6  UNL     1      23.853   4.458  32.811  1.00  0.00     0.077 C
HETATM    8  C7  UNL     1      23.599   3.523  31.653  1.00  0.00     0.023 C
ENDROOT
BRANCH   5   9
HETATM    9  N2  UNL     1      24.689   3.820  36.591  1.00  0.00    -0.104 NA
BRANCH   9  10
HETATM   10  N3  UNL     1      23.326   4.040  36.818  1.00  0.00    -0.346 N
ATOM     11  H32 UNL     1      22.862   4.949  36.818  1.00  0.00     0.172 HD
ATOM     12  H31 UNL     1      22.897   3.129  36.980  1.00  0.00     0.172 HD
ENDBRANCH   9  10
ENDBRANCH   5   9
BRANCH   1  13
HETATM   13  C3  UNL     1      25.890   5.796  32.477  1.00  0.00     0.060 C
BRANCH  13  14
HETATM   14  C2  UNL     1      24.898   6.892  32.512  1.00  0.00    -0.035 C
HETATM   15  C1  UNL     1      25.242   8.157  32.360  1.00  0.00     0.007 C
ENDBRANCH  13  14
ENDBRANCH   1  13
TORSDOF 4
ENDMDL