MODEL 3
REMARK VINA RESULT: -3.991865848      2.739      4.521
REMARK  5 active torsions:
REMARK  status: ('A' for Active; 'I' for Inactive)
REMARK    1  A    between atoms: C2_2  and  N2_6
REMARK    2  A    between atoms: N2_6  and  N3_8
REMARK    3  A    between atoms: C3_10  and  C5_12
REMARK    4  A    between atoms: N4_13  and  C6_15
REMARK    5  A    between atoms: C6_15  and  O1_17
ROOT
HETATM    1  N3  UNL     1      26.877   2.838  35.807  1.00  0.00    -0.303 N
ATOM      2  H3  UNL     1      27.707   2.755  35.221  1.00  0.00     0.186 HD
HETATM    3  C3  UNL     1      26.623   1.913  36.716  1.00  0.00     0.037 C
HETATM    4  C4  UNL     1      25.428   2.034  37.557  1.00  0.00     0.071 C
ENDROOT
BRANCH   1   5
HETATM    5  N2  UNL     1      26.023   3.926  35.640  1.00  0.00    -0.290 N
ATOM      6  H2  UNL     1      25.939   4.595  36.405  1.00  0.00     0.188 HD
BRANCH   5   7
HETATM    7  C2  UNL     1      25.262   4.154  34.464  1.00  0.00     0.085 C
HETATM    8  C1  UNL     1      24.278   3.192  33.920  1.00  0.00     0.090 C
HETATM    9  N1  UNL     1      25.443   5.259  33.842  1.00  0.00    -0.388 N
ATOM     10  H12 UNL     1      24.896   5.423  32.997  1.00  0.00     0.157 HD
ATOM     11  H11 UNL     1      26.122   5.921  34.217  1.00  0.00     0.157 HD
ENDBRANCH   5   7
ENDBRANCH   1   5
BRANCH   3  12
HETATM   12  C5  UNL     1      27.559   0.827  36.816  1.00  0.00     0.111 C
HETATM   13  N4  UNL     1      28.398   0.621  37.693  1.00  0.00    -0.372 N
ATOM     14  H4  UNL     1      28.928  -0.231  37.512  1.00  0.00     0.161 HD
BRANCH  13  15
HETATM   15  C6  UNL     1      28.810   1.240  38.861  1.00  0.00     0.213 C
HETATM   16  C7  UNL     1      29.187   0.199  39.950  1.00  0.00     0.063 C
BRANCH  15  17
HETATM   17  O1  UNL     1      29.986   2.016  38.635  1.00  0.00    -0.377 OA
ATOM     18  H1  UNL     1      29.953   2.828  39.126  1.00  0.00     0.212 HD
ENDBRANCH  15  17
ENDBRANCH  13  15
ENDBRANCH   3  12
TORSDOF 5
ENDMDL