MODEL 4
REMARK VINA RESULT: -4.040675493      1.966      2.658
REMARK  4 active torsions:
REMARK  status: ('A' for Active; 'I' for Inactive)
REMARK    1  A    between atoms: N1_1  and  C1_5
REMARK    2  A    between atoms: C2_9  and  O1_10
REMARK    3  A    between atoms: O1_10  and  N3_11
REMARK    4  A    between atoms: N3_11  and  C3_13
ROOT
HETATM    1  C1  UNL     1      24.445   3.430  35.212  1.00  0.00     0.530 C
HETATM    2  N2  UNL     1      25.630   4.232  35.316  1.00  0.00     0.029 N
ATOM      3  H21 UNL     1      26.463   3.904  35.805  1.00  0.00     0.288 HD
ATOM      4  H22 UNL     1      25.669   5.067  35.900  1.00  0.00     0.288 HD
HETATM    5  C2  UNL     1      25.566   4.309  33.854  1.00  0.00     0.499 C
HETATM    6  O2  UNL     1      24.243   3.814  33.909  1.00  0.00    -0.282 OA
ENDROOT
BRANCH   5   7
HETATM    7  O1  UNL     1      25.621   5.589  33.386  1.00  0.00    -0.222 OA
BRANCH   7   8
HETATM    8  N3  UNL     1      25.401   5.828  32.137  1.00  0.00    -0.293 N
ATOM      9  H3  UNL     1      25.756   5.184  31.431  1.00  0.00     0.188 HD
BRANCH   8  10
HETATM   10  C3  UNL     1      24.675   6.967  31.738  1.00  0.00     0.106 C
HETATM   11  C4  UNL     1      24.522   7.020  30.212  1.00  0.00     0.027 C
HETATM   12  C5  UNL     1      24.555   8.502  29.969  1.00  0.00     0.002 C
HETATM   13  C6  UNL     1      25.734   8.920  30.822  1.00  0.00     0.002 C
HETATM   14  C7  UNL     1      25.424   8.212  32.123  1.00  0.00     0.027 C
ENDBRANCH   8  10
ENDBRANCH   7   8
ENDBRANCH   5   7
BRANCH   1  15
HETATM   15  N1  UNL     1      23.337   3.917  36.042  1.00  0.00    -0.027 N
ATOM     16  H13 UNL     1      22.470   3.434  35.809  1.00  0.00     0.279 HD
ATOM     17  H12 UNL     1      23.447   3.611  37.009  1.00  0.00     0.279 HD
ATOM     18  H11 UNL     1      23.212   4.928  35.994  1.00  0.00     0.279 HD
ENDBRANCH   1  15
TORSDOF 4
ENDMDL