MODEL 1
REMARK VINA RESULT: -3.702386784      0.000      0.000
REMARK  4 active torsions:
REMARK  status: ('A' for Active; 'I' for Inactive)
REMARK    1  A    between atoms: O1_2  and  N1_3
REMARK    2  A    between atoms: N1_3  and  C2_5
REMARK    3  A    between atoms: C2_5  and  O2_9
REMARK    4  A    between atoms: O2_9  and  C3_10
ROOT
HETATM    1  O2  UNL     1      25.531   4.782  32.927  1.00  0.00    -0.316 OA
ENDROOT
BRANCH   1   2
HETATM    2  C2  UNL     1      24.966   3.894  33.824  1.00  0.00     0.237 C
HETATM    3  N2  UNL     1      24.508   2.789  33.349  1.00  0.00    -0.364 N
ATOM      4  H22 UNL     1      24.091   2.134  34.011  1.00  0.00     0.159 HD
ATOM      5  H21 UNL     1      24.549   2.556  32.357  1.00  0.00     0.159 HD
BRANCH   2   6
HETATM    6  N1  UNL     1      24.910   4.217  35.202  1.00  0.00    -0.231 N
ATOM      7  H1  UNL     1      24.008   4.270  35.675  1.00  0.00     0.198 HD
BRANCH   6   8
HETATM    8  O1  UNL     1      26.032   4.452  35.883  1.00  0.00    -0.282 OA
HETATM    9  C1  UNL     1      26.515   3.361  36.567  1.00  0.00     0.237 C
ENDBRANCH   6   8
ENDBRANCH   2   6
ENDBRANCH   1   2
BRANCH   1  10
HETATM   10  C3  UNL     1      24.832   5.951  32.468  1.00  0.00     0.135 C
HETATM   11  C4  UNL     1      24.418   5.798  31.050  1.00  0.00     0.060 C
HETATM   12  C5  UNL     1      24.336   7.077  30.277  1.00  0.00     0.235 C
HETATM   13  N3  UNL     1      25.545   7.824  30.489  1.00  0.00    -0.075 N
HETATM   14  C6  UNL     1      25.537   8.286  31.864  1.00  0.00     0.235 C
ATOM     15  H32 UNL     1      26.386   7.298  30.251  1.00  0.00     0.277 HD
ATOM     16  H31 UNL     1      25.667   8.581  29.816  1.00  0.00     0.277 HD
HETATM   17  C7  UNL     1      25.717   7.110  32.755  1.00  0.00     0.060 C
ENDBRANCH   1  10
TORSDOF 4
ENDMDL