MODEL 5
REMARK VINA RESULT: -4.017168827      5.315      7.071
REMARK  3 active torsions:
REMARK  status: ('A' for Active; 'I' for Inactive)
REMARK       I    between atoms: C1_4  and  N3_6
REMARK    1  A    between atoms: N3_6  and  O1_8
REMARK    2  A    between atoms: O1_8  and  C2_9
REMARK    3  A    between atoms: C2_9  and  C3_11
ROOT
HETATM    1  O1  UNL     1      24.428   6.438  32.605  1.00  0.00    -0.192 OA
ENDROOT
BRANCH   1   2
HETATM    2  N3  UNL     1      25.497   5.842  33.259  1.00  0.00    -0.229 N
HETATM    3  C1  UNL     1      25.457   4.513  33.726  1.00  0.00     0.206 C
HETATM    4  N1  UNL     1      25.137   4.283  34.943  1.00  0.00    -0.372 N
HETATM    5  N2  UNL     1      25.770   3.444  32.852  1.00  0.00    -0.062 NA
ATOM      6  H12 UNL     1      25.108   3.321  35.282  1.00  0.00     0.158 HD
ATOM      7  H11 UNL     1      24.911   5.054  35.573  1.00  0.00     0.158 HD
ATOM      8  H3  UNL     1      26.346   6.389  33.407  1.00  0.00     0.197 HD
ENDBRANCH   1   2
BRANCH   1   9
HETATM    9  C2  UNL     1      24.568   6.840  31.306  1.00  0.00     0.317 C
HETATM   10  O2  UNL     1      23.920   6.256  30.400  1.00  0.00    -0.257 OA
BRANCH   9  11
HETATM   11  C3  UNL     1      25.453   7.939  30.913  1.00  0.00     0.065 A
HETATM   12  C4  UNL     1      26.028   8.889  31.728  1.00  0.00     0.044 A
HETATM   13  C5  UNL     1      26.775   9.714  30.922  1.00  0.00     0.142 A
HETATM   14  O3  UNL     1      26.660   9.291  29.702  1.00  0.00    -0.334 OA
HETATM   15  C6  UNL     1      25.883   8.236  29.635  1.00  0.00     0.159 A
ENDBRANCH   9  11
ENDBRANCH   1   9
TORSDOF 3
ENDMDL