MODEL 2
REMARK VINA RESULT: -3.921169285      1.276      1.294
REMARK  3 active torsions:
REMARK  status: ('A' for Active; 'I' for Inactive)
REMARK    1  A    between atoms: C2_2  and  C3_3
REMARK    2  A    between atoms: C4_5  and  O2_6
REMARK    3  A    between atoms: O2_6  and  C5_7
REMARK       I    between atoms: C5_7  and  N1_9
REMARK       I    between atoms: N1_9  and  C6_11
ROOT
HETATM    1  C5  UNL     1      25.406   2.979  36.514  1.00  0.00     0.371 C
HETATM    2  O3  UNL     1      25.145   2.065  35.690  1.00  0.00    -0.238 OA
HETATM    3  N1  UNL     1      26.644   2.999  37.206  1.00  0.00    -0.277 N
ATOM      4  H1  UNL     1      26.848   3.742  37.873  1.00  0.00     0.173 HD
HETATM    5  C6  UNL     1      27.596   1.975  36.961  1.00  0.00     0.190 C
HETATM    6  N2  UNL     1      28.739   1.957  37.572  1.00  0.00    -0.373 N
ATOM      7  H21 UNL     1      29.424   1.221  37.396  1.00  0.00     0.158 HD
ATOM      8  H22 UNL     1      28.932   2.706  38.238  1.00  0.00     0.158 HD
HETATM    9  N3  UNL     1      27.327   0.931  36.034  1.00  0.00    -0.064 NA
ENDROOT
BRANCH   1  10
HETATM   10  O2  UNL     1      24.422   3.938  36.695  1.00  0.00    -0.273 OA
BRANCH  10  11
HETATM   11  C4  UNL     1      23.212   3.681  37.332  1.00  0.00     0.157 C
HETATM   12  C2  UNL     1      22.062   3.627  36.728  1.00  0.00    -0.002 C
HETATM   13  C1  UNL     1      21.957   3.846  35.259  1.00  0.00     0.053 C
BRANCH  12  14
HETATM   14  C3  UNL     1      20.849   3.354  37.471  1.00  0.00     0.267 C
HETATM   15  O1  UNL     1      20.513   4.119  38.402  1.00  0.00    -0.302 OA
ENDBRANCH  12  14
ENDBRANCH  10  11
ENDBRANCH   1  10
TORSDOF 3
ENDMDL