MODEL 5
REMARK VINA RESULT: -7.297487355      2.503      4.803
REMARK  15 active torsions:
REMARK  status: ('A' for Active; 'I' for Inactive)
REMARK    1  A    between atoms: N1_1  and  N2_4
REMARK    2  A    between atoms: N2_4  and  C1_6
REMARK    3  A    between atoms: C4_13  and  N5_14
REMARK    4  A    between atoms: C5_19  and  N8_20
REMARK    5  A    between atoms: C6_26  and  S1_27
REMARK    6  A    between atoms: S1_27  and  C7_28
REMARK    7  A    between atoms: C7_28  and  C8_29
REMARK    8  A    between atoms: C8_29  and  C9_30
REMARK    9  A    between atoms: C8_29  and  C10_33
REMARK   10  A    between atoms: C9_30  and  O1_31
REMARK   11  A    between atoms: C10_33  and  O2_34
REMARK   12  A    between atoms: C10_33  and  C11_36
REMARK   13  A    between atoms: C11_36  and  O3_37
REMARK   14  A    between atoms: O3_37  and  S2_38
REMARK   15  A    between atoms: C12_41  and  O6_42
ROOT
HETATM    1  N5  UNL     1     -13.318  12.434  -0.457  1.00  0.00    -0.213 N
HETATM    2  N6  UNL     1     -14.228  13.262  -1.059  1.00  0.00    -0.235 N
ATOM      3  H6  UNL     1     -14.170  13.480  -2.054  1.00  0.00     0.208 HD
HETATM    4  N7  UNL     1     -15.218  13.784  -0.274  1.00  0.00    -0.275 N
ATOM      5  H7  UNL     1     -15.799  14.547  -0.620  1.00  0.00     0.185 HD
HETATM    6  C5  UNL     1     -15.429  13.264   1.012  1.00  0.00     0.404 C
HETATM    7  N9  UNL     1     -14.502  12.303   1.507  1.00  0.00    -0.325 N
ATOM      8  H9  UNL     1     -14.656  11.929   2.443  1.00  0.00     0.165 HD
HETATM    9  C6  UNL     1     -13.483  11.878   0.846  1.00  0.00     0.166 C
ENDROOT
BRANCH   1  10
HETATM   10  C4  UNL     1     -12.123  12.119  -1.151  1.00  0.00     0.140 A
HETATM   11  C3  UNL     1     -12.009  11.192  -2.169  1.00  0.00     0.097 A
HETATM   12  N4  UNL     1     -12.879  10.365  -2.805  1.00  0.00    -0.348 N
HETATM   13  C13 UNL     1     -10.681  11.167  -2.577  1.00  0.00     0.109 A
HETATM   14  C2  UNL     1     -12.482   9.535  -3.808  1.00  0.00     0.182 A
ATOM     15  H4  UNL     1     -13.859  10.366  -2.522  1.00  0.00     0.167 HD
HETATM   16  N3  UNL     1     -11.199   9.525  -4.187  1.00  0.00    -0.336 N
HETATM   17  C1  UNL     1     -10.285  10.325  -3.592  1.00  0.00     0.150 A
ATOM     18  H3  UNL     1     -10.905   8.902  -4.939  1.00  0.00     0.168 HD
HETATM   19  N10 UNL     1     -10.020  12.063  -1.814  1.00  0.00    -0.330 N
HETATM   20  C12 UNL     1     -10.880  12.652  -0.942  1.00  0.00     0.172 A
ATOM     21  H10 UNL     1      -9.023  12.268  -1.882  1.00  0.00     0.168 HD
BRANCH  17  22
HETATM   22  N2  UNL     1      -9.069  10.299  -3.968  1.00  0.00    -0.290 N
ATOM     23  H2  UNL     1      -8.357  10.560  -3.286  1.00  0.00     0.188 HD
BRANCH  22  24
HETATM   24  N1  UNL     1      -8.642   9.942  -5.237  1.00  0.00    -0.344 N
ATOM     25  H12 UNL     1      -9.277   9.362  -5.785  1.00  0.00     0.176 HD
ATOM     26  H11 UNL     1      -7.750  10.216  -5.648  1.00  0.00     0.176 HD
ENDBRANCH  22  24
ENDBRANCH  17  22
BRANCH  20  27
HETATM   27  O6  UNL     1     -10.499  13.623  -0.020  1.00  0.00    -0.344 OA
ATOM     28  H6  UNL     1      -9.781  14.243  -0.077  1.00  0.00     0.219 HD
ENDBRANCH  20  27
ENDBRANCH   1  10
BRANCH   9  29
HETATM   29  S1  UNL     1     -12.317  10.673   1.440  1.00  0.00    -0.092 SA
BRANCH  29  30
HETATM   30  C7  UNL     1     -13.165   9.086   1.632  1.00  0.00     0.091 C
BRANCH  30  31
HETATM   31  C8  UNL     1     -13.761   8.880   2.974  1.00  0.00     0.050 C
BRANCH  31  32
HETATM   32  C9  UNL     1     -13.256   9.981   3.882  1.00  0.00     0.172 C
BRANCH  32  33
HETATM   33  O1  UNL     1     -14.240  10.408   4.792  1.00  0.00    -0.400 OA
ATOM     34  H1  UNL     1     -14.655  11.217   4.515  1.00  0.00     0.209 HD
ENDBRANCH  32  33
ENDBRANCH  31  32
BRANCH  31  35
HETATM   35  C10 UNL     1     -15.237   8.741   2.941  1.00  0.00     0.150 C
BRANCH  35  36
HETATM   36  O2  UNL     1     -15.742   9.831   2.161  1.00  0.00    -0.393 OA
ATOM     37  H2  UNL     1     -16.690   9.791   2.209  1.00  0.00     0.210 HD
ENDBRANCH  35  36
BRANCH  35  38
HETATM   38  C11 UNL     1     -15.797   7.463   2.431  1.00  0.00     0.223 C
BRANCH  38  39
HETATM   39  O3  UNL     1     -16.175   7.495   1.100  1.00  0.00    -0.260 OA
BRANCH  39  40
HETATM   40  S2  UNL     1     -15.674   6.129   0.269  1.00  0.00     0.401 S
HETATM   41  O4  UNL     1     -16.764   5.070   0.274  1.00  0.00    -0.179 OA
HETATM   42  O5  UNL     1     -15.429   6.511  -1.158  1.00  0.00    -0.179 OA
ENDBRANCH  39  40
ENDBRANCH  38  39
ENDBRANCH  35  38
ENDBRANCH  31  35
ENDBRANCH  30  31
ENDBRANCH  29  30
ENDBRANCH   9  29
BRANCH   6  43
HETATM   43  N8  UNL     1     -16.768  12.668   1.139  1.00  0.00    -0.039 N
ATOM     44  H83 UNL     1     -17.032  12.550   2.117  1.00  0.00     0.279 HD
ATOM     45  H82 UNL     1     -17.496  13.323   0.857  1.00  0.00     0.279 HD
ATOM     46  H81 UNL     1     -16.836  11.789   0.625  1.00  0.00     0.279 HD
ENDBRANCH   6  43
TORSDOF 15
ENDMDL