MODEL 5
REMARK VINA RESULT: -7.125551457      2.335      4.345
REMARK  12 active torsions:
REMARK  status: ('A' for Active; 'I' for Inactive)
REMARK       I    between atoms: C2_2  and  N1_4
REMARK    1  A    between atoms: N1_4  and  C3_6
REMARK    2  A    between atoms: C3_6  and  C4_7
REMARK    3  A    between atoms: C3_6  and  C15_40
REMARK    4  A    between atoms: C4_7  and  N2_8
REMARK    5  A    between atoms: C5_9  and  N3_10
REMARK    6  A    between atoms: C6_15  and  C7_16
REMARK    7  A    between atoms: C7_16  and  C8_17
REMARK    8  A    between atoms: C10_20  and  N5_21
REMARK    9  A    between atoms: C13_29  and  N9_30
REMARK       I    between atoms: N9_30  and  C14_31
REMARK       I    between atoms: C14_31  and  N10_32
REMARK       I    between atoms: C14_31  and  N11_36
REMARK   10  A    between atoms: C15_40  and  C16_42
REMARK   11  A    between atoms: C16_42  and  O3_43
REMARK   12  A    between atoms: C16_42  and  O4_45
ROOT
HETATM    1  C8  UNL     1     -13.557  12.935  -2.130  1.00  0.00     0.042 A
HETATM    2  C9  UNL     1     -14.234  14.020  -1.642  1.00  0.00     0.080 A
HETATM    3  S1  UNL     1     -15.602  14.089  -2.651  1.00  0.00    -0.063 SA
HETATM    4  C10 UNL     1     -15.253  12.747  -3.634  1.00  0.00     0.158 A
HETATM    5  N6  UNL     1     -14.096  12.292  -3.155  1.00  0.00    -0.231 N
HETATM    6  C11 UNL     1     -13.512  11.124  -3.766  1.00  0.00     0.191 C
HETATM    7  N7  UNL     1     -13.026  10.182  -4.282  1.00  0.00    -0.171 NA
ENDROOT
BRANCH   1   8
HETATM    8  C7  UNL     1     -12.262  12.462  -1.501  1.00  0.00     0.118 C
BRANCH   8   9
HETATM    9  C6  UNL     1     -12.462  11.536  -0.387  1.00  0.00     0.061 A
HETATM   10  N4  UNL     1     -13.496  11.772   0.481  1.00  0.00    -0.193 N
HETATM   11  C5  UNL     1     -13.788  10.938   1.465  1.00  0.00     0.680 A
ATOM     12  H4  UNL     1     -14.057  12.615   0.364  1.00  0.00     0.184 HD
HETATM   13  N2  UNL     1     -13.111   9.784   1.725  1.00  0.00    -0.152 N
HETATM   14  C13 UNL     1     -12.053   9.475   0.904  1.00  0.00     0.220 A
HETATM   15  C12 UNL     1     -11.773  10.398  -0.148  1.00  0.00     0.128 A
HETATM   16  N8  UNL     1     -10.671  10.085  -0.995  1.00  0.00    -0.095 NA
BRANCH  11  17
HETATM   17  N3  UNL     1     -14.790  11.200   2.281  1.00  0.00    -0.234 N
ATOM     18  H32 UNL     1     -15.212  12.128   2.293  1.00  0.00     0.174 HD
ATOM     19  H31 UNL     1     -15.085  10.423   2.873  1.00  0.00     0.174 HD
ENDBRANCH  11  17
BRANCH  13  20
HETATM   20  C4  UNL     1     -13.477   8.981   2.836  1.00  0.00     0.183 C
BRANCH  20  21
HETATM   21  C3  UNL     1     -14.437   7.885   2.689  1.00  0.00     0.178 C
BRANCH  21  22
HETATM   22  N1  UNL     1     -13.980   7.136   1.457  1.00  0.00    -0.348 N
HETATM   23  C2  UNL     1     -13.913   5.742   1.429  1.00  0.00     0.214 C
HETATM   24  C1  UNL     1     -13.478   5.009   0.223  1.00  0.00     0.117 C
HETATM   25  O1  UNL     1     -14.237   5.088   2.467  1.00  0.00    -0.274 OA
ATOM     26  H1  UNL     1     -13.716   7.664   0.624  1.00  0.00     0.163 HD
ENDBRANCH  21  22
BRANCH  21  27
HETATM   27  C15 UNL     1     -15.849   8.047   2.487  1.00  0.00     0.205 C
HETATM   28  O2  UNL     1     -16.328   8.682   1.519  1.00  0.00    -0.290 OA
BRANCH  27  29
HETATM   29  C16 UNL     1     -16.882   7.476   3.384  1.00  0.00     0.327 C
BRANCH  29  30
HETATM   30  O3  UNL     1     -17.494   8.474   4.193  1.00  0.00    -0.365 OA
ATOM     31  H3  UNL     1     -17.045   8.581   5.024  1.00  0.00     0.213 HD
ENDBRANCH  29  30
BRANCH  29  32
HETATM   32  O4  UNL     1     -16.521   6.469   4.209  1.00  0.00    -0.365 OA
ATOM     33  H4  UNL     1     -16.407   5.603   3.834  1.00  0.00     0.213 HD
ENDBRANCH  29  32
ENDBRANCH  27  29
ENDBRANCH  21  27
ENDBRANCH  20  21
ENDBRANCH  13  20
BRANCH  14  34
HETATM   34  N9  UNL     1     -11.323   8.537   1.076  1.00  0.00    -0.369 NA
HETATM   35  C14 UNL     1     -10.509   7.506   1.265  1.00  0.00     0.556 C
HETATM   36  N10 UNL     1      -9.499   7.592   2.354  1.00  0.00    -0.021 N
HETATM   37  N11 UNL     1      -9.684   7.115   0.088  1.00  0.00    -0.021 N
ATOM     38 3H10 UNL     1      -8.942   8.437   2.224  1.00  0.00     0.280 HD
ATOM     39 2H10 UNL     1      -9.974   7.805   3.231  1.00  0.00     0.280 HD
ATOM     40 1H10 UNL     1      -8.873   6.800   2.499  1.00  0.00     0.280 HD
ATOM     41 3H11 UNL     1     -10.285   6.941  -0.717  1.00  0.00     0.280 HD
ATOM     42 2H11 UNL     1      -9.156   7.920  -0.250  1.00  0.00     0.280 HD
ATOM     43 1H11 UNL     1      -9.058   6.323   0.233  1.00  0.00     0.280 HD
ENDBRANCH  14  34
ENDBRANCH   8   9
ENDBRANCH   1   8
BRANCH   4  44
HETATM   44  N5  UNL     1     -15.961  12.246  -4.633  1.00  0.00    -0.379 N
ATOM     45  H52 UNL     1     -15.690  11.493  -5.265  1.00  0.00     0.158 HD
ATOM     46  H51 UNL     1     -16.897  12.504  -4.946  1.00  0.00     0.158 HD
ENDBRANCH   4  44
TORSDOF 12
ENDMDL