MODEL 2
REMARK VINA RESULT: -7.040691152      2.801      7.651
REMARK  15 active torsions:
REMARK  status: ('A' for Active; 'I' for Inactive)
REMARK    1  A    between atoms: C2_2  and  N1_5
REMARK    2  A    between atoms: C5_12  and  C6_13
REMARK    3  A    between atoms: C6_13  and  N6_17
REMARK    4  A    between atoms: N6_17  and  C7_18
REMARK    5  A    between atoms: C8_21  and  N8_22
REMARK    6  A    between atoms: C10_29  and  N11_30
REMARK    7  A    between atoms: N12_32  and  O1_34
REMARK    8  A    between atoms: O1_34  and  C11_35
REMARK    9  A    between atoms: C11_35  and  C12_36
REMARK   10  A    between atoms: C11_35  and  C13_39
REMARK   11  A    between atoms: C12_36  and  O2_37
REMARK   12  A    between atoms: C13_39  and  N13_40
REMARK   13  A    between atoms: C13_39  and  C14_44
REMARK   14  A    between atoms: C14_44  and  O3_45
REMARK   15  A    between atoms: C14_44  and  O4_47
ROOT
HETATM    1  C7  UNL     1     -10.861   6.068   1.269  1.00  0.00     0.227 A
HETATM    2  N7  UNL     1      -9.644   6.165   1.892  1.00  0.00    -0.162 N
ATOM      3  H7  UNL     1      -9.123   7.032   1.761  1.00  0.00     0.187 HD
HETATM    4  C8  UNL     1      -9.086   5.240   2.645  1.00  0.00     0.679 A
HETATM    5  N9  UNL     1      -9.768   4.095   2.820  1.00  0.00    -0.177 N
ATOM      6  H9  UNL     1      -9.359   3.361   3.399  1.00  0.00     0.185 HD
HETATM    7  C9  UNL     1     -10.974   3.882   2.257  1.00  0.00     0.165 A
HETATM    8  N10 UNL     1     -11.681   2.653   2.463  1.00  0.00    -0.079 NA
HETATM    9  C10 UNL     1     -11.562   4.845   1.470  1.00  0.00     0.150 A
ENDROOT
BRANCH   1  10
HETATM   10  N6  UNL     1     -11.330   6.903   0.605  1.00  0.00    -0.364 NA
BRANCH  10  11
HETATM   11  C6  UNL     1     -11.848   7.841  -0.138  1.00  0.00     0.209 C
HETATM   12  N5  UNL     1     -12.794   7.608  -1.059  1.00  0.00    -0.372 N
ATOM     13  H52 UNL     1     -13.199   8.341  -1.640  1.00  0.00     0.158 HD
ATOM     14  H51 UNL     1     -13.047   6.621  -1.101  1.00  0.00     0.158 HD
BRANCH  11  15
HETATM   15  C5  UNL     1     -11.482   9.268  -0.076  1.00  0.00     0.177 A
HETATM   16  N4  UNL     1     -10.322   9.750  -0.602  1.00  0.00    -0.276 N
HETATM   17  N3  UNL     1     -10.036  11.015  -0.502  1.00  0.00    -0.227 N
ATOM     18  H4  UNL     1      -9.678   9.118  -1.076  1.00  0.00     0.189 HD
HETATM   19  N2  UNL     1     -10.822  11.898   0.096  1.00  0.00    -0.222 N
ATOM     20  H3  UNL     1      -9.159  11.344  -0.905  1.00  0.00     0.210 HD
HETATM   21  N1  UNL     1     -11.954  11.516   0.626  1.00  0.00    -0.231 N
ATOM     22  H2  UNL     1     -10.542  12.878   0.144  1.00  0.00     0.210 HD
HETATM   23  C15 UNL     1     -12.286  10.189   0.539  1.00  0.00     0.297 A
HETATM   24  O5  UNL     1     -13.375   9.808   1.048  1.00  0.00    -0.264 OA
BRANCH  21  25
HETATM   25  C2  UNL     1     -12.897  12.393   1.298  1.00  0.00     0.048 C
HETATM   26  C1  UNL     1     -14.173  12.405   0.509  1.00  0.00     0.040 C
HETATM   27  C3  UNL     1     -12.290  13.804   1.266  1.00  0.00     0.040 C
HETATM   28  C4  UNL     1     -13.124  12.025   2.735  1.00  0.00     0.040 C
ENDBRANCH  21  25
ENDBRANCH  11  15
ENDBRANCH  10  11
ENDBRANCH   1  10
BRANCH   9  29
HETATM   29  N11 UNL     1     -12.809   4.650   0.888  1.00  0.00    -0.274 N
HETATM   30  N12 UNL     1     -13.944   5.031   1.049  1.00  0.00    -0.206 N
ATOM     31  H12 UNL     1     -14.675   4.689   0.426  1.00  0.00     0.216 HD
ATOM     32  H11 UNL     1     -12.749   4.001   0.103  1.00  0.00     0.189 HD
BRANCH  30  33
HETATM   33  O1  UNL     1     -14.278   5.917   2.054  1.00  0.00    -0.255 OA
BRANCH  33  34
HETATM   34  C11 UNL     1     -15.032   7.111   1.837  1.00  0.00     0.212 C
BRANCH  34  35
HETATM   35  C12 UNL     1     -16.168   6.868   0.886  1.00  0.00     0.201 C
BRANCH  35  36
HETATM   36  O2  UNL     1     -15.703   6.899  -0.427  1.00  0.00    -0.398 OA
ATOM     37  H2  UNL     1     -16.381   6.592  -1.018  1.00  0.00     0.209 HD
ENDBRANCH  35  36
ENDBRANCH  34  35
BRANCH  34  38
HETATM   38  C13 UNL     1     -15.425   7.595   3.190  1.00  0.00     0.271 C
BRANCH  38  39
HETATM   39  N13 UNL     1     -15.127   9.033   3.212  1.00  0.00    -0.068 N
ATOM     40 3H13 UNL     1     -15.469   9.531   2.390  1.00  0.00     0.275 HD
ATOM     41 2H13 UNL     1     -15.669   9.549   3.905  1.00  0.00     0.275 HD
ATOM     42 1H13 UNL     1     -14.118   9.111   3.344  1.00  0.00     0.275 HD
ENDBRANCH  38  39
BRANCH  38  43
HETATM   43  C14 UNL     1     -16.808   7.314   3.642  1.00  0.00     0.287 C
BRANCH  43  44
HETATM   44  O3  UNL     1     -16.967   6.236   4.481  1.00  0.00    -0.369 OA
ATOM     45  H3  UNL     1     -17.711   6.268   5.070  1.00  0.00     0.212 HD
ENDBRANCH  43  44
BRANCH  43  46
HETATM   46  O4  UNL     1     -17.511   8.462   4.051  1.00  0.00    -0.369 OA
ATOM     47  H4  UNL     1     -18.424   8.463   3.788  1.00  0.00     0.212 HD
ENDBRANCH  43  46
ENDBRANCH  38  43
ENDBRANCH  34  38
ENDBRANCH  33  34
ENDBRANCH  30  33
ENDBRANCH   9  29
BRANCH   4  48
HETATM   48  N8  UNL     1      -7.917   5.371   3.218  1.00  0.00    -0.234 N
ATOM     49  H82 UNL     1      -7.225   5.986   2.790  1.00  0.00     0.174 HD
ATOM     50  H81 UNL     1      -7.648   4.897   4.081  1.00  0.00     0.174 HD
ENDBRANCH   4  48
TORSDOF 15
ENDMDL