MODEL 5
REMARK VINA RESULT: -7.559742961      3.237      7.745
REMARK  15 active torsions:
REMARK  status: ('A' for Active; 'I' for Inactive)
REMARK       I    between atoms: N1_1  and  C1_5
REMARK       I    between atoms: C1_5  and  N2_6
REMARK       I    between atoms: C1_5  and  N3_10
REMARK    1  A    between atoms: N3_10  and  C2_12
REMARK    2  A    between atoms: C4_14  and  C5_15
REMARK    3  A    between atoms: C5_15  and  O1_16
REMARK    4  A    between atoms: C5_15  and  N4_18
REMARK    5  A    between atoms: N4_18  and  C6_21
REMARK    6  A    between atoms: C6_21  and  C7_22
REMARK    7  A    between atoms: C6_21  and  C8_25
REMARK    8  A    between atoms: C7_22  and  O2_23
REMARK    9  A    between atoms: C8_25  and  O3_26
REMARK   10  A    between atoms: C9_30  and  N6_31
REMARK   11  A    between atoms: C13_37  and  C14_38
REMARK   12  A    between atoms: C14_38  and  O4_39
REMARK   13  A    between atoms: C14_38  and  O5_41
REMARK   14  A    between atoms: C17_46  and  O6_47
REMARK   15  A    between atoms: C18_49  and  O7_50
ROOT
HETATM    1  C2  UNL     1      -9.351   8.726  -2.737  1.00  0.00     0.069 C
HETATM    2  C3  UNL     1     -10.571   8.059  -2.493  1.00  0.00     0.061 C
HETATM    3  C4  UNL     1     -11.642   8.422  -1.716  1.00  0.00     0.069 C
HETATM    4  N5  UNL     1     -11.978   9.678  -1.367  1.00  0.00    -0.339 N
ATOM      5  H5  UNL     1     -12.975   9.891  -1.368  1.00  0.00     0.167 HD
HETATM    6  C9  UNL     1     -11.140  10.708  -1.010  1.00  0.00     0.152 C
HETATM    7  C17 UNL     1      -9.831  10.809  -1.448  1.00  0.00     0.146 C
HETATM    8  C18 UNL     1      -9.113  10.037  -2.342  1.00  0.00     0.129 C
ENDROOT
BRANCH   6   9
HETATM    9  N6  UNL     1     -11.692  11.641  -0.186  1.00  0.00    -0.265 N
HETATM   10  C10 UNL     1     -12.012  13.076  -0.214  1.00  0.00     0.195 A
HETATM   11  N7  UNL     1     -12.652  13.686   0.882  1.00  0.00    -0.330 N
HETATM   12  C11 UNL     1     -12.974  12.893   1.991  1.00  0.00     0.163 A
ATOM     13  H7  UNL     1     -12.876  14.680   0.868  1.00  0.00     0.169 HD
HETATM   14  C12 UNL     1     -13.308  12.091   3.133  1.00  0.00     0.132 A
HETATM   15  N8  UNL     1     -12.530  11.944   1.502  1.00  0.00    -0.373 NA
HETATM   16  C13 UNL     1     -12.977  10.675   3.128  1.00  0.00    -0.013 A
HETATM   17  C15 UNL     1     -12.316  10.090   1.978  1.00  0.00     0.073 A
HETATM   18  C16 UNL     1     -12.083  10.997   1.004  1.00  0.00     0.190 A
BRANCH  16  19
HETATM   19  C14 UNL     1     -13.266   9.822   4.264  1.00  0.00     0.285 C
BRANCH  19  20
HETATM   20  O4  UNL     1     -13.857   8.625   3.832  1.00  0.00    -0.367 OA
ATOM     21  H4  UNL     1     -13.956   8.631   2.888  1.00  0.00     0.213 HD
ENDBRANCH  19  20
BRANCH  19  22
HETATM   22  O5  UNL     1     -14.075  10.470   5.173  1.00  0.00    -0.367 OA
ATOM     23  H5  UNL     1     -13.965  10.107   6.044  1.00  0.00     0.213 HD
ENDBRANCH  19  22
ENDBRANCH  16  19
ENDBRANCH   6   9
BRANCH   7  24
HETATM   24  O6  UNL     1      -9.153  11.873  -0.872  1.00  0.00    -0.355 OA
ATOM     25  H6  UNL     1      -9.033  11.769   0.064  1.00  0.00     0.218 HD
ENDBRANCH   7  24
BRANCH   3  26
HETATM   26  C5  UNL     1     -12.462   7.262  -1.257  1.00  0.00     0.370 C
BRANCH  26  27
HETATM   27  O1  UNL     1     -13.304   6.919  -2.322  1.00  0.00    -0.365 OA
ATOM     28  H1  UNL     1     -13.318   7.665  -2.911  1.00  0.00     0.212 HD
ENDBRANCH  26  27
BRANCH  26  29
HETATM   29  N4  UNL     1     -13.244   7.518  -0.104  1.00  0.00    -0.035 N
ATOM     30  H42 UNL     1     -12.658   7.781   0.689  1.00  0.00     0.281 HD
ATOM     31  H41 UNL     1     -13.778   8.381  -0.203  1.00  0.00     0.281 HD
BRANCH  29  32
HETATM   32  C6  UNL     1     -14.093   6.417   0.221  1.00  0.00     0.236 C
BRANCH  32  33
HETATM   33  C7  UNL     1     -15.558   6.671   0.280  1.00  0.00     0.199 C
BRANCH  33  34
HETATM   34  O2  UNL     1     -16.050   6.482  -1.047  1.00  0.00    -0.399 OA
ATOM     35  H2  UNL     1     -16.945   6.801  -1.047  1.00  0.00     0.209 HD
ENDBRANCH  33  34
ENDBRANCH  32  33
BRANCH  32  36
HETATM   36  C8  UNL     1     -13.601   5.823   1.530  1.00  0.00     0.199 C
BRANCH  36  37
HETATM   37  O3  UNL     1     -14.485   6.076   2.553  1.00  0.00    -0.399 OA
ATOM     38  H3  UNL     1     -14.245   6.863   3.027  1.00  0.00     0.209 HD
ENDBRANCH  36  37
ENDBRANCH  32  36
ENDBRANCH  29  32
ENDBRANCH  26  29
ENDBRANCH   3  26
BRANCH   8  39
HETATM   39  O7  UNL     1      -8.022  10.586  -2.938  1.00  0.00    -0.356 OA
ATOM     40  H7  UNL     1      -7.256  10.025  -2.906  1.00  0.00     0.218 HD
ENDBRANCH   8  39
BRANCH   1  41
HETATM   41  N3  UNL     1      -8.475   8.099  -3.342  1.00  0.00    -0.339 N
HETATM   42  C1  UNL     1      -7.475   7.162  -3.139  1.00  0.00     0.480 C
HETATM   43  N1  UNL     1      -7.096   6.447  -4.378  1.00  0.00    -0.033 N
HETATM   44  N2  UNL     1      -6.240   7.878  -2.769  1.00  0.00    -0.033 N
ATOM     45  H13 UNL     1      -6.715   7.044  -5.112  1.00  0.00     0.278 HD
ATOM     46  H12 UNL     1      -6.272   5.852  -4.289  1.00  0.00     0.278 HD
ATOM     47  H11 UNL     1      -7.951   5.952  -4.634  1.00  0.00     0.278 HD
ATOM     48  H23 UNL     1      -5.416   7.284  -2.680  1.00  0.00     0.278 HD
ATOM     49  H22 UNL     1      -5.859   8.476  -3.503  1.00  0.00     0.278 HD
ATOM     50  H21 UNL     1      -6.501   8.371  -1.915  1.00  0.00     0.278 HD
ATOM     51  H3  UNL     1      -8.495   8.362  -4.327  1.00  0.00     0.163 HD
ENDBRANCH   1  41
TORSDOF 15
ENDMDL