MODEL 5
REMARK VINA RESULT: -7.384790429      1.265      2.043
REMARK  14 active torsions:
REMARK  status: ('A' for Active; 'I' for Inactive)
REMARK    1  A    between atoms: C5_9  and  O1_11
REMARK    2  A    between atoms: C7_17  and  C8_18
REMARK    3  A    between atoms: C8_18  and  O2_19
REMARK    4  A    between atoms: C8_18  and  N6_21
REMARK    5  A    between atoms: N6_21  and  O3_22
REMARK    6  A    between atoms: C9_24  and  N7_25
REMARK    7  A    between atoms: N7_25  and  C10_27
REMARK    8  A    between atoms: C10_27  and  C11_29
REMARK    9  A    between atoms: C13_33  and  N10_34
REMARK   10  A    between atoms: N10_34  and  C15_36
REMARK   11  A    between atoms: C15_36  and  C16_37
REMARK   12  A    between atoms: C16_37  and  O4_38
REMARK   13  A    between atoms: C16_37  and  C17_40
REMARK   14  A    between atoms: C17_40  and  O5_41
ROOT
HETATM    1  C1  UNL     1     -10.822   8.747   1.450  1.00  0.00     0.147 C
HETATM    2  N1  UNL     1     -12.135   8.194   1.712  1.00  0.00    -0.379 N
ATOM      3  H1  UNL     1     -12.242   7.197   1.905  1.00  0.00     0.160 HD
HETATM    4  C2  UNL     1     -13.172   8.968   1.702  1.00  0.00     0.132 A
HETATM    5  N2  UNL     1     -13.010  10.300   1.444  1.00  0.00    -0.325 N
ATOM      6  H2  UNL     1     -12.075  10.669   1.274  1.00  0.00     0.169 HD
HETATM    7  C3  UNL     1     -14.062  11.126   1.411  1.00  0.00     0.144 A
HETATM    8  C4  UNL     1     -14.195  12.502   1.180  1.00  0.00     0.074 A
HETATM    9  C5  UNL     1     -13.189  13.315   0.924  1.00  0.00     0.165 C
HETATM   10  N3  UNL     1     -11.857  12.843   0.861  1.00  0.00    -0.074 NA
HETATM   11  C6  UNL     1     -15.532  12.818   1.272  1.00  0.00     0.127 A
HETATM   12  N4  UNL     1     -16.156  11.663   1.546  1.00  0.00    -0.302 N
ATOM     13  H4  UNL     1     -17.164  11.568   1.674  1.00  0.00     0.186 HD
HETATM   14  N5  UNL     1     -15.279  10.646   1.631  1.00  0.00    -0.237 N
HETATM   15  C7  UNL     1     -15.511   9.313   1.896  1.00  0.00     0.113 A
HETATM   16  C9  UNL     1     -14.430   8.475   1.931  1.00  0.00     0.107 A
ENDROOT
BRANCH  16  17
HETATM   17  N7  UNL     1     -14.586   7.090   2.229  1.00  0.00    -0.338 N
ATOM     18  H7  UNL     1     -14.829   6.842   3.188  1.00  0.00     0.167 HD
BRANCH  17  19
HETATM   19  C10 UNL     1     -14.430   6.019   1.290  1.00  0.00     0.152 C
HETATM   20  N8  UNL     1     -15.677   5.575   0.693  1.00  0.00    -0.080 NA
BRANCH  19  21
HETATM   21  C11 UNL     1     -13.507   4.939   1.643  1.00  0.00     0.135 A
HETATM   22  C12 UNL     1     -13.924   3.680   2.022  1.00  0.00     0.132 A
HETATM   23  N9  UNL     1     -12.850   2.926   2.274  1.00  0.00    -0.329 N
HETATM   24  C13 UNL     1     -11.775   3.699   2.056  1.00  0.00     0.226 A
ATOM     25  H9  UNL     1     -12.847   1.951   2.574  1.00  0.00     0.168 HD
HETATM   26  O6  UNL     1     -12.196   4.886   1.684  1.00  0.00    -0.275 OA
BRANCH  24  27
HETATM   27  N10 UNL     1     -10.412   3.332   2.195  1.00  0.00    -0.349 N
HETATM   28  C14 UNL     1      -9.528   4.217   2.918  1.00  0.00     0.153 C
BRANCH  27  29
HETATM   29  C15 UNL     1      -9.905   2.107   1.636  1.00  0.00     0.159 C
BRANCH  29  30
HETATM   30  C16 UNL     1      -9.585   1.079   2.683  1.00  0.00     0.159 C
BRANCH  30  31
HETATM   31  O4  UNL     1      -8.336   0.512   2.471  1.00  0.00    -0.392 OA
ATOM     32  H4  UNL     1      -7.745   1.124   2.048  1.00  0.00     0.210 HD
ENDBRANCH  30  31
BRANCH  30  33
HETATM   33  C17 UNL     1     -10.645  -0.012   2.709  1.00  0.00     0.197 C
BRANCH  33  34
HETATM   34  O5  UNL     1     -11.702   0.386   3.537  1.00  0.00    -0.398 OA
ATOM     35  H5  UNL     1     -11.556   0.055   4.415  1.00  0.00     0.209 HD
ENDBRANCH  33  34
ENDBRANCH  30  33
ENDBRANCH  29  30
ENDBRANCH  27  29
ENDBRANCH  24  27
ENDBRANCH  19  21
ENDBRANCH  17  19
ENDBRANCH  16  17
BRANCH  15  36
HETATM   36  C8  UNL     1     -16.928   8.948   2.029  1.00  0.00     0.293 C
BRANCH  36  37
HETATM   37  O2  UNL     1     -17.237   8.120   0.901  1.00  0.00    -0.372 OA
ATOM     38  H2  UNL     1     -17.363   8.708   0.165  1.00  0.00     0.212 HD
ENDBRANCH  36  37
BRANCH  36  39
HETATM   39  N6  UNL     1     -17.261   8.096   3.155  1.00  0.00    -0.065 NA
BRANCH  39  40
HETATM   40  O3  UNL     1     -17.549   6.819   2.658  1.00  0.00    -0.293 OA
ATOM     41  H3  UNL     1     -18.431   6.593   2.930  1.00  0.00     0.238 HD
ENDBRANCH  39  40
ENDBRANCH  36  39
ENDBRANCH  15  36
BRANCH   9  42
HETATM   42  O1  UNL     1     -13.420  14.664   0.709  1.00  0.00    -0.348 OA
ATOM     43  H1  UNL     1     -12.940  15.130   0.034  1.00  0.00     0.219 HD
ENDBRANCH   9  42
TORSDOF 14
ENDMDL