MODEL 2
REMARK VINA RESULT: -8.495815144      2.086      5.214
REMARK  12 active torsions:
REMARK  status: ('A' for Active; 'I' for Inactive)
REMARK    1  A    between atoms: N1_2  and  C2_4
REMARK    2  A    between atoms: C2_4  and  O1_5
REMARK    3  A    between atoms: C2_4  and  N2_7
REMARK    4  A    between atoms: N2_7  and  C3_9
REMARK    5  A    between atoms: C4_10  and  C5_11
REMARK    6  A    between atoms: C5_11  and  O2_12
REMARK    7  A    between atoms: C5_11  and  N3_14
REMARK    8  A    between atoms: N3_14  and  C6_16
REMARK    9  A    between atoms: N6_23  and  O4_24
REMARK   10  A    between atoms: C9_29  and  N8_30
REMARK   11  A    between atoms: N8_30  and  C10_32
REMARK   12  A    between atoms: C13_37  and  N10_38
ROOT
HETATM    1  C6  UNL     1     -13.316   9.178   1.801  1.00  0.00     0.154 A
HETATM    2  N4  UNL     1     -14.075   8.118   1.501  1.00  0.00    -0.321 N
ATOM      3  H4  UNL     1     -13.608   7.237   1.286  1.00  0.00     0.169 HD
HETATM    4  C7  UNL     1     -15.434   8.147   1.469  1.00  0.00     0.178 A
HETATM    5  N5  UNL     1     -16.378   7.260   1.193  1.00  0.00    -0.219 N
ATOM      6  H5  UNL     1     -16.231   6.285   0.932  1.00  0.00     0.198 HD
HETATM    7  O3  UNL     1     -17.527   7.860   1.315  1.00  0.00    -0.125 OA
HETATM    8  N6  UNL     1     -17.341   9.109   1.661  1.00  0.00    -0.081 N
HETATM    9  C8  UNL     1     -16.026   9.335   1.773  1.00  0.00     0.208 A
HETATM   10  N7  UNL     1     -15.249  10.381   2.070  1.00  0.00    -0.319 N
ATOM     11  H7  UNL     1     -15.730  11.254   2.288  1.00  0.00     0.169 HD
HETATM   12  C9  UNL     1     -13.924  10.415   2.113  1.00  0.00     0.152 A
ENDROOT
BRANCH   1  13
HETATM   13  N3  UNL     1     -11.913   9.019   1.870  1.00  0.00    -0.318 N
ATOM     14  H3  UNL     1     -11.383   9.251   2.710  1.00  0.00     0.169 HD
BRANCH  13  15
HETATM   15  C5  UNL     1     -11.281   8.512   0.691  1.00  0.00     0.174 C
BRANCH  15  16
HETATM   16  C4  UNL     1     -10.408   9.358  -0.118  1.00  0.00     0.146 A
HETATM   17  C3  UNL     1     -10.312   9.326  -1.543  1.00  0.00     0.155 A
HETATM   18  N14 UNL     1      -9.460  10.305  -1.889  1.00  0.00    -0.265 N
HETATM   19  N13 UNL     1      -9.034  10.911  -0.771  1.00  0.00    -0.239 N
HETATM   20  C15 UNL     1      -9.071  10.749  -3.244  1.00  0.00     0.181 C
HETATM   21  N12 UNL     1      -9.597  10.346   0.269  1.00  0.00    -0.279 N
ATOM     22  H13 UNL     1      -8.376  11.689  -0.736  1.00  0.00     0.208 HD
ATOM     23  H12 UNL     1      -9.438  10.623   1.238  1.00  0.00     0.189 HD
BRANCH  17  24
HETATM   24  N2  UNL     1     -10.937   8.478  -2.197  1.00  0.00    -0.331 N
ATOM     25  H2  UNL     1     -10.416   7.605  -2.276  1.00  0.00     0.165 HD
BRANCH  24  26
HETATM   26  C2  UNL     1     -12.165   8.406  -2.850  1.00  0.00     0.323 C
BRANCH  26  27
HETATM   27  N1  UNL     1     -12.866   9.679  -2.927  1.00  0.00    -0.385 N
HETATM   28  C1  UNL     1     -12.861  10.305  -4.183  1.00  0.00     0.144 C
ATOM     29  H1  UNL     1     -13.332  10.091  -2.118  1.00  0.00     0.157 HD
ENDBRANCH  26  27
BRANCH  26  30
HETATM   30  O1  UNL     1     -13.081   7.573  -2.120  1.00  0.00    -0.360 OA
ATOM     31  H1  UNL     1     -12.649   6.727  -2.119  1.00  0.00     0.214 HD
ENDBRANCH  26  30
ENDBRANCH  24  26
ENDBRANCH  17  24
ENDBRANCH  15  16
BRANCH  15  32
HETATM   32  O2  UNL     1     -11.234   7.162   0.494  1.00  0.00    -0.344 OA
ATOM     33  H2  UNL     1     -10.659   6.646   1.048  1.00  0.00     0.219 HD
ENDBRANCH  15  32
ENDBRANCH  13  15
ENDBRANCH   1  13
BRANCH  12  34
HETATM   34  N8  UNL     1     -13.064  11.474   2.357  1.00  0.00    -0.348 N
ATOM     35  H8  UNL     1     -12.672  11.496   3.298  1.00  0.00     0.167 HD
BRANCH  34  36
HETATM   36  C10 UNL     1     -12.632  12.552   1.501  1.00  0.00     0.108 C
HETATM   37  C11 UNL     1     -13.500  12.969   0.449  1.00  0.00     0.064 A
HETATM   38  C12 UNL     1     -14.694  13.605   0.564  1.00  0.00     0.124 A
HETATM   39  C14 UNL     1     -13.011  12.789  -0.871  1.00  0.00     0.272 A
HETATM   40  N9  UNL     1     -15.363  14.030  -0.537  1.00  0.00    -0.201 N
HETATM   41  C13 UNL     1     -14.903  13.854  -1.775  1.00  0.00     0.678 A
ATOM     42  H9  UNL     1     -16.258  14.504  -0.412  1.00  0.00     0.183 HD
HETATM   43  N11 UNL     1     -13.713  13.229  -1.916  1.00  0.00    -0.156 N
ATOM     44  H11 UNL     1     -13.339  13.089  -2.855  1.00  0.00     0.187 HD
HETATM   45  O5  UNL     1     -11.918  12.220  -1.058  1.00  0.00    -0.267 OA
BRANCH  41  46
HETATM   46  N10 UNL     1     -15.537  14.243  -2.820  1.00  0.00    -0.234 N
ATOM     47 2H10 UNL     1     -16.557  14.207  -2.829  1.00  0.00     0.174 HD
ATOM     48 1H10 UNL     1     -15.071  14.597  -3.655  1.00  0.00     0.174 HD
ENDBRANCH  41  46
ENDBRANCH  34  36
ENDBRANCH  12  34
BRANCH   8  49
HETATM   49  O4  UNL     1     -18.329  10.051   1.881  1.00  0.00    -0.260 OA
ATOM     50  H4  UNL     1     -18.253  10.828   2.423  1.00  0.00     0.247 HD
ENDBRANCH   8  49
TORSDOF 12
ENDMDL