MODEL 1
REMARK VINA RESULT: -7.591135196      0.000      0.000
REMARK  13 active torsions:
REMARK  status: ('A' for Active; 'I' for Inactive)
REMARK    1  A    between atoms: N7_23  and  C8_25
REMARK    2  A    between atoms: C8_25  and  O2_26
REMARK    3  A    between atoms: C8_25  and  C9_28
REMARK    4  A    between atoms: C11_30  and  O3_31
REMARK    5  A    between atoms: N8_33  and  C12_34
REMARK    6  A    between atoms: C12_34  and  C13_35
REMARK    7  A    between atoms: C13_35  and  N9_36
REMARK    8  A    between atoms: N9_36  and  C14_39
REMARK    9  A    between atoms: C14_39  and  C15_40
REMARK   10  A    between atoms: C15_40  and  N10_41
REMARK   11  A    between atoms: N10_41  and  C16_44
REMARK   12  A    between atoms: C16_44  and  N11_45
REMARK   13  A    between atoms: C16_44  and  O4_49
ROOT
HETATM    1  C8  UNL     1     -12.484  13.736   1.261  1.00  0.00     0.287 C
ENDROOT
BRANCH   1   2
HETATM    2  N7  UNL     1     -11.355  13.295   0.556  1.00  0.00    -0.194 N
HETATM    3  C7  UNL     1     -11.311  12.565  -0.549  1.00  0.00     0.677 C
HETATM    4  N6  UNL     1     -12.542  12.179  -1.094  1.00  0.00    -0.225 N
HETATM    5  N13 UNL     1     -10.012  12.292  -1.003  1.00  0.00    -0.180 N
HETATM    6  C6  UNL     1     -12.986  12.351  -2.491  1.00  0.00     0.165 C
ATOM      7  H6  UNL     1     -13.202  11.732  -0.457  1.00  0.00     0.177 HD
HETATM    8  C5  UNL     1     -12.450  11.194  -3.288  1.00  0.00     0.253 C
HETATM    9  N5  UNL     1     -13.125  10.838  -4.477  1.00  0.00    -0.065 N
HETATM   10  C4  UNL     1     -12.890   9.437  -4.768  1.00  0.00     0.336 C
ATOM     11  H52 UNL     1     -12.871  11.442  -5.260  1.00  0.00     0.277 HD
ATOM     12  H51 UNL     1     -14.119  11.062  -4.437  1.00  0.00     0.277 HD
HETATM   13  C3  UNL     1     -11.420   9.079  -4.753  1.00  0.00     0.262 C
HETATM   14  N4  UNL     1     -10.640   9.101  -3.632  1.00  0.00    -0.254 N
HETATM   15  O1  UNL     1     -10.981   8.752  -5.909  1.00  0.00    -0.270 OA
HETATM   16  N3  UNL     1     -10.307   8.344  -2.723  1.00  0.00    -0.244 N
ATOM     17  H4  UNL     1     -10.205  10.016  -3.515  1.00  0.00     0.191 HD
HETATM   18  N2  UNL     1      -9.462   8.654  -1.663  1.00  0.00    -0.315 N
ATOM     19  H3  UNL     1     -10.688   7.398  -2.749  1.00  0.00     0.208 HD
HETATM   20  C2  UNL     1      -9.683   9.742  -0.740  1.00  0.00     0.217 C
ATOM     21  H2  UNL     1      -8.632   8.076  -1.529  1.00  0.00     0.182 HD
HETATM   22  C1  UNL     1      -9.357  11.075  -1.292  1.00  0.00     0.110 C
HETATM   23  N1  UNL     1      -8.342  11.042  -2.128  1.00  0.00    -0.387 N
ATOM     24  H12 UNL     1      -7.869  10.163  -2.337  1.00  0.00     0.157 HD
ATOM     25  H11 UNL     1      -8.116  11.962  -2.508  1.00  0.00     0.157 HD
ATOM     26  H13 UNL     1      -9.438  13.121  -1.151  1.00  0.00     0.185 HD
ATOM     27  H7  UNL     1     -10.452  13.571   0.944  1.00  0.00     0.180 HD
ENDBRANCH   1   2
BRANCH   1  28
HETATM   28  O2  UNL     1     -13.247  14.556   0.412  1.00  0.00    -0.370 OA
ATOM     29  H2  UNL     1     -14.135  14.593   0.747  1.00  0.00     0.212 HD
ENDBRANCH   1  28
BRANCH   1  30
HETATM   30  C9  UNL     1     -13.331  12.559   1.644  1.00  0.00     0.079 A
HETATM   31  C10 UNL     1     -14.673  12.391   1.389  1.00  0.00     0.088 A
HETATM   32  C11 UNL     1     -15.074  11.165   1.900  1.00  0.00     0.159 A
HETATM   33  N8  UNL     1     -13.997  10.605   2.452  1.00  0.00    -0.269 N
HETATM   34  N12 UNL     1     -12.956  11.450   2.292  1.00  0.00    -0.296 N
ATOM     35  H12 UNL     1     -12.008  11.266   2.623  1.00  0.00     0.187 HD
BRANCH  32  36
HETATM   36  O3  UNL     1     -16.381  10.738   1.782  1.00  0.00    -0.345 OA
ATOM     37  H3  UNL     1     -17.083  11.167   2.258  1.00  0.00     0.219 HD
ENDBRANCH  32  36
BRANCH  33  38
HETATM   38  C12 UNL     1     -13.956   9.326   3.116  1.00  0.00     0.179 C
BRANCH  38  39
HETATM   39  C13 UNL     1     -13.472   8.190   2.290  1.00  0.00     0.254 C
BRANCH  39  40
HETATM   40  N9  UNL     1     -14.185   7.873   1.108  1.00  0.00    -0.072 N
ATOM     41  H92 UNL     1     -14.643   8.705   0.736  1.00  0.00     0.277 HD
ATOM     42  H91 UNL     1     -13.538   7.673   0.345  1.00  0.00     0.277 HD
BRANCH  40  43
HETATM   43  C14 UNL     1     -15.140   6.795   1.258  1.00  0.00     0.260 C
BRANCH  43  44
HETATM   44  C15 UNL     1     -16.533   7.372   1.130  1.00  0.00     0.265 C
BRANCH  44  45
HETATM   45  N10 UNL     1     -17.359   7.006   2.260  1.00  0.00    -0.022 N
ATOM     46 2H10 UNL     1     -18.307   7.368   2.152  1.00  0.00     0.282 HD
ATOM     47 1H10 UNL     1     -17.562   6.006   2.256  1.00  0.00     0.282 HD
BRANCH  45  48
HETATM   48  C16 UNL     1     -16.792   7.412   3.526  1.00  0.00     0.519 C
BRANCH  48  49
HETATM   49  N11 UNL     1     -17.452   8.600   4.034  1.00  0.00    -0.027 N
ATOM     50 3H11 UNL     1     -17.673   9.256   3.285  1.00  0.00     0.279 HD
ATOM     51 2H11 UNL     1     -18.401   8.398   4.349  1.00  0.00     0.279 HD
ATOM     52 1H11 UNL     1     -16.898   9.040   4.768  1.00  0.00     0.279 HD
ENDBRANCH  48  49
BRANCH  48  53
HETATM   53  O4  UNL     1     -16.982   6.383   4.439  1.00  0.00    -0.349 OA
ATOM     54  H4  UNL     1     -16.141   5.976   4.609  1.00  0.00     0.213 HD
ENDBRANCH  48  53
ENDBRANCH  45  48
ENDBRANCH  44  45
ENDBRANCH  43  44
ENDBRANCH  40  43
ENDBRANCH  39  40
ENDBRANCH  38  39
ENDBRANCH  33  38
ENDBRANCH   1  30
TORSDOF 13
ENDMDL