MODEL 4
REMARK VINA RESULT: -6.758504481      2.300      4.427
REMARK  13 active torsions:
REMARK  status: ('A' for Active; 'I' for Inactive)
REMARK    1  A    between atoms: C2_2  and  C3_3
REMARK    2  A    between atoms: C2_2  and  N12_41
REMARK    3  A    between atoms: C3_3  and  N1_4
REMARK    4  A    between atoms: C4_5  and  N2_6
REMARK    5  A    between atoms: N2_6  and  C5_8
REMARK    6  A    between atoms: C9_18  and  N6_19
REMARK    7  A    between atoms: C11_24  and  O1_26
REMARK    8  A    between atoms: C14_31  and  N9_32
REMARK    9  A    between atoms: N12_41  and  C17_43
REMARK   10  A    between atoms: C17_43  and  C18_44
REMARK   11  A    between atoms: C18_44  and  O2_45
REMARK   12  A    between atoms: C18_44  and  C19_47
REMARK   13  A    between atoms: C19_47  and  O3_48
ROOT
HETATM    1  N1  UNL     1     -13.596  10.263   1.996  1.00  0.00    -0.161 N
HETATM    2  C4  UNL     1     -12.399  10.310   1.400  1.00  0.00     0.683 A
HETATM    3  N8  UNL     1     -12.436  11.351   0.535  1.00  0.00    -0.184 N
ATOM      4  H8  UNL     1     -11.659  11.631  -0.062  1.00  0.00     0.184 HD
HETATM    5  C13 UNL     1     -13.623  11.963   0.565  1.00  0.00     0.137 A
HETATM    6  C14 UNL     1     -14.203  13.031  -0.073  1.00  0.00     0.131 A
HETATM    7  N10 UNL     1     -15.475  13.395   0.207  1.00  0.00    -0.337 N
ATOM      8  H10 UNL     1     -15.891  14.192  -0.277  1.00  0.00     0.168 HD
HETATM    9  C15 UNL     1     -16.210  12.709   1.131  1.00  0.00     0.183 A
HETATM   10  N11 UNL     1     -15.644  11.669   1.751  1.00  0.00    -0.336 N
ATOM     11  H11 UNL     1     -16.187  11.151   2.442  1.00  0.00     0.168 HD
HETATM   12  C16 UNL     1     -14.383  11.285   1.492  1.00  0.00     0.156 A
ENDROOT
BRANCH   2  13
HETATM   13  N2  UNL     1     -11.325   9.413   1.625  1.00  0.00    -0.211 N
ATOM     14  H2  UNL     1     -10.478   9.734   2.092  1.00  0.00     0.178 HD
BRANCH  13  15
HETATM   15  C5  UNL     1     -11.438   8.041   1.189  1.00  0.00     0.204 C
HETATM   16  C6  UNL     1     -11.565   7.962  -0.296  1.00  0.00     0.142 A
HETATM   17  N3  UNL     1     -12.113   8.755  -1.217  1.00  0.00    -0.177 N
HETATM   18  N7  UNL     1     -10.997   6.828  -0.721  1.00  0.00    -0.166 N
HETATM   19  C7  UNL     1     -12.127   8.481  -2.552  1.00  0.00     0.693 A
ATOM     20  H3  UNL     1     -12.549   9.623  -0.903  1.00  0.00     0.185 HD
HETATM   21  N4  UNL     1     -12.674   9.299  -3.367  1.00  0.00    -0.234 N
HETATM   22  N5  UNL     1     -11.554   7.341  -2.960  1.00  0.00    -0.019 N
ATOM     23  H42 UNL     1     -13.111  10.168  -3.056  1.00  0.00     0.174 HD
ATOM     24  H41 UNL     1     -12.684   9.094  -4.366  1.00  0.00     0.174 HD
HETATM   25  C8  UNL     1     -11.497   6.924  -4.326  1.00  0.00     0.195 C
HETATM   26  C9  UNL     1     -10.986   6.516  -2.021  1.00  0.00     0.696 A
HETATM   27  C10 UNL     1     -10.444   6.086   0.402  1.00  0.00     0.189 C
HETATM   28  C11 UNL     1     -10.149   7.249   1.372  1.00  0.00     0.099 C
HETATM   29  C12 UNL     1      -8.966   7.987   0.792  1.00  0.00     0.050 C
BRANCH  26  30
HETATM   30  N6  UNL     1     -10.434   5.424  -2.410  1.00  0.00    -0.234 N
ATOM     31  H62 UNL     1     -10.249   5.275  -3.402  1.00  0.00     0.174 HD
ATOM     32  H61 UNL     1     -10.192   4.721  -1.712  1.00  0.00     0.174 HD
ENDBRANCH  26  30
BRANCH  28  33
HETATM   33  O1  UNL     1      -9.939   6.784   2.640  1.00  0.00    -0.386 OA
ATOM     34  H1  UNL     1      -9.712   5.863   2.694  1.00  0.00     0.210 HD
ENDBRANCH  28  33
ENDBRANCH  13  15
ENDBRANCH   2  13
BRANCH   1  35
HETATM   35  C3  UNL     1     -14.103   9.393   3.040  1.00  0.00     0.200 C
BRANCH  35  36
HETATM   36  C2  UNL     1     -14.972   8.290   2.591  1.00  0.00    -0.003 C
HETATM   37  C1  UNL     1     -16.417   8.376   3.042  1.00  0.00     0.064 C
BRANCH  36  38
HETATM   38  N12 UNL     1     -14.934   7.849   1.250  1.00  0.00    -0.393 N
ATOM     39  H12 UNL     1     -14.260   8.235   0.589  1.00  0.00     0.159 HD
BRANCH  38  40
HETATM   40  C17 UNL     1     -15.864   6.852   0.850  1.00  0.00     0.153 C
BRANCH  40  41
HETATM   41  C18 UNL     1     -15.149   5.882  -0.086  1.00  0.00     0.159 C
BRANCH  41  42
HETATM   42  O2  UNL     1     -14.557   6.546  -1.138  1.00  0.00    -0.392 OA
ATOM     43  H2  UNL     1     -13.713   6.167  -1.354  1.00  0.00     0.210 HD
ENDBRANCH  41  42
BRANCH  41  44
HETATM   44  C19 UNL     1     -14.026   5.213   0.701  1.00  0.00     0.197 C
BRANCH  44  45
HETATM   45  O3  UNL     1     -14.385   4.991   2.014  1.00  0.00    -0.398 OA
ATOM     46  H3  UNL     1     -13.679   4.591   2.509  1.00  0.00     0.209 HD
ENDBRANCH  44  45
ENDBRANCH  41  44
ENDBRANCH  40  41
ENDBRANCH  38  40
ENDBRANCH  36  38
ENDBRANCH  35  36
ENDBRANCH   1  35
BRANCH   6  47
HETATM   47  N9  UNL     1     -13.533  13.694  -0.944  1.00  0.00    -0.383 N
ATOM     48  H92 UNL     1     -12.522  13.574  -0.998  1.00  0.00     0.157 HD
ATOM     49  H91 UNL     1     -14.016  14.333  -1.575  1.00  0.00     0.157 HD
ENDBRANCH   6  47
TORSDOF 13
ENDMDL