MODEL 2
REMARK VINA RESULT: -7.324066916      1.388      1.678
REMARK  12 active torsions:
REMARK  status: ('A' for Active; 'I' for Inactive)
REMARK    1  A    between atoms: C4_4  and  C5_5
REMARK    2  A    between atoms: N1_7  and  C6_9
REMARK    3  A    between atoms: N3_12  and  N4_13
REMARK    4  A    between atoms: C9_22  and  N7_23
REMARK    5  A    between atoms: N7_23  and  O1_25
REMARK    6  A    between atoms: O1_25  and  C10_26
REMARK    7  A    between atoms: C10_26  and  C12_29
REMARK    8  A    between atoms: C12_29  and  N9_30
REMARK    9  A    between atoms: N9_30  and  N10_32
REMARK   10  A    between atoms: N10_32  and  C13_33
REMARK   11  A    between atoms: C13_33  and  C14_34
REMARK   12  A    between atoms: C14_34  and  N11_35
ROOT
HETATM    1  C10 UNL     1     -13.394  10.942   2.669  1.00  0.00     0.313 C
HETATM    2  C11 UNL     1     -12.602   9.730   3.069  1.00  0.00     0.100 C
HETATM    3  N8  UNL     1     -11.990   8.811   3.396  1.00  0.00    -0.194 NA
ENDROOT
BRANCH   1   4
HETATM    4  O1  UNL     1     -12.808  11.732   1.814  1.00  0.00    -0.252 OA
BRANCH   4   5
HETATM    5  N7  UNL     1     -12.410  12.335   0.763  1.00  0.00    -0.246 N
ATOM      6  H7  UNL     1     -11.688  13.038   0.914  1.00  0.00     0.196 HD
BRANCH   5   7
HETATM    7  C9  UNL     1     -12.786  12.186  -0.469  1.00  0.00     0.171 A
HETATM    8  C6  UNL     1     -12.237  11.232  -1.207  1.00  0.00     0.124 A
HETATM    9  C7  UNL     1     -12.613  11.093  -2.540  1.00  0.00     0.186 A
HETATM   10  N2  UNL     1     -12.006  10.075  -3.312  1.00  0.00    -0.077 NA
HETATM   11  N3  UNL     1     -13.530  11.918  -3.072  1.00  0.00    -0.077 N
HETATM   12  C8  UNL     1     -14.099  12.896  -2.320  1.00  0.00     0.700 A
HETATM   13  N5  UNL     1     -14.952  13.681  -2.785  1.00  0.00    -0.233 N
HETATM   14  N6  UNL     1     -13.716  13.022  -1.012  1.00  0.00    -0.171 N
ATOM     15  H52 UNL     1     -15.238  13.587  -3.759  1.00  0.00     0.174 HD
ATOM     16  H51 UNL     1     -15.379  14.416  -2.220  1.00  0.00     0.174 HD
ATOM     17  H6  UNL     1     -14.134  13.751  -0.435  1.00  0.00     0.186 HD
BRANCH   8  18
HETATM   18  N1  UNL     1     -11.237  10.272  -0.703  1.00  0.00    -0.342 N
HETATM   19  C5  UNL     1     -11.734   9.034  -0.495  1.00  0.00     0.110 C
HETATM   20  S1  UNL     1      -9.846   8.347  -0.137  1.00  0.00    -0.030 SA
ATOM     21  H1  UNL     1     -10.263  10.519  -0.530  1.00  0.00     0.167 HD
BRANCH  19  22
HETATM   22  C4  UNL     1     -12.240   7.774  -0.283  1.00  0.00     0.091 A
HETATM   23  C3  UNL     1     -12.738   6.955  -1.340  1.00  0.00     0.068 A
HETATM   24  C2  UNL     1     -13.258   5.814  -0.785  1.00  0.00     0.074 A
HETATM   25  C1  UNL     1     -13.896   4.678  -1.542  1.00  0.00     0.079 C
HETATM   26  O3  UNL     1     -13.098   5.903   0.495  1.00  0.00    -0.242 OA
HETATM   27  N14 UNL     1     -12.514   7.025   0.803  1.00  0.00    -0.258 N
ATOM     28  H14 UNL     1     -12.289   7.305   1.758  1.00  0.00     0.195 HD
ENDBRANCH  19  22
ENDBRANCH   8  18
BRANCH  11  29
HETATM   29  N4  UNL     1     -13.939  11.789  -4.390  1.00  0.00    -0.323 N
ATOM     30  H42 UNL     1     -13.396  11.179  -5.002  1.00  0.00     0.178 HD
ATOM     31  H41 UNL     1     -14.748  12.296  -4.748  1.00  0.00     0.178 HD
ENDBRANCH  11  29
ENDBRANCH   5   7
ENDBRANCH   4   5
ENDBRANCH   1   4
BRANCH   1  32
HETATM   32  C12 UNL     1     -14.698  10.349   2.195  1.00  0.00     0.115 C
HETATM   33  C15 UNL     1     -15.630  11.139   1.754  1.00  0.00     0.176 A
HETATM   34  N12 UNL     1     -15.761  12.572   1.585  1.00  0.00    -0.222 N
HETATM   35  N13 UNL     1     -16.954  11.093   1.254  1.00  0.00    -0.222 N
HETATM   36  O2  UNL     1     -17.051  12.427   1.217  1.00  0.00    -0.153 OA
ATOM     37  H12 UNL     1     -15.133  13.367   1.697  1.00  0.00     0.198 HD
ATOM     38  H13 UNL     1     -17.590  10.333   1.014  1.00  0.00     0.198 HD
BRANCH  32  39
HETATM   39  N9  UNL     1     -14.878   8.953   2.257  1.00  0.00    -0.301 N
ATOM     40  H9  UNL     1     -14.507   8.450   3.063  1.00  0.00     0.182 HD
BRANCH  39  41
HETATM   41  N10 UNL     1     -15.541   8.225   1.268  1.00  0.00    -0.139 NA
BRANCH  41  42
HETATM   42  C13 UNL     1     -16.736   7.661   1.871  1.00  0.00     0.162 C
BRANCH  42  43
HETATM   43  C14 UNL     1     -16.574   7.494   3.383  1.00  0.00     0.247 C
BRANCH  43  44
HETATM   44  N11 UNL     1     -17.512   8.379   4.070  1.00  0.00    -0.078 N
ATOM     45 3H11 UNL     1     -17.711   9.224   3.534  1.00  0.00     0.274 HD
ATOM     46 2H11 UNL     1     -18.458   7.998   4.094  1.00  0.00     0.274 HD
ATOM     47 1H11 UNL     1     -17.156   8.589   5.003  1.00  0.00     0.274 HD
ENDBRANCH  43  44
ENDBRANCH  42  43
ENDBRANCH  41  42
ENDBRANCH  39  41
ENDBRANCH  32  39
ENDBRANCH   1  32
TORSDOF 12
ENDMDL