MODEL 4
REMARK VINA RESULT: -7.766165360      2.300      4.776
REMARK  13 active torsions:
REMARK  status: ('A' for Active; 'I' for Inactive)
REMARK       I    between atoms: N1_1  and  C1_4
REMARK       I    between atoms: C1_4  and  N3_6
REMARK    1  A    between atoms: N3_6  and  C2_8
REMARK    2  A    between atoms: C3_14  and  C4_15
REMARK    3  A    between atoms: C4_15  and  O2_16
REMARK    4  A    between atoms: C4_15  and  C5_18
REMARK    5  A    between atoms: C5_18  and  O3_19
REMARK    6  A    between atoms: C5_18  and  C6_21
REMARK    7  A    between atoms: C6_21  and  C7_22
REMARK    8  A    between atoms: C7_22  and  N6_23
REMARK       I    between atoms: N6_23  and  C8_25
REMARK    9  A    between atoms: C8_25  and  C9_27
REMARK   10  A    between atoms: C11_29  and  C12_30
REMARK   11  A    between atoms: N7_33  and  C13_34
REMARK   12  A    between atoms: C14_40  and  N10_41
REMARK   13  A    between atoms: N12_46  and  O8_48
ROOT
HETATM    1  C6  UNL     1     -13.753   4.656  -0.288  1.00  0.00     0.059 C
HETATM    2  N12 UNL     1     -12.804   3.808  -0.115  1.00  0.00    -0.273 N
ATOM      3  H12 UNL     1     -12.783   3.333   0.787  1.00  0.00     0.193 HD
ENDROOT
BRANCH   1   4
HETATM    4  C5  UNL     1     -14.687   4.831   0.851  1.00  0.00     0.202 C
BRANCH   4   5
HETATM    5  C4  UNL     1     -14.386   6.022   1.722  1.00  0.00     0.208 C
BRANCH   5   6
HETATM    6  C3  UNL     1     -15.333   7.147   1.606  1.00  0.00     0.111 A
HETATM    7  C2  UNL     1     -15.398   8.231   2.487  1.00  0.00     0.157 A
HETATM    8  N4  UNL     1     -16.395   9.009   2.066  1.00  0.00    -0.223 N
HETATM    9  O1  UNL     1     -16.911   8.466   1.019  1.00  0.00    -0.155 OA
ATOM     10  H4  UNL     1     -16.697   9.882   2.499  1.00  0.00     0.198 HD
HETATM   11  N5  UNL     1     -16.308   7.372   0.725  1.00  0.00    -0.239 N
ATOM     12  H5  UNL     1     -16.539   6.766  -0.063  1.00  0.00     0.196 HD
BRANCH   7  13
HETATM   13  N3  UNL     1     -14.617   8.393   3.497  1.00  0.00    -0.314 N
HETATM   14  C1  UNL     1     -13.598   9.379   3.526  1.00  0.00     0.187 C
HETATM   15  N1  UNL     1     -13.528  10.199   4.520  1.00  0.00    -0.373 N
HETATM   16  N2  UNL     1     -12.667   9.459   2.465  1.00  0.00    -0.064 NA
ATOM     17  H12 UNL     1     -12.795  10.908   4.541  1.00  0.00     0.158 HD
ATOM     18  H11 UNL     1     -14.200  10.142   5.285  1.00  0.00     0.158 HD
ATOM     19  H3  UNL     1     -14.736   7.788   4.310  1.00  0.00     0.170 HD
ENDBRANCH   7  13
ENDBRANCH   5   6
BRANCH   5  20
HETATM   20  O2  UNL     1     -13.062   6.399   1.709  1.00  0.00    -0.386 OA
ATOM     21  H2  UNL     1     -12.801   6.926   2.455  1.00  0.00     0.210 HD
ENDBRANCH   5  20
ENDBRANCH   4   5
BRANCH   4  22
HETATM   22  O3  UNL     1     -16.027   4.691   0.526  1.00  0.00    -0.387 OA
ATOM     23  H3  UNL     1     -16.250   3.844   0.157  1.00  0.00     0.210 HD
ENDBRANCH   4  22
ENDBRANCH   1   4
BRANCH   1  24
HETATM   24  C7  UNL     1     -13.871   5.433  -1.542  1.00  0.00     0.180 C
BRANCH  24  25
HETATM   25  N6  UNL     1     -13.392   6.783  -1.476  1.00  0.00    -0.350 N
HETATM   26  C8  UNL     1     -12.008   7.094  -1.461  1.00  0.00     0.270 C
HETATM   27  O4  UNL     1     -11.175   6.163  -1.511  1.00  0.00    -0.266 OA
ATOM     28  H6  UNL     1     -14.069   7.545  -1.437  1.00  0.00     0.163 HD
BRANCH  26  29
HETATM   29  C9  UNL     1     -11.541   8.473  -1.387  1.00  0.00     0.118 A
HETATM   30  C10 UNL     1     -10.318   8.971  -1.781  1.00  0.00     0.075 A
HETATM   31  C11 UNL     1     -10.315  10.324  -1.531  1.00  0.00     0.137 A
HETATM   32  N7  UNL     1     -11.513  10.630  -0.998  1.00  0.00    -0.228 N
HETATM   33  N11 UNL     1     -12.221   9.524  -0.922  1.00  0.00    -0.286 N
ATOM     34  H11 UNL     1     -13.171   9.474  -0.554  1.00  0.00     0.188 HD
BRANCH  31  35
HETATM   35  C12 UNL     1      -9.199  11.220  -1.809  1.00  0.00     0.229 C
HETATM   36  O5  UNL     1      -8.823  11.368  -2.988  1.00  0.00    -0.643 OA
HETATM   37  O6  UNL     1      -8.542  11.911  -0.810  1.00  0.00    -0.643 OA
ENDBRANCH  31  35
BRANCH  32  38
HETATM   38  C13 UNL     1     -11.957  11.917  -0.585  1.00  0.00     0.195 A
HETATM   39  N8  UNL     1     -11.498  12.677   0.426  1.00  0.00    -0.220 N
HETATM   40  O7  UNL     1     -12.178  13.799   0.473  1.00  0.00    -0.153 OA
ATOM     41  H8  UNL     1     -10.739  12.422   1.059  1.00  0.00     0.198 HD
HETATM   42  N9  UNL     1     -13.053  13.796  -0.460  1.00  0.00    -0.222 N
HETATM   43  C14 UNL     1     -12.972  12.645  -1.165  1.00  0.00     0.169 A
ATOM     44  H9  UNL     1     -13.714  14.551  -0.645  1.00  0.00     0.198 HD
BRANCH  43  45
HETATM   45  N10 UNL     1     -13.669  12.271  -2.167  1.00  0.00    -0.381 N
ATOM     46 2H10 UNL     1     -13.358  12.040  -3.111  1.00  0.00     0.157 HD
ATOM     47 1H10 UNL     1     -14.680  12.141  -2.166  1.00  0.00     0.157 HD
ENDBRANCH  43  45
ENDBRANCH  32  38
ENDBRANCH  26  29
ENDBRANCH  24  25
ENDBRANCH   1  24
BRANCH   2  48
HETATM   48  O8  UNL     1     -11.847   3.477  -0.974  1.00  0.00    -0.290 OA
ATOM     49  H8  UNL     1     -11.071   2.956  -0.805  1.00  0.00     0.244 HD
ENDBRANCH   2  48
TORSDOF 13
ENDMDL