MODEL 3
REMARK VINA RESULT: -8.236885334      2.545      4.308
REMARK  3 active torsions:
REMARK  status: ('A' for Active; 'I' for Inactive)
REMARK    1  A    between atoms: C2_2  and  C4_4
REMARK    2  A    between atoms: C4_4  and  C5_5
REMARK    3  A    between atoms: C10_10  and  O1_11
ROOT
HETATM    1  C5  UNL     1       3.382   7.290  18.778  1.00  0.00     0.029 C
HETATM    2  C6  UNL     1       3.370   8.828  18.910  1.00  0.00     0.044 C
HETATM    3  C7  UNL     1       4.722   9.186  19.395  1.00  0.00    -0.074 C
HETATM    4  C8  UNL     1       5.918   8.842  18.982  1.00  0.00    -0.048 C
HETATM    5  C9  UNL     1       7.074   9.411  19.733  1.00  0.00     0.068 C
HETATM    6  C10 UNL     1       6.954  10.878  19.990  1.00  0.00     0.122 C
HETATM    7  C11 UNL     1       5.522  11.331  20.160  1.00  0.00     0.036 C
HETATM    8  C12 UNL     1       4.686  10.116  20.583  1.00  0.00     0.037 C
HETATM    9  C13 UNL     1       6.336   7.975  17.882  1.00  0.00     0.086 C
HETATM   10  C14 UNL     1       7.309   8.763  17.027  1.00  0.00     0.043 C
HETATM   11 CL1  UNL     1       7.266   6.620  18.624  1.00  0.00    -0.109 Cl
HETATM   12  C15 UNL     1       5.259   7.371  17.095  1.00  0.00     0.000 A
HETATM   13  C16 UNL     1       5.416   7.016  15.772  1.00  0.00     0.151 A
HETATM   14  O2  UNL     1       4.268   6.517  15.358  1.00  0.00    -0.334 OA
HETATM   15  C17 UNL     1       3.371   6.521  16.316  1.00  0.00     0.149 A
HETATM   16  C18 UNL     1       3.951   7.048  17.422  1.00  0.00    -0.021 A
ENDROOT
BRANCH   1  17
HETATM   17  C4  UNL     1       1.982   6.821  18.936  1.00  0.00     0.042 C
BRANCH  17  18
HETATM   18  C2  UNL     1       1.808   5.495  19.549  1.00  0.00    -0.092 C
HETATM   19  C1  UNL     1       0.931   4.575  19.233  1.00  0.00     0.014 C
HETATM   20  C3  UNL     1       2.753   5.178  20.686  1.00  0.00     0.042 C
ENDBRANCH  17  18
ENDBRANCH   1  17
BRANCH   6  21
HETATM   21  O1  UNL     1       7.696  11.172  21.148  1.00  0.00    -0.395 OA
ATOM     22  H1  UNL     1       7.196  10.869  21.897  1.00  0.00     0.210 HD
ENDBRANCH   6  21
TORSDOF 3
ENDMDL