MODEL 1
REMARK VINA RESULT: -6.462890984      0.000      0.000
REMARK  2 active torsions:
REMARK  status: ('A' for Active; 'I' for Inactive)
REMARK       I    between atoms: C1_2  and  N1_3
REMARK    1  A    between atoms: C1_2  and  C6_11
REMARK    2  A    between atoms: N1_3  and  C2_5
ROOT
HETATM    1  C6  UNL     1       4.962   8.121  17.987  1.00  0.00     0.042 C
HETATM    2  C7  UNL     1       3.722   8.741  17.410  1.00  0.00     0.024 C
HETATM    3  C8  UNL     1       3.727   8.522  15.916  1.00  0.00    -0.013 C
HETATM    4  C9  UNL     1       4.929   9.194  15.283  1.00  0.00     0.009 C
HETATM    5  C10 UNL     1       6.173   8.607  15.916  1.00  0.00    -0.013 C
HETATM    6  C11 UNL     1       6.218   7.149  15.542  1.00  0.00     0.009 C
HETATM    7  C12 UNL     1       5.022   6.448  16.163  1.00  0.00    -0.013 C
HETATM    8  C13 UNL     1       3.715   7.033  15.683  1.00  0.00     0.009 C
HETATM    9  C14 UNL     1       5.106   6.663  17.650  1.00  0.00     0.024 C
HETATM   10  C15 UNL     1       6.169   8.836  17.401  1.00  0.00     0.024 C
ENDROOT
BRANCH   1  11
HETATM   11  C1  UNL     1       4.963   8.255  19.489  1.00  0.00     0.231 C
HETATM   12  O1  UNL     1       4.540   9.317  19.993  1.00  0.00    -0.272 OA
HETATM   13  N1  UNL     1       5.428   7.217  20.306  1.00  0.00    -0.326 N
ATOM     14  H1  UNL     1       5.754   6.375  19.833  1.00  0.00     0.169 HD
BRANCH  13  15
HETATM   15  C2  UNL     1       5.494   7.214  21.752  1.00  0.00     0.043 A
HETATM   16  C3  UNL     1       6.633   7.696  22.393  1.00  0.00     0.080 A
HETATM   17  S1  UNL     1       6.268   7.529  24.038  1.00  0.00    -0.087 SA
HETATM   18  C4  UNL     1       4.714   6.867  23.919  1.00  0.00     0.076 A
HETATM   19 CL1  UNL     1       3.583   6.377  25.203  1.00  0.00    -0.076 Cl
HETATM   20  C5  UNL     1       4.505   6.787  22.565  1.00  0.00     0.061 A
ENDBRANCH  13  15
ENDBRANCH   1  11
TORSDOF 2
ENDMDL