MODEL 1
REMARK VINA RESULT: -6.662820998      0.000      0.000
REMARK  4 active torsions:
REMARK  status: ('A' for Active; 'I' for Inactive)
REMARK    1  A    between atoms: C2_2  and  C5_5
REMARK    2  A    between atoms: C5_5  and  N1_7
REMARK    3  A    between atoms: N1_7  and  C6_9
REMARK    4  A    between atoms: C6_9  and  C7_10
ROOT
HETATM    1  C6  UNL     1       3.615   6.568  19.586  1.00  0.00     0.059 C
HETATM    2  C11 UNL     1       2.835   5.292  19.547  1.00  0.00     0.039 C
HETATM    3  C12 UNL     1       1.822   5.116  18.480  1.00  0.00     0.040 C
HETATM    4  C13 UNL     1       0.906   6.294  18.461  1.00  0.00     0.170 C
HETATM    5  F1  UNL     1      -0.054   6.188  17.452  1.00  0.00    -0.249 F
HETATM    6  C14 UNL     1       1.710   7.514  18.176  1.00  0.00     0.040 C
HETATM    7  C15 UNL     1       2.906   7.739  19.044  1.00  0.00     0.039 C
ENDROOT
BRANCH   1   8
HETATM    8  N1  UNL     1       4.940   6.467  19.065  1.00  0.00    -0.370 N
ATOM      9  H1  UNL     1       5.553   5.900  19.651  1.00  0.00     0.161 HD
BRANCH   8  10
HETATM   10  C5  UNL     1       5.575   6.961  17.953  1.00  0.00     0.082 C
HETATM   11  S1  UNL     1       5.215   6.565  16.443  1.00  0.00    -0.065 SA
BRANCH  10  12
HETATM   12  C2  UNL     1       6.663   7.965  18.136  1.00  0.00     0.002 C
HETATM   13  C1  UNL     1       7.568   7.476  19.253  1.00  0.00     0.022 C
HETATM   14  C3  UNL     1       6.172   9.328  18.489  1.00  0.00     0.022 C
HETATM   15  C4  UNL     1       7.542   7.985  16.885  1.00  0.00     0.022 C
ENDBRANCH  10  12
ENDBRANCH   8  10
ENDBRANCH   1   8
BRANCH   1  16
HETATM   16  C7  UNL     1       3.877   6.817  21.092  1.00  0.00    -0.023 A
HETATM   17  C8  UNL     1       4.807   7.680  21.546  1.00  0.00     0.017 A
HETATM   18  C9  UNL     1       4.937   7.845  22.887  1.00  0.00     0.050 A
HETATM   19  S2  UNL     1       3.766   6.799  23.532  1.00  0.00    -0.113 SA
HETATM   20  C10 UNL     1       3.135   6.173  22.042  1.00  0.00     0.059 A
ENDBRANCH   1  16
TORSDOF 4
ENDMDL