MODEL 3
REMARK VINA RESULT: -7.977662984      2.946      4.851
REMARK  2 active torsions:
REMARK  status: ('A' for Active; 'I' for Inactive)
REMARK    1  A    between atoms: N1_2  and  C2_4
REMARK    2  A    between atoms: C2_4  and  C3_5
ROOT
HETATM    1  C3  UNL     1       4.149   8.223  15.632  1.00  0.00     0.001 A
HETATM    2  C4  UNL     1       3.766   6.911  15.913  1.00  0.00     0.013 A
HETATM    3  C5  UNL     1       3.612   6.487  17.233  1.00  0.00     0.016 A
HETATM    4  C6  UNL     1       3.846   7.423  18.195  1.00  0.00     0.011 A
HETATM    5  C7  UNL     1       4.231   8.736  17.883  1.00  0.00     0.120 A
HETATM    6  C8  UNL     1       4.394   9.162  16.586  1.00  0.00     0.158 A
HETATM    7  F1  UNL     1       4.754  10.431  16.356  1.00  0.00    -0.203 F
HETATM    8  O1  UNL     1       4.423   9.525  19.004  1.00  0.00    -0.332 OA
HETATM    9  C9  UNL     1       5.052   8.984  20.149  1.00  0.00     0.086 C
HETATM   10  C10 UNL     1       5.030  10.196  21.116  1.00  0.00     0.051 C
HETATM   11  C11 UNL     1       6.436   8.620  19.760  1.00  0.00     0.051 C
HETATM   12  C12 UNL     1       4.154   7.912  20.693  1.00  0.00    -0.027 C
HETATM   13  C13 UNL     1       3.585   7.121  19.610  1.00  0.00    -0.021 C
HETATM   14  C14 UNL     1       2.806   6.088  19.904  1.00  0.00    -0.014 C
HETATM   15  C15 UNL     1       2.557   5.829  21.371  1.00  0.00     0.029 C
HETATM   16  C16 UNL     1       3.863   5.884  22.047  1.00  0.00     0.017 C
HETATM   17  C17 UNL     1       4.580   7.216  21.906  1.00  0.00    -0.020 C
HETATM   18  C18 UNL     1       4.209   8.004  23.184  1.00  0.00     0.019 C
HETATM   19  C19 UNL     1       6.028   6.856  22.090  1.00  0.00     0.019 C
ENDROOT
BRANCH   1  20
HETATM   20  C2  UNL     1       4.296   8.538  14.163  1.00  0.00     0.155 C
BRANCH  20  21
HETATM   21  N1  UNL     1       5.237   7.455  13.759  1.00  0.00    -0.421 N
HETATM   22  C1  UNL     1       6.627   7.790  13.791  1.00  0.00     0.140 C
ATOM     23  H1  UNL     1       4.910   6.531  13.476  1.00  0.00     0.153 HD
ENDBRANCH  20  21
ENDBRANCH   1  20
TORSDOF 2
ENDMDL