MODEL 5
REMARK VINA RESULT: -8.193166537      2.213      4.644
REMARK  2 active torsions:
REMARK  status: ('A' for Active; 'I' for Inactive)
REMARK    1  A    between atoms: C2_2  and  C4_4
REMARK    2  A    between atoms: C13_15  and  C14_16
ROOT
HETATM    1  C4  UNL     1       4.666  10.593  17.190  1.00  0.00     0.089 C
HETATM    2  C5  UNL     1       5.455   9.389  16.724  1.00  0.00     0.018 C
HETATM    3  C6  UNL     1       5.690   8.637  18.041  1.00  0.00     0.045 C
HETATM    4  C7  UNL     1       4.649   9.065  19.026  1.00  0.00     0.146 C
HETATM    5  N1  UNL     1       5.121   9.853  20.106  1.00  0.00    -0.382 N
ATOM      6  H1  UNL     1       4.600  10.668  20.430  1.00  0.00     0.160 HD
HETATM    7  C8  UNL     1       6.328   9.478  20.715  1.00  0.00     0.057 C
HETATM    8  C9  UNL     1       6.501   8.054  21.081  1.00  0.00     0.049 C
HETATM    9  C10 UNL     1       5.298   7.410  21.704  1.00  0.00     0.046 C
HETATM   10  C11 UNL     1       4.180   7.246  20.738  1.00  0.00    -0.023 A
HETATM   11  C12 UNL     1       3.211   6.287  20.890  1.00  0.00     0.043 A
HETATM   12  C13 UNL     1       2.338   6.413  19.828  1.00  0.00     0.058 A
HETATM   13  O1  UNL     1       2.775   7.393  19.098  1.00  0.00    -0.316 OA
HETATM   14  C17 UNL     1       3.865   7.929  19.583  1.00  0.00     0.094 A
HETATM   15  C18 UNL     1       3.743   9.980  18.176  1.00  0.00     0.281 C
HETATM   16  F1  UNL     1       2.799   9.224  17.528  1.00  0.00    -0.202 F
HETATM   17  F2  UNL     1       3.131  10.945  18.916  1.00  0.00    -0.202 F
ENDROOT
BRANCH   1  18
HETATM   18  C2  UNL     1       4.090  11.290  16.041  1.00  0.00    -0.083 C
HETATM   19  C1  UNL     1       3.804  10.795  14.874  1.00  0.00     0.014 C
HETATM   20  C3  UNL     1       3.804  12.775  16.227  1.00  0.00     0.043 C
ENDBRANCH   1  18
BRANCH  12  21
HETATM   21  C14 UNL     1       1.110   5.583  19.556  1.00  0.00     0.043 A
HETATM   22  C15 UNL     1       1.252   4.156  19.933  1.00  0.00     0.012 A
HETATM   23  C16 UNL     1       1.184   4.531  18.505  1.00  0.00     0.012 A
ENDBRANCH  12  21
TORSDOF 2
ENDMDL