MODEL 1
REMARK VINA RESULT: -8.225863804      0.000      0.000
REMARK  3 active torsions:
REMARK  status: ('A' for Active; 'I' for Inactive)
REMARK    1  A    between atoms: C6_7  and  O1_8
REMARK    2  A    between atoms: C6_7  and  C7_10
REMARK    3  A    between atoms: C10_13  and  C11_14
ROOT
HETATM    1  C7  UNL     1       5.173   7.143  17.865  1.00  0.00     0.010 A
HETATM    2  C8  UNL     1       4.291   6.273  18.454  1.00  0.00     0.013 A
HETATM    3  C9  UNL     1       4.026   6.298  19.811  1.00  0.00     0.011 A
HETATM    4  C10 UNL     1       4.667   7.222  20.586  1.00  0.00    -0.015 A
HETATM    5  C17 UNL     1       5.557   8.104  20.014  1.00  0.00     0.123 A
HETATM    6  F1  UNL     1       6.233   9.047  20.752  1.00  0.00    -0.206 F
HETATM    7  C18 UNL     1       5.811   8.066  18.657  1.00  0.00     0.055 A
ENDROOT
BRANCH   1   8
HETATM    8  C6  UNL     1       5.450   7.121  16.419  1.00  0.00     0.286 C
HETATM    9  N1  UNL     1       5.023   8.285  15.705  1.00  0.00     0.124 N
HETATM   10  C1  UNL     1       3.668   8.664  15.980  1.00  0.00     0.314 C
HETATM   11  C2  UNL     1       5.081   7.978  14.273  1.00  0.00     0.276 C
HETATM   12  C3  UNL     1       6.475   7.593  13.909  1.00  0.00     0.030 C
HETATM   13  C4  UNL     1       7.400   7.813  15.105  1.00  0.00     0.007 C
HETATM   14  C5  UNL     1       6.943   6.904  16.221  1.00  0.00     0.077 C
BRANCH   8  15
HETATM   15  O1  UNL     1       4.815   6.019  15.848  1.00  0.00    -0.359 OA
ATOM     16  H1  UNL     1       5.063   5.987  14.931  1.00  0.00     0.213 HD
ENDBRANCH   8  15
ENDBRANCH   1   8
BRANCH   4  17
HETATM   17  C11 UNL     1       4.439   7.346  22.052  1.00  0.00     0.022 C
HETATM   18  C12 UNL     1       5.611   6.906  22.864  1.00  0.00     0.009 C
HETATM   19  C13 UNL     1       5.303   7.070  24.318  1.00  0.00     0.001 C
HETATM   20  C14 UNL     1       4.018   6.451  24.767  1.00  0.00     0.000 C
HETATM   21  C15 UNL     1       2.875   6.860  23.849  1.00  0.00     0.001 C
HETATM   22  C16 UNL     1       3.275   6.427  22.456  1.00  0.00     0.009 C
ENDBRANCH   4  17
TORSDOF 3
ENDMDL