MODEL 1
REMARK VINA RESULT: -8.195869016      0.000      0.000
REMARK  3 active torsions:
REMARK  status: ('A' for Active; 'I' for Inactive)
REMARK    1  A    between atoms: C2_2  and  C3_4
REMARK    2  A    between atoms: C10_11  and  C12_13
REMARK    3  A    between atoms: N1_15  and  O1_17
ROOT
HETATM    1  C3  UNL     1       4.890   7.431  22.841  1.00  0.00    -0.032 C
HETATM    2  C4  UNL     1       6.220   7.193  23.223  1.00  0.00    -0.017 C
HETATM    3  C5  UNL     1       7.135   7.732  22.221  1.00  0.00     0.034 C
HETATM    4  C6  UNL     1       6.301   7.678  21.000  1.00  0.00     0.006 C
HETATM    5  C7  UNL     1       6.671   8.684  19.948  1.00  0.00    -0.004 C
HETATM    6  C8  UNL     1       7.996   8.422  19.319  1.00  0.00     0.007 C
HETATM    7  C9  UNL     1       7.778   8.876  17.900  1.00  0.00     0.018 C
HETATM    8  C10 UNL     1       6.369   8.378  17.583  1.00  0.00     0.032 C
HETATM    9  C11 UNL     1       5.831   9.290  16.495  1.00  0.00     0.025 C
HETATM   10  C13 UNL     1       5.623   8.569  18.858  1.00  0.00     0.006 C
HETATM   11  C14 UNL     1       4.610   7.521  19.147  1.00  0.00     0.007 C
HETATM   12  C15 UNL     1       3.965   7.715  20.508  1.00  0.00     0.015 C
HETATM   13  C16 UNL     1       4.960   8.118  21.568  1.00  0.00    -0.011 C
HETATM   14  C17 UNL     1       4.943   9.610  21.824  1.00  0.00     0.021 C
ENDROOT
BRANCH   8  15
HETATM   15  C12 UNL     1       6.487   7.007  17.096  1.00  0.00     0.193 C
HETATM   16  F1  UNL     1       7.103   6.031  17.794  1.00  0.00    -0.189 F
HETATM   17  N1  UNL     1       5.987   6.708  15.956  1.00  0.00    -0.246 N
ATOM     18  H1  UNL     1       5.514   7.422  15.402  1.00  0.00     0.196 HD
BRANCH  17  19
HETATM   19  O1  UNL     1       6.087   5.429  15.481  1.00  0.00    -0.288 OA
ATOM     20  H1  UNL     1       6.086   5.270  14.545  1.00  0.00     0.244 HD
ENDBRANCH  17  19
ENDBRANCH   8  15
BRANCH   1  21
HETATM   21  C2  UNL     1       3.925   6.954  23.737  1.00  0.00     0.031 C
HETATM   22  C1  UNL     1       3.078   6.534  24.525  1.00  0.00     0.037 C
HETATM   23 CL1  UNL     1       3.382   5.332  22.439  1.00  0.00    -0.085 Cl
ENDBRANCH   1  21
TORSDOF 3
ENDMDL