MODEL 4
REMARK VINA RESULT: -7.440289594      3.079      4.867
REMARK  3 active torsions:
REMARK  status: ('A' for Active; 'I' for Inactive)
REMARK    1  A    between atoms: C2_2  and  N1_4
REMARK    2  A    between atoms: N1_4  and  N2_6
REMARK    3  A    between atoms: C4_8  and  C5_9
ROOT
HETATM    1  C5  UNL     1       2.835   6.157  21.384  1.00  0.00     0.030 C
HETATM    2  C6  UNL     1       3.753   5.722  22.490  1.00  0.00     0.011 C
HETATM    3  C7  UNL     1       4.548   6.979  22.850  1.00  0.00     0.006 C
HETATM    4  C8  UNL     1       4.306   7.954  21.732  1.00  0.00    -0.003 C
HETATM    5  C9  UNL     1       3.712   7.153  20.613  1.00  0.00    -0.001 C
HETATM    6  C10 UNL     1       4.709   6.378  19.819  1.00  0.00     0.009 C
HETATM    7  C11 UNL     1       5.936   7.150  19.442  1.00  0.00     0.045 C
HETATM    8  C12 UNL     1       6.522   7.959  20.547  1.00  0.00     0.114 C
HETATM    9  F1  UNL     1       7.379   7.251  21.360  1.00  0.00    -0.242 F
HETATM   10  C13 UNL     1       5.509   8.740  21.337  1.00  0.00     0.030 C
HETATM   11  C14 UNL     1       5.079   9.798  20.342  1.00  0.00     0.009 C
HETATM   12  C15 UNL     1       6.237   9.986  19.397  1.00  0.00     0.012 C
HETATM   13  C16 UNL     1       7.339   9.083  19.911  1.00  0.00    -0.011 C
HETATM   14  C17 UNL     1       8.119   9.830  20.943  1.00  0.00     0.018 C
HETATM   15  C18 UNL     1       8.216   8.579  18.807  1.00  0.00     0.018 C
ENDROOT
BRANCH   1  16
HETATM   16  C4  UNL     1       2.386   5.057  20.521  1.00  0.00     0.085 C
HETATM   17  N2  UNL     1       1.397   5.175  19.701  1.00  0.00    -0.315 N
ATOM     18  H2  UNL     1       1.121   4.382  19.122  1.00  0.00     0.185 HD
BRANCH  17  19
HETATM   19  N1  UNL     1       0.701   6.382  19.600  1.00  0.00    -0.307 N
ATOM     20  H1  UNL     1       0.090   6.697  20.353  1.00  0.00     0.186 HD
BRANCH  19  21
HETATM   21  C2  UNL     1       0.867   7.171  18.405  1.00  0.00     0.012 C
HETATM   22  C1  UNL     1       0.077   8.212  18.229  1.00  0.00     0.039 C
HETATM   23  C3  UNL     1       1.900   6.807  17.417  1.00  0.00     0.069 C
ENDBRANCH  19  21
ENDBRANCH  17  19
ENDBRANCH   1  16
TORSDOF 3
ENDMDL