MODEL 3
REMARK VINA RESULT: -7.587960237      0.637      1.029
REMARK  3 active torsions:
REMARK  status: ('A' for Active; 'I' for Inactive)
REMARK    1  A    between atoms: C2_2  and  O1_3
REMARK    2  A    between atoms: C9_11  and  C10_12
REMARK    3  A    between atoms: C11_13  and  C12_14
ROOT
HETATM    1  C1  UNL     1       3.047  10.364  13.774  1.00  0.00     0.046 C
HETATM    2  C2  UNL     1       3.735  11.349  14.725  1.00  0.00     0.058 C
HETATM    3  C3  UNL     1       2.999  12.635  14.640  1.00  0.00     0.038 C
HETATM    4  C4  UNL     1       3.169  13.552  15.797  1.00  0.00     0.004 C
HETATM    5  C5  UNL     1       3.283  12.872  17.127  1.00  0.00     0.010 C
HETATM    6  C6  UNL     1       4.252  11.703  17.091  1.00  0.00    -0.037 C
HETATM    7  C7  UNL     1       5.611  12.259  16.750  1.00  0.00     0.015 C
HETATM    8  C8  UNL     1       4.325  11.153  18.492  1.00  0.00     0.018 C
HETATM    9  C9  UNL     1       4.880   9.758  18.548  1.00  0.00     0.009 C
HETATM   10  C17 UNL     1       4.362   8.860  17.484  1.00  0.00     0.009 C
HETATM   11  C18 UNL     1       4.586   9.484  16.097  1.00  0.00     0.009 C
HETATM   12  C19 UNL     1       3.745  10.734  16.079  1.00  0.00     0.028 C
ENDROOT
BRANCH   9  13
HETATM   13  C10 UNL     1       4.521   9.196  19.896  1.00  0.00    -0.021 C
HETATM   14  C11 UNL     1       5.057   8.096  20.356  1.00  0.00     0.009 C
BRANCH  14  15
HETATM   15  C12 UNL     1       4.710   7.560  21.648  1.00  0.00    -0.021 A
HETATM   16  C13 UNL     1       5.607   7.721  22.713  1.00  0.00     0.017 A
HETATM   17  C14 UNL     1       5.277   7.213  23.935  1.00  0.00     0.062 A
HETATM   18  C15 UNL     1       4.084   6.554  24.120  1.00  0.00     0.188 A
HETATM   19  F1  UNL     1       3.803   6.069  25.350  1.00  0.00    -0.186 F
HETATM   20  N1  UNL     1       3.244   6.414  23.084  1.00  0.00    -0.342 N
HETATM   21  C16 UNL     1       3.527   6.903  21.840  1.00  0.00     0.101 A
ATOM     22  H1  UNL     1       2.362   5.925  23.230  1.00  0.00     0.167 HD
ENDBRANCH  14  15
ENDBRANCH   9  13
BRANCH   2  23
HETATM   23  O1  UNL     1       5.059  11.456  14.242  1.00  0.00    -0.390 OA
ATOM     24  H1  UNL     1       5.291  10.578  13.967  1.00  0.00     0.210 HD
ENDBRANCH   2  23
TORSDOF 3
ENDMDL