MODEL 5
REMARK VINA RESULT: -7.555859133      3.568      7.869
REMARK  2 active torsions:
REMARK  status: ('A' for Active; 'I' for Inactive)
REMARK    1  A    between atoms: C5_6  and  C6_7
REMARK       I    between atoms: C6_7  and  N1_9
REMARK    2  A    between atoms: N1_9  and  C7_11
ROOT
HETATM    1  C7  UNL     1       4.834  10.061  19.165  1.00  0.00     0.084 C
HETATM    2  C8  UNL     1       6.236  10.255  18.705  1.00  0.00     0.025 C
HETATM    3  C9  UNL     1       6.349  10.649  17.255  1.00  0.00     0.003 C
HETATM    4  C10 UNL     1       5.705  11.949  16.934  1.00  0.00     0.010 C
HETATM    5  C11 UNL     1       4.286  11.843  16.462  1.00  0.00    -0.038 C
HETATM    6  C12 UNL     1       3.840  13.238  16.078  1.00  0.00     0.012 C
HETATM    7  C13 UNL     1       3.093  13.126  14.784  1.00  0.00     0.038 C
HETATM    8  C14 UNL     1       2.830  11.649  14.611  1.00  0.00     0.171 C
HETATM    9  F1  UNL     1       2.673  11.283  13.301  1.00  0.00    -0.249 F
HETATM   10  C15 UNL     1       4.110  11.056  15.215  1.00  0.00     0.046 C
HETATM   11  C16 UNL     1       3.421  11.359  17.593  1.00  0.00     0.011 C
HETATM   12  C17 UNL     1       3.822   9.988  18.062  1.00  0.00     0.026 C
ENDROOT
BRANCH   1  13
HETATM   13  N1  UNL     1       4.770   8.834  19.993  1.00  0.00    -0.351 N
HETATM   14  C6  UNL     1       4.591   8.963  21.364  1.00  0.00     0.276 C
HETATM   15  O2  UNL     1       4.489  10.157  21.832  1.00  0.00    -0.265 OA
ATOM     16  H1  UNL     1       4.856   7.912  19.565  1.00  0.00     0.163 HD
BRANCH  14  17
HETATM   17  C5  UNL     1       4.502   7.890  22.342  1.00  0.00     0.148 A
HETATM   18  C2  UNL     1       3.781   6.726  22.360  1.00  0.00    -0.021 A
HETATM   19  C1  UNL     1       2.851   6.249  21.310  1.00  0.00     0.051 C
HETATM   20  C3  UNL     1       4.050   6.032  23.535  1.00  0.00     0.034 A
HETATM   21  C4  UNL     1       4.945   6.822  24.198  1.00  0.00     0.143 A
HETATM   22  O1  UNL     1       5.189   7.881  23.497  1.00  0.00    -0.317 OA
ENDBRANCH  14  17
ENDBRANCH   1  13
TORSDOF 2
ENDMDL