MODEL 2
REMARK VINA RESULT: -8.974615655      2.977      5.502
REMARK  4 active torsions:
REMARK  status: ('A' for Active; 'I' for Inactive)
REMARK    1  A    between atoms: O1_1  and  C1_3
REMARK    2  A    between atoms: C1_3  and  C2_4
REMARK    3  A    between atoms: C1_3  and  C10_15
REMARK    4  A    between atoms: C2_4  and  C3_5
ROOT
HETATM    1  C1  UNL     1       7.307   9.476  20.337  1.00  0.00     0.150 C
ENDROOT
BRANCH   1   2
HETATM    2  O1  UNL     1       7.969  10.545  20.890  1.00  0.00    -0.391 OA
ATOM      3  H1  UNL     1       8.380  10.392  21.733  1.00  0.00     0.210 HD
ENDBRANCH   1   2
BRANCH   1   4
HETATM    4  C2  UNL     1       7.972   8.820  19.193  1.00  0.00     0.074 C
BRANCH   4   5
HETATM    5  C3  UNL     1       7.527   9.228  17.836  1.00  0.00     0.200 C
HETATM    6  O2  UNL     1       6.241   8.795  17.520  1.00  0.00    -0.232 OA
HETATM    7  O3  UNL     1       6.418   7.481  17.395  1.00  0.00    -0.226 OA
HETATM    8  C4  UNL     1       7.329   7.444  16.327  1.00  0.00     0.129 C
HETATM    9  C5  UNL     1       6.618   7.798  15.066  1.00  0.00     0.044 C
HETATM   10  C8  UNL     1       7.939   6.083  16.160  1.00  0.00     0.044 C
HETATM   11  C9  UNL     1       8.335   8.489  16.765  1.00  0.00     0.239 C
HETATM   12  C6  UNL     1       7.047   6.746  14.093  1.00  0.00     0.003 C
HETATM   13  C7  UNL     1       7.178   5.513  14.961  1.00  0.00     0.003 C
HETATM   14  F1  UNL     1       8.567   9.328  15.701  1.00  0.00    -0.243 F
ENDBRANCH   4   5
ENDBRANCH   1   4
BRANCH   1  15
HETATM   15  C10 UNL     1       6.833   8.593  21.424  1.00  0.00    -0.047 C
HETATM   16  C11 UNL     1       7.450   7.697  22.179  1.00  0.00    -0.020 C
HETATM   17  C12 UNL     1       6.474   7.110  23.113  1.00  0.00     0.033 C
HETATM   18  C13 UNL     1       5.152   7.249  22.315  1.00  0.00     0.001 C
HETATM   19  C14 UNL     1       4.044   7.196  23.317  1.00  0.00     0.009 C
HETATM   20  C22 UNL     1       5.360   8.627  21.805  1.00  0.00     0.043 C
HETATM   21  C15 UNL     1       2.798   6.533  22.770  1.00  0.00     0.027 C
HETATM   22  C16 UNL     1       3.079   5.361  21.925  1.00  0.00    -0.031 C
HETATM   23  C17 UNL     1       3.009   5.330  20.607  1.00  0.00    -0.030 C
HETATM   24  C18 UNL     1       2.625   6.501  19.784  1.00  0.00     0.030 C
HETATM   25  C19 UNL     1       3.817   7.267  19.266  1.00  0.00     0.030 C
HETATM   26  C20 UNL     1       3.869   8.661  19.772  1.00  0.00    -0.030 C
HETATM   27  C21 UNL     1       4.492   9.167  20.784  1.00  0.00    -0.021 C
ENDBRANCH   1  15
TORSDOF 4
ENDMDL