MODEL 3
REMARK VINA RESULT: -7.843184796      3.013      5.744
REMARK  6 active torsions:
REMARK  status: ('A' for Active; 'I' for Inactive)
REMARK    1  A    between atoms: C2_2  and  C5_5
REMARK    2  A    between atoms: C7_7  and  S1_8
REMARK    3  A    between atoms: S1_8  and  C8_9
REMARK    4  A    between atoms: C10_12  and  C12_14
REMARK    5  A    between atoms: C12_14  and  O2_15
REMARK    6  A    between atoms: C16_21  and  C17_22
ROOT
HETATM    1  C5  UNL     1       5.188   9.927  17.399  1.00  0.00    -0.049 A
HETATM    2  C6  UNL     1       4.654   8.711  17.095  1.00  0.00     0.026 A
HETATM    3  C7  UNL     1       5.030   7.536  17.697  1.00  0.00     0.002 A
HETATM    4  C15 UNL     1       6.006   7.573  18.661  1.00  0.00     0.026 A
HETATM    5  C16 UNL     1       6.587   8.785  19.008  1.00  0.00    -0.049 A
HETATM    6  C21 UNL     1       6.163   9.956  18.362  1.00  0.00     0.015 A
ENDROOT
BRANCH   3   7
HETATM    7  S1  UNL     1       4.141   6.071  17.356  1.00  0.00    -0.114 SA
BRANCH   7   8
HETATM    8  C8  UNL     1       3.281   5.289  18.684  1.00  0.00     0.163 C
HETATM    9  C9  UNL     1       2.211   4.344  18.325  1.00  0.00     0.158 C
HETATM   10  O1  UNL     1       2.135   3.173  18.042  1.00  0.00    -0.296 OA
HETATM   11  C10 UNL     1       1.201   5.426  18.442  1.00  0.00     0.076 C
HETATM   12  C11 UNL     1      -0.042   5.164  19.221  1.00  0.00     0.029 C
HETATM   13  C13 UNL     1       2.214   6.200  19.286  1.00  0.00     0.135 C
HETATM   14  C14 UNL     1       2.144   5.890  20.772  1.00  0.00     0.055 C
HETATM   15  F1  UNL     1       2.342   7.520  19.041  1.00  0.00    -0.240 F
BRANCH  11  16
HETATM   16  C12 UNL     1       0.879   6.083  17.142  1.00  0.00     0.184 C
BRANCH  16  17
HETATM   17  O2  UNL     1      -0.504   6.331  17.017  1.00  0.00    -0.400 OA
ATOM     18  H2  UNL     1      -0.676   7.047  16.418  1.00  0.00     0.209 HD
ENDBRANCH  16  17
ENDBRANCH  11  16
ENDBRANCH   7   8
ENDBRANCH   3   7
BRANCH   1  19
HETATM   19  C2  UNL     1       4.672  11.151  16.732  1.00  0.00    -0.024 C
HETATM   20  C1  UNL     1       5.889  12.075  16.687  1.00  0.00     0.019 C
HETATM   21  C3  UNL     1       3.627  11.835  17.540  1.00  0.00     0.019 C
HETATM   22  C4  UNL     1       4.205  10.941  15.320  1.00  0.00     0.019 C
ENDBRANCH   1  19
BRANCH   5  23
HETATM   23  C17 UNL     1       7.650   8.821  20.063  1.00  0.00    -0.024 C
HETATM   24  C18 UNL     1       8.920   8.293  19.427  1.00  0.00     0.019 C
HETATM   25  C19 UNL     1       7.909  10.207  20.533  1.00  0.00     0.019 C
HETATM   26  C20 UNL     1       7.231   7.966  21.245  1.00  0.00     0.019 C
ENDBRANCH   5  23
TORSDOF 6
ENDMDL