MODEL 2
REMARK VINA RESULT: -7.770527886      2.433      5.017
REMARK  6 active torsions:
REMARK  status: ('A' for Active; 'I' for Inactive)
REMARK    1  A    between atoms: C2_2  and  C3_3
REMARK    2  A    between atoms: N1_6  and  O1_8
REMARK    3  A    between atoms: O1_8  and  C6_9
REMARK    4  A    between atoms: C18_22  and  C19_23
REMARK    5  A    between atoms: C19_23  and  C21_25
REMARK    6  A    between atoms: C21_25  and  O2_26
ROOT
HETATM    1  C3  UNL     1       4.914   9.220  19.192  1.00  0.00     0.018 C
HETATM    2  C4  UNL     1       6.200   9.237  18.461  1.00  0.00     0.026 C
HETATM    3  C5  UNL     1       3.888   9.590  18.192  1.00  0.00     0.023 C
HETATM    4  N1  UNL     1       4.142  10.660  17.516  1.00  0.00    -0.273 N
ATOM      5  H1  UNL     1       5.012  11.149  17.728  1.00  0.00     0.193 HD
HETATM    6  C10 UNL     1       2.645   8.885  17.900  1.00  0.00     0.061 C
HETATM    7  C11 UNL     1       2.386   7.722  18.780  1.00  0.00    -0.000 C
HETATM    8  C12 UNL     1       1.372   6.799  18.175  1.00  0.00     0.007 C
HETATM    9  C13 UNL     1       1.905   5.597  17.507  1.00  0.00     0.020 C
HETATM   10  C14 UNL     1       3.361   5.493  17.316  1.00  0.00     0.083 C
HETATM   11 CL1  UNL     1       3.827   6.037  15.660  1.00  0.00    -0.125 Cl
HETATM   12  C15 UNL     1       4.251   6.070  18.371  1.00  0.00     0.030 C
HETATM   13  C16 UNL     1       3.622   7.018  19.291  1.00  0.00    -0.033 C
HETATM   14  C17 UNL     1       3.054   6.176  20.458  1.00  0.00     0.016 C
HETATM   15  C18 UNL     1       4.519   8.046  19.955  1.00  0.00     0.017 C
ENDROOT
BRANCH   1  16
HETATM   16  C2  UNL     1       4.899  10.438  20.102  1.00  0.00    -0.021 C
HETATM   17  C1  UNL     1       6.006  11.141  20.323  1.00  0.00     0.008 C
ENDBRANCH   1  16
BRANCH   4  18
HETATM   18  O1  UNL     1       3.357  11.186  16.557  1.00  0.00    -0.271 OA
BRANCH  18  19
HETATM   19  C6  UNL     1       3.845  12.169  15.685  1.00  0.00     0.078 C
HETATM   20  C7  UNL     1       5.308  12.396  16.039  1.00  0.00     0.048 C
HETATM   21  C8  UNL     1       3.095  13.464  15.835  1.00  0.00     0.048 C
HETATM   22  C9  UNL     1       3.693  11.672  14.269  1.00  0.00     0.048 C
ENDBRANCH  18  19
ENDBRANCH   4  18
BRANCH  15  23
HETATM   23  C19 UNL     1       5.455   7.458  20.950  1.00  0.00     0.011 C
HETATM   24  C20 UNL     1       5.187   7.919  22.397  1.00  0.00     0.012 C
BRANCH  23  25
HETATM   25  C21 UNL     1       6.914   7.624  20.786  1.00  0.00     0.168 C
BRANCH  25  26
HETATM   26  O2  UNL     1       7.325   8.393  21.916  1.00  0.00    -0.400 OA
ATOM     27  H2  UNL     1       7.945   9.023  21.569  1.00  0.00     0.209 HD
ENDBRANCH  25  26
ENDBRANCH  23  25
ENDBRANCH  15  23
TORSDOF 6
ENDMDL