MODEL 1
REMARK VINA RESULT: -6.999619359      0.000      0.000
REMARK  6 active torsions:
REMARK  status: ('A' for Active; 'I' for Inactive)
REMARK    1  A    between atoms: C2_2  and  N1_4
REMARK    2  A    between atoms: N1_4  and  C4_5
REMARK    3  A    between atoms: N1_4  and  C13_20
REMARK    4  A    between atoms: C4_5  and  N2_7
REMARK    5  A    between atoms: N2_7  and  C5_9
REMARK    6  A    between atoms: C6_11  and  C7_12
ROOT
HETATM    1  C5  UNL     1       2.931   7.954  18.046  1.00  0.00     0.097 A
HETATM    2  S2  UNL     1       3.941   7.930  19.498  1.00  0.00    -0.075 SA
HETATM    3  C6  UNL     1       3.168   6.702  20.357  1.00  0.00    -0.008 A
HETATM    4  C10 UNL     1       2.154   6.336  19.521  1.00  0.00     0.040 A
HETATM    5  C11 UNL     1       2.043   6.992  18.336  1.00  0.00     0.079 A
HETATM    6  C12 UNL     1       0.855   6.708  17.488  1.00  0.00     0.102 C
HETATM    7  N3  UNL     1      -0.123   6.489  16.855  1.00  0.00    -0.191 NA
ENDROOT
BRANCH   1   8
HETATM    8  N2  UNL     1       3.138   8.913  17.016  1.00  0.00    -0.326 N
ATOM      9  H2  UNL     1       2.331   8.996  16.398  1.00  0.00     0.169 HD
BRANCH   8  10
HETATM   10  C4  UNL     1       4.155   9.749  16.654  1.00  0.00     0.179 C
HETATM   11  S1  UNL     1       5.598   9.114  16.100  1.00  0.00    -0.040 SA
BRANCH  10  12
HETATM   12  N1  UNL     1       4.206  11.189  16.845  1.00  0.00    -0.323 N
BRANCH  12  13
HETATM   13  C2  UNL     1       4.244  11.624  18.229  1.00  0.00    -0.015 C
HETATM   14  C1  UNL     1       5.520  11.265  18.944  1.00  0.00     0.063 C
HETATM   15  C3  UNL     1       3.013  11.545  19.033  1.00  0.00     0.063 C
ENDBRANCH  12  13
BRANCH  12  16
HETATM   16  C13 UNL     1       4.149  12.051  15.717  1.00  0.00     0.028 C
HETATM   17  C14 UNL     1       3.775  11.334  14.436  1.00  0.00     0.038 C
HETATM   18  C15 UNL     1       3.180  13.218  15.891  1.00  0.00     0.038 C
HETATM   19  C16 UNL     1       5.477  12.787  15.471  1.00  0.00     0.038 C
ENDBRANCH  12  16
ENDBRANCH  10  12
ENDBRANCH   8  10
ENDBRANCH   1   8
BRANCH   3  20
HETATM   20  C7  UNL     1       3.486   6.116  21.721  1.00  0.00     0.045 A
HETATM   21  C8  UNL     1       4.753   6.673  22.306  1.00  0.00     0.032 A
HETATM   22  C9  UNL     1       3.402   6.942  22.920  1.00  0.00     0.092 A
HETATM   23 CL1  UNL     1       3.137   6.048  24.457  1.00  0.00    -0.124 Cl
ENDBRANCH   3  20
TORSDOF 6
ENDMDL