MODEL 3
REMARK VINA RESULT: -8.645710399      1.949      4.735
REMARK  4 active torsions:
REMARK  status: ('A' for Active; 'I' for Inactive)
REMARK    1  A    between atoms: C2_2  and  C3_3
REMARK    2  A    between atoms: C6_6  and  C7_7
REMARK    3  A    between atoms: C7_7  and  C8_8
REMARK    4  A    between atoms: C20_23  and  O3_25
ROOT
HETATM    1  C3  UNL     1       1.915   7.186  17.663  1.00  0.00     0.059 C
HETATM    2  C4  UNL     1       1.582   6.213  16.511  1.00  0.00     0.046 C
HETATM    3  C5  UNL     1       2.331   6.366  18.833  1.00  0.00     0.049 C
HETATM    4  C6  UNL     1       3.429   7.360  19.460  1.00  0.00     0.052 C
HETATM    5  C11 UNL     1       3.997   7.908  18.277  1.00  0.00     0.137 A
HETATM    6  O1  UNL     1       2.894   8.021  17.350  1.00  0.00    -0.362 OA
HETATM    7  C12 UNL     1       5.131   7.450  17.522  1.00  0.00     0.090 A
HETATM    8  C13 UNL     1       4.867   6.952  16.086  1.00  0.00     0.049 C
HETATM    9  C14 UNL     1       6.223   6.579  18.054  1.00  0.00     0.049 C
HETATM   10  O2  UNL     1       5.652   8.722  17.435  1.00  0.00    -0.356 OA
HETATM   11  C15 UNL     1       4.631   9.307  18.202  1.00  0.00     0.148 A
HETATM   12  C16 UNL     1       5.076   9.837  19.491  1.00  0.00     0.018 C
HETATM   13  C17 UNL     1       4.816  11.048  19.944  1.00  0.00    -0.001 C
HETATM   14  C18 UNL     1       4.068  12.015  19.185  1.00  0.00    -0.001 C
HETATM   15  C19 UNL     1       3.675  11.670  18.000  1.00  0.00     0.014 C
HETATM   16  C20 UNL     1       3.982  10.356  17.407  1.00  0.00     0.110 C
HETATM   17  C21 UNL     1       5.130  10.776  16.375  1.00  0.00     0.054 C
ENDROOT
BRANCH   4  18
HETATM   18  C7  UNL     1       3.978   6.459  20.466  1.00  0.00    -0.017 C
BRANCH  18  19
HETATM   19  C8  UNL     1       3.363   6.189  21.752  1.00  0.00     0.015 C
HETATM   20  C9  UNL     1       3.792   6.653  22.926  1.00  0.00     0.007 C
HETATM   21  C10 UNL     1       3.100   6.327  24.195  1.00  0.00     0.062 C
HETATM   22 CL1  UNL     1       5.219   7.672  22.887  1.00  0.00    -0.089 Cl
ENDBRANCH  18  19
ENDBRANCH   4  18
BRANCH   1  23
HETATM   23  C2  UNL     1       0.565   7.761  18.040  1.00  0.00     0.033 C
HETATM   24  C1  UNL     1      -0.335   6.850  18.787  1.00  0.00     0.008 C
ENDBRANCH   1  23
BRANCH  16  25
HETATM   25  O3  UNL     1       2.992   9.982  16.497  1.00  0.00    -0.383 OA
ATOM     26  H3  UNL     1       2.085  10.009  16.781  1.00  0.00     0.211 HD
ENDBRANCH  16  25
TORSDOF 4
ENDMDL