MODEL 5
REMARK VINA RESULT: -6.720738862      3.118      4.525
REMARK  4 active torsions:
REMARK  status: ('A' for Active; 'I' for Inactive)
REMARK    1  A    between atoms: C2_2  and  C4_4
REMARK    2  A    between atoms: C4_4  and  C5_5
REMARK    3  A    between atoms: C8_8  and  C9_9
REMARK    4  A    between atoms: C12_14  and  O1_16
ROOT
HETATM    1  C9  UNL     1       3.940   8.760  17.082  1.00  0.00     0.051 C
HETATM    2  C10 UNL     1       5.250   8.510  16.439  1.00  0.00     0.165 C
HETATM    3  C11 UNL     1       5.098   7.932  15.082  1.00  0.00     0.075 C
HETATM    4  N1  UNL     1       4.991   7.470  14.023  1.00  0.00    -0.196 NA
HETATM    5  S1  UNL     1       6.274   9.971  16.264  1.00  0.00    -0.111 SA
HETATM    6  C12 UNL     1       5.149  11.309  15.679  1.00  0.00     0.108 C
HETATM    7  C13 UNL     1       5.842  12.573  16.058  1.00  0.00     0.058 C
HETATM    8  C14 UNL     1       3.783  11.080  16.105  1.00  0.00     0.039 C
HETATM    9  C15 UNL     1       2.903  12.286  16.333  1.00  0.00    -0.010 C
HETATM   10  C16 UNL     1       2.788  13.210  15.175  1.00  0.00     0.010 C
HETATM   11  C17 UNL     1       3.189  13.003  17.613  1.00  0.00     0.005 C
HETATM   12  C18 UNL     1       3.398  12.146  18.789  1.00  0.00     0.001 C
HETATM   13  C19 UNL     1       3.995  10.799  18.595  1.00  0.00     0.006 C
HETATM   14  C20 UNL     1       3.559  10.192  17.314  1.00  0.00     0.004 C
ENDROOT
BRANCH   1  15
HETATM   15  C8  UNL     1       3.904   8.050  18.381  1.00  0.00    -0.049 A
HETATM   16  C7  UNL     1       4.938   7.998  19.283  1.00  0.00     0.008 A
HETATM   17  C6  UNL     1       4.823   7.329  20.482  1.00  0.00     0.011 A
HETATM   18  C5  UNL     1       3.661   6.676  20.836  1.00  0.00    -0.019 A
HETATM   19  C22 UNL     1       2.613   6.728  19.922  1.00  0.00     0.123 A
HETATM   20  C21 UNL     1       2.739   7.401  18.725  1.00  0.00     0.050 A
HETATM   21  F1  UNL     1       1.451   6.086  20.258  1.00  0.00    -0.206 F
BRANCH  18  22
HETATM   22  C4  UNL     1       3.432   5.954  22.092  1.00  0.00     0.045 C
BRANCH  22  23
HETATM   23  C2  UNL     1       3.510   6.763  23.340  1.00  0.00    -0.018 C
HETATM   24  C1  UNL     1       2.698   5.981  24.392  1.00  0.00     0.010 C
HETATM   25  C3  UNL     1       4.921   6.803  23.926  1.00  0.00     0.010 C
ENDBRANCH  22  23
ENDBRANCH  18  22
ENDBRANCH   1  15
BRANCH   6  26
HETATM   26  O1  UNL     1       5.235  11.240  14.264  1.00  0.00    -0.379 OA
ATOM     27  H1  UNL     1       4.353  11.433  13.968  1.00  0.00     0.211 HD
ENDBRANCH   6  26
TORSDOF 4
ENDMDL