MODEL 5
REMARK VINA RESULT: -9.106694583      3.115      4.594
REMARK  3 active torsions:
REMARK  status: ('A' for Active; 'I' for Inactive)
REMARK    1  A    between atoms: C2_2  and  C3_3
REMARK    2  A    between atoms: C3_3  and  C4_4
REMARK    3  A    between atoms: N4_15  and  C10_17
ROOT
HETATM    1  C4  UNL     1       4.798  11.596  16.467  1.00  0.00    -0.063 C
HETATM    2  C5  UNL     1       5.450  10.836  15.551  1.00  0.00     0.097 C
HETATM    3  N1  UNL     1       5.727   9.556  16.087  1.00  0.00    -0.322 N
HETATM    4  C6  UNL     1       5.232   8.353  15.521  1.00  0.00     0.102 C
HETATM    5  N2  UNL     1       5.474   8.100  14.342  1.00  0.00    -0.387 N
ATOM      6  H21 UNL     1       5.117   7.235  13.936  1.00  0.00     0.157 HD
ATOM      7  H22 UNL     1       6.054   8.614  13.680  1.00  0.00     0.157 HD
HETATM    8  C7  UNL     1       4.355   7.577  16.522  1.00  0.00     0.206 C
HETATM    9  C8  UNL     1       4.791   6.265  16.751  1.00  0.00     0.077 C
HETATM   10  N3  UNL     1       5.169   5.206  16.926  1.00  0.00    -0.196 NA
HETATM   11  C9  UNL     1       4.153   8.466  17.717  1.00  0.00     0.020 C
HETATM   12  N4  UNL     1       3.159   8.161  18.470  1.00  0.00    -0.361 N
ATOM     13  H4  UNL     1       3.033   8.772  19.276  1.00  0.00     0.165 HD
HETATM   14  C18 UNL     1       4.944   9.650  18.137  1.00  0.00     0.081 C
HETATM   15  C19 UNL     1       4.417  10.985  17.771  1.00  0.00     0.049 C
HETATM   16  C20 UNL     1       6.344   9.536  17.391  1.00  0.00     0.120 C
HETATM   17  C21 UNL     1       7.111   8.366  17.797  1.00  0.00     0.058 C
HETATM   18 CL1  UNL     1       7.171  11.056  17.796  1.00  0.00    -0.095 Cl
ENDROOT
BRANCH  12  19
HETATM   19  C10 UNL     1       2.232   7.141  18.369  1.00  0.00     0.033 A
HETATM   20  C11 UNL     1       2.220   5.973  19.106  1.00  0.00     0.036 A
HETATM   21  C12 UNL     1       1.264   4.999  18.940  1.00  0.00    -0.059 A
HETATM   22  C13 UNL     1       1.327   3.774  19.777  1.00  0.00     0.048 C
HETATM   23  C14 UNL     1       0.258   5.151  18.013  1.00  0.00     0.013 A
HETATM   24  C15 UNL     1       0.233   6.317  17.245  1.00  0.00    -0.059 A
HETATM   25  C16 UNL     1      -0.861   6.459  16.252  1.00  0.00     0.048 C
HETATM   26  C17 UNL     1       1.202   7.281  17.429  1.00  0.00     0.036 A
ENDBRANCH  12  19
BRANCH   1  27
HETATM   27  C3  UNL     1       4.451  12.951  16.066  1.00  0.00     0.035 C
BRANCH  27  28
HETATM   28  C2  UNL     1       3.782  13.008  14.710  1.00  0.00    -0.000 C
HETATM   29  C1  UNL     1       2.361  13.454  14.882  1.00  0.00     0.005 C
ENDBRANCH  27  28
ENDBRANCH   1  27
TORSDOF 3
ENDMDL