MODEL 5
REMARK VINA RESULT: -8.184626869      3.176      5.968
REMARK  4 active torsions:
REMARK  status: ('A' for Active; 'I' for Inactive)
REMARK    1  A    between atoms: C4_4  and  O1_5
REMARK    2  A    between atoms: C5_7  and  C7_9
REMARK    3  A    between atoms: C7_9  and  C8_10
REMARK    4  A    between atoms: C8_10  and  C9_11
ROOT
HETATM    1  C1  UNL     1       2.656   6.435  23.890  1.00  0.00     0.015 C
HETATM    2  C2  UNL     1       3.670   6.519  23.041  1.00  0.00    -0.082 C
HETATM    3  C3  UNL     1       4.845   7.340  23.452  1.00  0.00     0.066 C
HETATM    4  C4  UNL     1       5.921   7.382  22.387  1.00  0.00     0.130 C
HETATM    5  C5  UNL     1       5.272   7.784  21.083  1.00  0.00    -0.013 C
HETATM    6  C6  UNL     1       4.626   9.140  21.574  1.00  0.00     0.018 C
HETATM    7  C17 UNL     1       4.113   6.976  20.720  1.00  0.00     0.008 C
HETATM    8  C18 UNL     1       4.090   6.148  19.484  1.00  0.00    -0.013 C
HETATM    9  C19 UNL     1       3.744   6.982  18.254  1.00  0.00     0.010 C
HETATM   10  C20 UNL     1       2.857   5.253  19.723  1.00  0.00     0.005 C
HETATM   11  C21 UNL     1       2.393   5.511  21.136  1.00  0.00     0.010 C
HETATM   12  C22 UNL     1       3.742   5.882  21.742  1.00  0.00     0.019 C
ENDROOT
BRANCH   5  13
HETATM   13  C7  UNL     1       6.218   8.261  20.051  1.00  0.00     0.015 C
BRANCH  13  14
HETATM   14  C8  UNL     1       6.524   9.702  19.941  1.00  0.00     0.042 C
BRANCH  14  15
HETATM   15  C9  UNL     1       6.390  10.224  18.507  1.00  0.00     0.093 C
HETATM   16  C10 UNL     1       7.161   9.373  17.542  1.00  0.00     0.049 C
HETATM   17  C11 UNL     1       6.607  11.687  18.396  1.00  0.00     0.043 C
HETATM   18  C12 UNL     1       6.849  12.159  16.994  1.00  0.00     0.043 C
HETATM   19  C13 UNL     1       5.700  12.162  16.090  1.00  0.00     0.207 C
HETATM   20  F1  UNL     1       5.230  13.467  15.881  1.00  0.00    -0.246 F
HETATM   21  C14 UNL     1       4.533  11.323  16.453  1.00  0.00     0.119 C
HETATM   22  C15 UNL     1       3.536  12.018  17.359  1.00  0.00     0.052 C
HETATM   23  C16 UNL     1       3.770  11.040  15.148  1.00  0.00     0.052 C
HETATM   24  O2  UNL     1       4.887  10.068  16.943  1.00  0.00    -0.227 OA
HETATM   25  O3  UNL     1       5.007  10.031  18.228  1.00  0.00    -0.229 OA
ENDBRANCH  14  15
ENDBRANCH  13  14
ENDBRANCH   5  13
BRANCH   4  26
HETATM   26  O1  UNL     1       6.639   6.261  22.420  1.00  0.00    -0.394 OA
ATOM     27  H1  UNL     1       7.075   6.179  23.260  1.00  0.00     0.210 HD
ENDBRANCH   4  26
TORSDOF 4
ENDMDL