MODEL 5
REMARK VINA RESULT: -6.212884044      2.926      6.876
REMARK  4 active torsions:
REMARK  status: ('A' for Active; 'I' for Inactive)
REMARK    1  A    between atoms: C2_2  and  C3_3
REMARK    2  A    between atoms: C9_9  and  O1_10
REMARK    3  A    between atoms: C12_14  and  O2_15
REMARK    4  A    between atoms: C14_17  and  O3_18
ROOT
HETATM    1  C3  UNL     1       2.626   4.582  19.855  1.00  0.00    -0.006 C
HETATM    2  C4  UNL     1       2.715   5.032  21.275  1.00  0.00     0.006 C
HETATM    3  C5  UNL     1       3.303   6.452  21.256  1.00  0.00     0.006 C
HETATM    4  C6  UNL     1       3.764   6.579  19.862  1.00  0.00     0.002 C
HETATM    5  C7  UNL     1       4.018   7.929  19.336  1.00  0.00     0.038 C
HETATM    6  C8  UNL     1       4.931   8.742  20.188  1.00  0.00     0.045 C
HETATM    7  C9  UNL     1       6.051   9.414  19.473  1.00  0.00     0.152 C
HETATM    8  C10 UNL     1       5.678   9.891  18.107  1.00  0.00    -0.017 A
HETATM    9  C11 UNL     1       6.041  11.117  17.613  1.00  0.00     0.050 A
HETATM   10  C12 UNL     1       5.659  11.478  16.351  1.00  0.00     0.102 A
HETATM   11  C14 UNL     1       4.908  10.614  15.564  1.00  0.00     0.102 A
HETATM   12  C16 UNL     1       4.549   9.387  16.067  1.00  0.00     0.050 A
HETATM   13  C17 UNL     1       4.933   9.021  17.340  1.00  0.00    -0.007 A
HETATM   14  C18 UNL     1       4.574   7.727  17.915  1.00  0.00     0.135 C
HETATM   15  F1  UNL     1       5.708   6.921  18.063  1.00  0.00    -0.237 F
HETATM   16  C19 UNL     1       3.579   7.013  17.072  1.00  0.00     0.050 C
HETATM   17  C20 UNL     1       3.013   5.772  17.675  1.00  0.00     0.013 C
HETATM   18  C21 UNL     1       2.620   5.904  19.104  1.00  0.00    -0.036 C
HETATM   19  C22 UNL     1       1.303   6.549  19.343  1.00  0.00     0.016 C
ENDROOT
BRANCH   1  20
HETATM   20  C2  UNL     1       1.406   3.760  19.549  1.00  0.00     0.001 C
HETATM   21  C1  UNL     1       1.610   2.777  18.449  1.00  0.00     0.005 C
ENDBRANCH   1  20
BRANCH   7  22
HETATM   22  O1  UNL     1       6.403  10.573  20.203  1.00  0.00    -0.391 OA
ATOM     23  H1  UNL     1       6.485  10.332  21.118  1.00  0.00     0.210 HD
ENDBRANCH   7  22
BRANCH  11  24
HETATM   24  O3  UNL     1       4.542  11.027  14.280  1.00  0.00    -0.353 OA
HETATM   25  C15 UNL     1       3.238  11.545  14.104  1.00  0.00     0.210 C
ENDBRANCH  11  24
BRANCH  10  26
HETATM   26  O2  UNL     1       6.011  12.721  15.815  1.00  0.00    -0.353 OA
HETATM   27  C13 UNL     1       5.068  13.775  15.888  1.00  0.00     0.210 C
ENDBRANCH  10  26
TORSDOF 4
ENDMDL