MODEL 4
REMARK VINA RESULT: -6.875723538      2.100      2.700
REMARK  4 active torsions:
REMARK  status: ('A' for Active; 'I' for Inactive)
REMARK    1  A    between atoms: C2_4  and  C3_5
REMARK    2  A    between atoms: C4_6  and  C5_7
REMARK    3  A    between atoms: N3_13  and  C9_14
REMARK    4  A    between atoms: C9_14  and  C10_15
ROOT
HETATM    1  C3  UNL     1       4.778   8.464  16.285  1.00  0.00     0.043 A
HETATM    2  C4  UNL     1       5.595   7.383  16.032  1.00  0.00     0.048 A
HETATM    3  N2  UNL     1       5.039   6.359  16.700  1.00  0.00    -0.300 N
ATOM      4  H2  UNL     1       5.407   5.408  16.716  1.00  0.00     0.187 HD
HETATM    5  N3  UNL     1       3.928   6.762  17.345  1.00  0.00    -0.276 N
HETATM    6  C16 UNL     1       3.732   8.066  17.113  1.00  0.00     0.131 A
HETATM    7  S1  UNL     1       2.541   9.029  17.662  1.00  0.00    -0.058 SA
ENDROOT
BRANCH   5   8
HETATM    8  C9  UNL     1       3.081   5.888  18.163  1.00  0.00     0.188 C
BRANCH   8   9
HETATM    9  C10 UNL     1       3.273   6.076  19.604  1.00  0.00    -0.038 A
HETATM   10  C11 UNL     1       2.320   5.518  20.461  1.00  0.00     0.010 A
HETATM   11  C12 UNL     1       2.436   5.651  21.848  1.00  0.00     0.019 A
HETATM   12  C13 UNL     1       3.500   6.337  22.388  1.00  0.00     0.011 A
HETATM   13 BR1  UNL     1       3.679   6.529  24.269  1.00  0.00    -0.051 Br
HETATM   14  C14 UNL     1       4.456   6.897  21.575  1.00  0.00     0.019 A
HETATM   15  C15 UNL     1       4.314   6.750  20.191  1.00  0.00     0.010 A
ENDBRANCH   8   9
ENDBRANCH   5   8
BRANCH   2  16
HETATM   16  C5  UNL     1       6.827   7.362  15.196  1.00  0.00    -0.006 C
HETATM   17  C6  UNL     1       7.400   5.941  15.243  1.00  0.00     0.021 C
HETATM   18  C7  UNL     1       6.525   7.739  13.785  1.00  0.00     0.021 C
HETATM   19  C8  UNL     1       7.905   8.267  15.800  1.00  0.00     0.021 C
ENDBRANCH   2  16
BRANCH   1  20
HETATM   20  C2  UNL     1       4.939   9.823  15.794  1.00  0.00     0.099 C
HETATM   21  N1  UNL     1       4.073  10.380  15.008  1.00  0.00    -0.402 N
HETATM   22  C1  UNL     1       4.271  11.733  14.543  1.00  0.00     0.145 C
ATOM     23  H1  UNL     1       3.246   9.859  14.716  1.00  0.00     0.158 HD
ENDBRANCH   1  20
TORSDOF 4
ENDMDL