MODEL 2
REMARK VINA RESULT: -7.795620104      0.903      1.050
REMARK  13 active torsions:
REMARK  status: ('A' for Active; 'I' for Inactive)
REMARK       I    between atoms: C2_2  and  N1_4
REMARK    1  A    between atoms: N1_4  and  C3_6
REMARK    2  A    between atoms: C3_6  and  C4_7
REMARK    3  A    between atoms: C3_6  and  C15_43
REMARK    4  A    between atoms: C6_11  and  C7_12
REMARK    5  A    between atoms: C7_12  and  N3_13
REMARK    6  A    between atoms: C7_12  and  C10_29
REMARK    7  A    between atoms: N3_13  and  C8_15
REMARK    8  A    between atoms: C9_18  and  N5_19
REMARK    9  A    between atoms: C11_31  and  C12_32
REMARK   10  A    between atoms: C12_32  and  O3_33
REMARK   11  A    between atoms: C12_32  and  O4_35
REMARK   12  A    between atoms: C15_43  and  O5_44
REMARK   13  A    between atoms: C15_43  and  O6_46
ROOT
HETATM    1  C10 UNL     1      13.031  -8.060  -1.672  1.00  0.00     0.122 A
HETATM    2  O2  UNL     1      13.787  -8.863  -0.974  1.00  0.00    -0.291 OA
HETATM    3  C11 UNL     1      13.100  -9.807  -0.397  1.00  0.00     0.180 A
HETATM    4  N9  UNL     1      11.815  -9.615  -0.738  1.00  0.00    -0.325 N
ATOM      5  H9  UNL     1      11.028 -10.193  -0.443  1.00  0.00     0.168 HD
HETATM    6  C13 UNL     1      11.738  -8.526  -1.537  1.00  0.00     0.148 A
HETATM    7  C14 UNL     1      10.537  -7.994  -2.110  1.00  0.00     0.120 C
HETATM    8  N10 UNL     1       9.568  -7.563  -2.574  1.00  0.00    -0.190 NA
ENDROOT
BRANCH   1   9
HETATM    9  C7  UNL     1      13.449  -6.875  -2.465  1.00  0.00     0.217 C
BRANCH   9  10
HETATM   10  C6  UNL     1      14.824  -6.487  -2.044  1.00  0.00     0.081 A
HETATM   11  N2  UNL     1      15.831  -6.254  -2.865  1.00  0.00    -0.360 N
HETATM   12  C5  UNL     1      16.992  -5.920  -2.396  1.00  0.00     0.105 A
ATOM     13  H2  UNL     1      15.696  -6.338  -3.872  1.00  0.00     0.165 HD
HETATM   14  C4  UNL     1      17.127  -5.821  -1.036  1.00  0.00     0.027 A
HETATM   15  S1  UNL     1      15.536  -6.223  -0.516  1.00  0.00    -0.075 SA
BRANCH  14  16
HETATM   16  C3  UNL     1      18.327  -5.460  -0.210  1.00  0.00     0.180 C
BRANCH  16  17
HETATM   17  N1  UNL     1      17.814  -5.286   1.153  1.00  0.00    -0.347 N
HETATM   18  C2  UNL     1      17.448  -4.007   1.634  1.00  0.00     0.214 C
HETATM   19  C1  UNL     1      16.929  -3.836   3.014  1.00  0.00     0.117 C
HETATM   20  O1  UNL     1      17.558  -2.984   0.897  1.00  0.00    -0.274 OA
ATOM     21  H1  UNL     1      17.719  -6.098   1.762  1.00  0.00     0.163 HD
ENDBRANCH  16  17
BRANCH  16  22
HETATM   22  C15 UNL     1      19.341  -6.553  -0.193  1.00  0.00     0.281 C
BRANCH  22  23
HETATM   23  O5  UNL     1      18.614  -7.765  -0.275  1.00  0.00    -0.369 OA
ATOM     24  H5  UNL     1      18.135  -7.731  -1.096  1.00  0.00     0.212 HD
ENDBRANCH  22  23
BRANCH  22  25
HETATM   25  O6  UNL     1      19.996  -6.618   1.037  1.00  0.00    -0.369 OA
ATOM     26  H6  UNL     1      20.736  -7.215   1.004  1.00  0.00     0.212 HD
ENDBRANCH  22  25
ENDBRANCH  16  22
ENDBRANCH  14  16
ENDBRANCH   9  10
BRANCH   9  27
HETATM   27  N3  UNL     1      13.522  -7.228  -3.889  1.00  0.00    -0.208 N
ATOM     28  H3  UNL     1      14.220  -7.903  -4.201  1.00  0.00     0.179 HD
BRANCH  27  29
HETATM   29  C8  UNL     1      12.635  -6.646  -4.849  1.00  0.00     0.693 C
HETATM   30  N4  UNL     1      11.631  -5.903  -4.527  1.00  0.00    -0.177 N
HETATM   31  C9  UNL     1      10.819  -5.379  -5.581  1.00  0.00     0.416 C
ATOM     32  H4  UNL     1      11.422  -5.695  -3.551  1.00  0.00     0.181 HD
HETATM   33  N6  UNL     1      10.670  -6.245  -6.701  1.00  0.00    -0.274 N
HETATM   34  N7  UNL     1      11.797  -6.913  -7.108  1.00  0.00    -0.230 N
ATOM     35  H6  UNL     1       9.774  -6.362  -7.176  1.00  0.00     0.185 HD
HETATM   36  N8  UNL     1      12.859  -6.889  -6.231  1.00  0.00    -0.118 N
ATOM     37  H7  UNL     1      11.846  -7.397  -8.004  1.00  0.00     0.208 HD
ATOM     38  H8  UNL     1      13.806  -7.045  -6.574  1.00  0.00     0.207 HD
BRANCH  31  39
HETATM   39  N5  UNL     1      11.370  -4.074  -5.945  1.00  0.00    -0.039 N
ATOM     40  H53 UNL     1      12.036  -3.717  -5.260  1.00  0.00     0.279 HD
ATOM     41  H52 UNL     1      12.009  -4.117  -6.739  1.00  0.00     0.279 HD
ATOM     42  H51 UNL     1      10.582  -3.445  -6.100  1.00  0.00     0.279 HD
ENDBRANCH  31  39
ENDBRANCH  27  29
ENDBRANCH   9  27
ENDBRANCH   1   9
BRANCH   3  43
HETATM   43  C12 UNL     1      13.690 -10.879   0.470  1.00  0.00     0.331 C
BRANCH  43  44
HETATM   44  O3  UNL     1      13.877 -10.337   1.733  1.00  0.00    -0.364 OA
ATOM     45  H3  UNL     1      13.980 -11.060   2.341  1.00  0.00     0.213 HD
ENDBRANCH  43  44
BRANCH  43  46
HETATM   46  O4  UNL     1      12.760 -11.900   0.568  1.00  0.00    -0.364 OA
ATOM     47  H4  UNL     1      13.234 -12.710   0.713  1.00  0.00     0.213 HD
ENDBRANCH  43  46
ENDBRANCH   3  43
TORSDOF 13
ENDMDL