MODEL 2
REMARK VINA RESULT: -8.656367830      1.243      1.538
REMARK  10 active torsions:
REMARK  status: ('A' for Active; 'I' for Inactive)
REMARK    1  A    between atoms: C3_5  and  N2_6
REMARK    2  A    between atoms: C4_11  and  N4_12
REMARK    3  A    between atoms: C5_15  and  N5_16
REMARK    4  A    between atoms: C6_19  and  C7_20
REMARK       I    between atoms: C7_20  and  N7_22
REMARK    5  A    between atoms: N7_22  and  C8_23
REMARK       I    between atoms: N8_24  and  C9_26
REMARK    6  A    between atoms: C9_26  and  C10_28
REMARK    7  A    between atoms: C10_28  and  O3_29
REMARK    8  A    between atoms: C10_28  and  N9_31
REMARK    9  A    between atoms: C11_33  and  C13_35
REMARK   10  A    between atoms: C15_43  and  N13_44
ROOT
HETATM    1  N5  UNL     1      12.850  -8.843  -1.865  1.00  0.00    -0.164 N
HETATM    2  N6  UNL     1      12.133  -8.428  -0.738  1.00  0.00    -0.253 N
ATOM      3  H6  UNL     1      11.312  -7.822  -0.731  1.00  0.00     0.191 HD
HETATM    4  C6  UNL     1      12.694  -8.946   0.269  1.00  0.00     0.247 A
HETATM    5  N10 UNL     1      13.723  -9.680  -0.106  1.00  0.00    -0.145 N
HETATM    6  N11 UNL     1      14.764 -10.327   0.473  1.00  0.00    -0.260 N
ATOM      7  H11 UNL     1      14.915 -10.477   1.471  1.00  0.00     0.190 HD
HETATM    8  C14 UNL     1      15.525 -10.712  -0.493  1.00  0.00     0.180 A
HETATM    9  N12 UNL     1      16.892 -11.181  -0.242  1.00  0.00    -0.077 NA
HETATM   10  C15 UNL     1      14.993 -10.334  -1.749  1.00  0.00     0.186 A
HETATM   11  N14 UNL     1      13.872  -9.665  -1.457  1.00  0.00    -0.131 N
ENDROOT
BRANCH   4  12
HETATM   12  C7  UNL     1      12.464  -8.988   1.860  1.00  0.00     0.366 C
HETATM   13  O1  UNL     1      12.492 -10.158   2.110  1.00  0.00    -0.247 OA
HETATM   14  N7  UNL     1      12.380  -7.799   2.098  1.00  0.00    -0.359 NA
BRANCH  14  15
HETATM   15  C8  UNL     1      12.277  -6.430   2.406  1.00  0.00     0.282 C
HETATM   16  N8  UNL     1      13.233  -5.683   1.880  1.00  0.00    -0.305 N
HETATM   17  C9  UNL     1      14.588  -5.656   2.225  1.00  0.00     0.298 C
ATOM     18  H8  UNL     1      12.947  -5.051   1.132  1.00  0.00     0.171 HD
HETATM   19  O2  UNL     1      15.104  -6.305   3.212  1.00  0.00    -0.263 OA
BRANCH  17  20
HETATM   20  C10 UNL     1      15.459  -4.815   1.332  1.00  0.00     0.210 C
BRANCH  20  21
HETATM   21  O3  UNL     1      14.663  -4.052   0.509  1.00  0.00    -0.342 OA
ATOM     22  H3  UNL     1      15.048  -3.189   0.412  1.00  0.00     0.219 HD
ENDBRANCH  20  21
BRANCH  20  23
HETATM   23  N9  UNL     1      16.630  -4.233   1.772  1.00  0.00    -0.331 N
HETATM   24  C11 UNL     1      17.868  -4.428   1.230  1.00  0.00     0.084 C
HETATM   25  C12 UNL     1      18.196  -4.056  -0.161  1.00  0.00     0.076 C
ATOM     26  H9  UNL     1      16.566  -3.603   2.571  1.00  0.00     0.168 HD
BRANCH  24  27
HETATM   27  C13 UNL     1      18.466  -5.774   1.652  1.00  0.00     0.222 C
HETATM   28  O4  UNL     1      18.530  -5.931   2.936  1.00  0.00    -0.643 OA
HETATM   29  O5  UNL     1      18.835  -6.673   0.716  1.00  0.00    -0.643 OA
ENDBRANCH  24  27
ENDBRANCH  20  23
ENDBRANCH  17  20
ENDBRANCH  14  15
ENDBRANCH   4  12
BRANCH   1  30
HETATM   30  C5  UNL     1      12.824  -8.173  -3.060  1.00  0.00     0.143 A
HETATM   31  C2  UNL     1      13.519  -7.057  -3.448  1.00  0.00     0.057 A
HETATM   32  C1  UNL     1      14.579  -6.446  -2.591  1.00  0.00     0.071 C
HETATM   33  N1  UNL     1      13.345  -6.600  -4.670  1.00  0.00    -0.194 N
HETATM   34  C3  UNL     1      12.468  -7.186  -5.633  1.00  0.00     0.677 A
ATOM     35  H1  UNL     1      13.872  -5.772  -4.948  1.00  0.00     0.184 HD
HETATM   36  N3  UNL     1      11.837  -8.254  -5.243  1.00  0.00    -0.175 N
HETATM   37  C4  UNL     1      11.989  -8.747  -4.071  1.00  0.00     0.147 A
ATOM     38  H3  UNL     1      11.200  -8.714  -5.893  1.00  0.00     0.186 HD
BRANCH  34  39
HETATM   39  N2  UNL     1      12.189  -6.454  -6.565  1.00  0.00    -0.234 N
ATOM     40  H22 UNL     1      12.235  -6.666  -7.562  1.00  0.00     0.174 HD
ATOM     41  H21 UNL     1      11.609  -5.655  -6.310  1.00  0.00     0.174 HD
ENDBRANCH  34  39
BRANCH  37  42
HETATM   42  N4  UNL     1      11.534  -9.949  -3.627  1.00  0.00    -0.383 N
ATOM     43  H42 UNL     1      12.336 -10.547  -3.428  1.00  0.00     0.157 HD
ATOM     44  H41 UNL     1      10.564 -10.264  -3.602  1.00  0.00     0.157 HD
ENDBRANCH  37  42
ENDBRANCH   1  30
BRANCH  10  45
HETATM   45  N13 UNL     1      15.550 -10.375  -2.862  1.00  0.00    -0.380 N
ATOM     46 2H13 UNL     1      16.462  -9.979  -3.090  1.00  0.00     0.158 HD
ATOM     47 1H13 UNL     1      15.316 -10.965  -3.661  1.00  0.00     0.158 HD
ENDBRANCH  10  45
TORSDOF 10
ENDMDL