MODEL 5
REMARK VINA RESULT: -7.130777323      1.085      1.397
REMARK  14 active torsions:
REMARK  status: ('A' for Active; 'I' for Inactive)
REMARK    1  A    between atoms: C5_10  and  N4_11
REMARK    2  A    between atoms: N4_11  and  C6_13
REMARK    3  A    between atoms: C7_14  and  C8_15
REMARK       I    between atoms: C8_15  and  N5_17
REMARK    4  A    between atoms: N5_17  and  N6_19
REMARK    5  A    between atoms: C9_24  and  O2_25
REMARK    6  A    between atoms: N8_27  and  C10_28
REMARK    7  A    between atoms: C10_28  and  C11_29
REMARK    8  A    between atoms: C11_29  and  C12_31
REMARK    9  A    between atoms: C12_31  and  N9_32
REMARK   10  A    between atoms: N9_32  and  C13_35
REMARK   11  A    between atoms: C13_35  and  N10_36
REMARK   12  A    between atoms: C13_35  and  C14_40
REMARK   13  A    between atoms: C14_40  and  O4_41
REMARK   14  A    between atoms: N11_43  and  O5_45
ROOT
HETATM    1  C6  UNL     1      15.922  -5.494  -0.830  1.00  0.00     0.145 A
HETATM    2  C7  UNL     1      17.300  -5.788  -0.834  1.00  0.00     0.150 A
HETATM    3  N7  UNL     1      17.515  -6.465  -1.994  1.00  0.00    -0.314 N
ATOM      4  H7  UNL     1      18.423  -6.821  -2.294  1.00  0.00     0.170 HD
HETATM    5  C9  UNL     1      16.407  -6.601  -2.673  1.00  0.00     0.226 A
HETATM    6  N8  UNL     1      15.422  -5.998  -1.945  1.00  0.00    -0.290 N
ENDROOT
BRANCH   6   7
HETATM    7  C10 UNL     1      14.050  -6.034  -2.380  1.00  0.00     0.214 C
BRANCH   7   8
HETATM    8  C11 UNL     1      13.269  -7.030  -1.579  1.00  0.00     0.170 C
HETATM    9  O3  UNL     1      12.355  -6.625  -0.886  1.00  0.00    -0.294 OA
BRANCH   8  10
HETATM   10  C12 UNL     1      13.581  -8.478  -1.610  1.00  0.00     0.315 C
BRANCH  10  11
HETATM   11  N9  UNL     1      13.922  -8.970  -0.273  1.00  0.00    -0.032 N
ATOM     12  H92 UNL     1      14.895  -9.264  -0.188  1.00  0.00     0.280 HD
ATOM     13  H91 UNL     1      13.948  -8.235   0.433  1.00  0.00     0.280 HD
BRANCH  11  14
HETATM   14  C13 UNL     1      12.976 -10.026   0.034  1.00  0.00     0.455 C
BRANCH  14  15
HETATM   15  N10 UNL     1      11.875  -9.474   0.762  1.00  0.00    -0.042 N
ATOM     16 3H10 UNL     1      11.316 -10.193   1.221  1.00  0.00     0.277 HD
ATOM     17 2H10 UNL     1      12.176  -8.970   1.597  1.00  0.00     0.277 HD
ATOM     18 1H10 UNL     1      11.318  -8.890   0.139  1.00  0.00     0.277 HD
ENDBRANCH  14  15
BRANCH  14  19
HETATM   19  C14 UNL     1      13.611 -11.120   0.808  1.00  0.00     0.194 C
HETATM   20  N11 UNL     1      14.393 -11.997   0.320  1.00  0.00    -0.248 N
ATOM     21  H11 UNL     1      14.758 -12.695   0.967  1.00  0.00     0.196 HD
BRANCH  19  22
HETATM   22  O4  UNL     1      13.330 -11.195   2.171  1.00  0.00    -0.345 OA
ATOM     23  H4  UNL     1      14.065 -11.198   2.773  1.00  0.00     0.219 HD
ENDBRANCH  19  22
BRANCH  20  24
HETATM   24  O5  UNL     1      14.790 -12.099  -0.973  1.00  0.00    -0.288 OA
ATOM     25  H5  UNL     1      14.393 -12.636  -1.647  1.00  0.00     0.244 HD
ENDBRANCH  20  24
ENDBRANCH  14  19
ENDBRANCH  11  14
ENDBRANCH  10  11
ENDBRANCH   8  10
ENDBRANCH   7   8
ENDBRANCH   6   7
BRANCH   1  26
HETATM   26  N4  UNL     1      15.320  -4.779   0.243  1.00  0.00    -0.328 N
ATOM     27  H4  UNL     1      15.077  -3.819   0.001  1.00  0.00     0.169 HD
BRANCH  26  28
HETATM   28  C5  UNL     1      14.995  -5.113   1.546  1.00  0.00     0.113 C
HETATM   29  N3  UNL     1      14.105  -6.082   1.667  1.00  0.00    -0.318 N
HETATM   30  C4  UNL     1      13.562  -6.650   2.866  1.00  0.00     0.191 C
ATOM     31  H3  UNL     1      13.758  -6.477   0.793  1.00  0.00     0.170 HD
HETATM   32  N1  UNL     1      13.362  -5.908   3.904  1.00  0.00    -0.339 N
HETATM   33  N2  UNL     1      13.262  -8.019   2.854  1.00  0.00    -0.063 NA
HETATM   34  C2  UNL     1      13.561  -4.521   4.213  1.00  0.00     0.095 C
ATOM     35  H1  UNL     1      12.971  -6.432   4.688  1.00  0.00     0.164 HD
HETATM   36  C1  UNL     1      13.797  -4.452   5.721  1.00  0.00     0.062 C
HETATM   37  C3  UNL     1      12.168  -3.880   4.012  1.00  0.00     0.062 C
HETATM   38  N12 UNL     1      14.441  -3.752   3.463  1.00  0.00    -0.382 N
HETATM   39  C15 UNL     1      15.523  -4.389   2.741  1.00  0.00     0.079 C
ATOM     40  H12 UNL     1      14.326  -2.739   3.420  1.00  0.00     0.157 HD
HETATM   41  C16 UNL     1      16.305  -5.308   3.618  1.00  0.00     0.046 C
HETATM   42  C17 UNL     1      16.428  -3.280   2.265  1.00  0.00     0.046 C
ENDBRANCH  26  28
ENDBRANCH   1  26
BRANCH   5  43
HETATM   43  O2  UNL     1      16.190  -7.231  -3.920  1.00  0.00    -0.332 OA
ATOM     44  H2  UNL     1      15.708  -8.025  -4.119  1.00  0.00     0.221 HD
ENDBRANCH   5  43
BRANCH   2  45
HETATM   45  C8  UNL     1      18.359  -5.497   0.088  1.00  0.00     0.290 C
HETATM   46  O1  UNL     1      19.002  -4.435   0.070  1.00  0.00    -0.264 OA
HETATM   47  N5  UNL     1      18.756  -6.424   1.111  1.00  0.00    -0.271 N
ATOM     48  H5  UNL     1      18.261  -7.313   1.172  1.00  0.00     0.189 HD
BRANCH  47  49
HETATM   49  N6  UNL     1      19.768  -6.180   2.017  1.00  0.00    -0.342 N
ATOM     50  H62 UNL     1      19.876  -5.220   2.344  1.00  0.00     0.176 HD
ATOM     51  H61 UNL     1      20.401  -6.898   2.367  1.00  0.00     0.176 HD
ENDBRANCH  47  49
ENDBRANCH   2  45
TORSDOF 14
ENDMDL