MODEL 5
REMARK VINA RESULT: -7.132559387      1.335      1.462
REMARK  15 active torsions:
REMARK  status: ('A' for Active; 'I' for Inactive)
REMARK       I    between atoms: C2_2  and  N1_4
REMARK    1  A    between atoms: N1_4  and  C3_6
REMARK    2  A    between atoms: C3_6  and  C4_7
REMARK    3  A    between atoms: C4_7  and  O2_8
REMARK    4  A    between atoms: C4_7  and  N2_10
REMARK    5  A    between atoms: N2_10  and  C5_12
REMARK    6  A    between atoms: N7_26  and  C10_27
REMARK    7  A    between atoms: C10_27  and  C11_28
REMARK    8  A    between atoms: C11_28  and  C12_29
REMARK    9  A    between atoms: C11_28  and  C15_43
REMARK   10  A    between atoms: C12_29  and  S1_30
REMARK   11  A    between atoms: S1_30  and  C13_31
REMARK   12  A    between atoms: C14_35  and  N9_36
REMARK   13  A    between atoms: N10_39  and  N11_40
REMARK   14  A    between atoms: C15_43  and  N12_44
REMARK   15  A    between atoms: C15_43  and  N13_48
ROOT
HETATM    1  C5  UNL     1      17.197  -5.500   0.949  1.00  0.00     0.149 A
HETATM    2  N3  UNL     1      18.366  -6.093   0.693  1.00  0.00    -0.175 N
ATOM      3  H3  UNL     1      19.182  -5.821   1.240  1.00  0.00     0.186 HD
HETATM    4  C6  UNL     1      18.510  -7.039  -0.259  1.00  0.00     0.679 A
HETATM    5  N4  UNL     1      19.669  -7.567  -0.453  1.00  0.00    -0.234 N
ATOM      6  H41 UNL     1      19.779  -8.282  -1.173  1.00  0.00     0.174 HD
ATOM      7  H42 UNL     1      20.492  -7.300   0.087  1.00  0.00     0.174 HD
HETATM    8  N5  UNL     1      17.430  -7.389  -0.967  1.00  0.00    -0.174 N
ATOM      9  H5  UNL     1      17.540  -8.104  -1.687  1.00  0.00     0.186 HD
HETATM   10  C7  UNL     1      16.199  -6.853  -0.788  1.00  0.00     0.155 A
HETATM   11  C8  UNL     1      16.088  -5.872   0.207  1.00  0.00     0.123 A
HETATM   12  N6  UNL     1      14.815  -5.481   0.176  1.00  0.00    -0.346 N
ATOM     13  H6  UNL     1      14.407  -4.771   0.783  1.00  0.00     0.167 HD
HETATM   14  C9  UNL     1      14.148  -6.162  -0.772  1.00  0.00     0.185 A
HETATM   15  N7  UNL     1      15.023  -7.024  -1.374  1.00  0.00    -0.326 N
ENDROOT
BRANCH  15  16
HETATM   16  C10 UNL     1      14.627  -7.980  -2.413  1.00  0.00     0.140 C
BRANCH  16  17
HETATM   17  C11 UNL     1      13.961  -9.198  -1.900  1.00  0.00     0.071 C
BRANCH  17  18
HETATM   18  C12 UNL     1      12.812  -9.644  -2.781  1.00  0.00     0.092 C
BRANCH  18  19
HETATM   19  S1  UNL     1      11.486  -8.557  -3.068  1.00  0.00    -0.091 SA
BRANCH  19  20
HETATM   20  C13 UNL     1      11.687  -7.452  -4.497  1.00  0.00     0.173 A
HETATM   21  N8  UNL     1      12.171  -7.897  -5.655  1.00  0.00    -0.302 N
HETATM   22  S2  UNL     1      12.171  -6.547  -6.641  1.00  0.00     0.026 SA
ATOM     23  H8  UNL     1      12.472  -8.843  -5.887  1.00  0.00     0.176 HD
HETATM   24  C14 UNL     1      11.541  -5.439  -5.518  1.00  0.00     0.182 A
HETATM   25  N10 UNL     1      11.357  -6.173  -4.420  1.00  0.00    -0.216 N
BRANCH  24  26
HETATM   26  N9  UNL     1      11.281  -4.152  -5.662  1.00  0.00    -0.377 N
ATOM     27  H92 UNL     1      11.655  -3.530  -6.378  1.00  0.00     0.158 HD
ATOM     28  H91 UNL     1      10.678  -3.545  -5.106  1.00  0.00     0.158 HD
ENDBRANCH  24  26
BRANCH  25  29
HETATM   29  N11 UNL     1      10.825  -5.583  -3.217  1.00  0.00    -0.334 N
ATOM     30 2H11 UNL     1       9.919  -5.873  -2.849  1.00  0.00     0.177 HD
ATOM     31 1H11 UNL     1      11.324  -4.864  -2.694  1.00  0.00     0.177 HD
ENDBRANCH  25  29
ENDBRANCH  19  20
ENDBRANCH  18  19
ENDBRANCH  17  18
BRANCH  17  32
HETATM   32  C15 UNL     1      14.926 -10.341  -1.717  1.00  0.00     0.384 C
BRANCH  32  33
HETATM   33  N12 UNL     1      15.506 -10.438  -0.403  1.00  0.00    -0.050 N
ATOM     34 3H12 UNL     1      14.772 -10.466   0.305  1.00  0.00     0.276 HD
ATOM     35 2H12 UNL     1      15.920 -11.360  -0.267  1.00  0.00     0.276 HD
ATOM     36 1H12 UNL     1      16.185  -9.709  -0.180  1.00  0.00     0.276 HD
ENDBRANCH  32  33
BRANCH  32  37
HETATM   37  N13 UNL     1      15.943 -10.348  -2.763  1.00  0.00    -0.050 N
ATOM     38 3H13 UNL     1      15.528 -10.437  -3.690  1.00  0.00     0.276 HD
ATOM     39 2H13 UNL     1      16.374  -9.430  -2.872  1.00  0.00     0.276 HD
ATOM     40 1H13 UNL     1      16.642 -11.072  -2.594  1.00  0.00     0.276 HD
ENDBRANCH  32  37
ENDBRANCH  17  32
ENDBRANCH  16  17
ENDBRANCH  15  16
BRANCH   1  41
HETATM   41  N2  UNL     1      17.017  -4.612   1.831  1.00  0.00    -0.346 N
ATOM     42  H2  UNL     1      16.754  -4.969   2.749  1.00  0.00     0.163 HD
BRANCH  41  43
HETATM   43  C4  UNL     1      17.120  -3.197   1.752  1.00  0.00     0.237 C
BRANCH  43  44
HETATM   44  C3  UNL     1      15.811  -2.542   2.034  1.00  0.00     0.176 C
BRANCH  44  45
HETATM   45  N1  UNL     1      15.328  -2.836   3.339  1.00  0.00    -0.357 N
HETATM   46  C2  UNL     1      14.387  -3.846   3.615  1.00  0.00     0.213 C
HETATM   47  C1  UNL     1      13.963  -4.060   5.047  1.00  0.00     0.117 C
HETATM   48  O1  UNL     1      13.886  -4.577   2.729  1.00  0.00    -0.274 OA
ATOM     49  H1  UNL     1      15.683  -2.283   4.120  1.00  0.00     0.162 HD
ENDBRANCH  44  45
ENDBRANCH  43  44
BRANCH  43  50
HETATM   50  O2  UNL     1      17.689  -2.755   0.551  1.00  0.00    -0.375 OA
ATOM     51  H2  UNL     1      18.528  -3.165   0.377  1.00  0.00     0.212 HD
ENDBRANCH  43  50
ENDBRANCH  41  43
ENDBRANCH   1  41
TORSDOF 15
ENDMDL