MODEL 4
REMARK VINA RESULT: -7.634368475      2.359      4.790
REMARK  16 active torsions:
REMARK  status: ('A' for Active; 'I' for Inactive)
REMARK       I    between atoms: C2_2  and  N1_4
REMARK    1  A    between atoms: N1_4  and  C3_6
REMARK    2  A    between atoms: C3_6  and  C4_7
REMARK    3  A    between atoms: C3_6  and  C5_10
REMARK    4  A    between atoms: C3_6  and  C10_30
REMARK    5  A    between atoms: C4_7  and  O2_8
REMARK    6  A    between atoms: C5_10  and  N2_11
REMARK    7  A    between atoms: C7_17  and  N5_18
REMARK    8  A    between atoms: C8_23  and  N7_24
REMARK    9  A    between atoms: C10_30  and  O3_31
REMARK   10  A    between atoms: C10_30  and  C11_33
REMARK   11  A    between atoms: C12_36  and  C13_37
REMARK   12  A    between atoms: C13_37  and  O4_39
REMARK   13  A    between atoms: C13_37  and  C15_41
REMARK   14  A    between atoms: C15_41  and  O5_42
REMARK   15  A    between atoms: N10_44  and  C16_45
REMARK   16  A    between atoms: N11_46  and  O6_48
ROOT
HETATM    1  C3  UNL     1      14.147  -7.377  -2.481  1.00  0.00     0.104 C
ENDROOT
BRANCH   1   2
HETATM    2  N1  UNL     1      13.393  -7.749  -3.657  1.00  0.00    -0.345 N
HETATM    3  C2  UNL     1      12.636  -6.840  -4.430  1.00  0.00     0.214 C
HETATM    4  C1  UNL     1      11.894  -7.367  -5.654  1.00  0.00     0.117 C
HETATM    5  O1  UNL     1      12.499  -5.633  -4.230  1.00  0.00    -0.274 OA
ATOM      6  H1  UNL     1      13.409  -8.728  -3.947  1.00  0.00     0.163 HD
ENDBRANCH   1   2
BRANCH   1   7
HETATM    7  C4  UNL     1      14.590  -8.584  -1.759  1.00  0.00     0.200 C
BRANCH   7   8
HETATM    8  O2  UNL     1      15.139  -9.598  -2.571  1.00  0.00    -0.398 OA
ATOM      9  H2  UNL     1      14.923 -10.485  -2.307  1.00  0.00     0.209 HD
ENDBRANCH   7   8
ENDBRANCH   1   7
BRANCH   1  10
HETATM   10  C5  UNL     1      13.203  -6.443  -1.736  1.00  0.00     0.188 C
BRANCH  10  11
HETATM   11  N2  UNL     1      12.395  -7.004  -0.723  1.00  0.00    -0.257 N
HETATM   12  N3  UNL     1      11.217  -7.623  -0.986  1.00  0.00    -0.238 N
HETATM   13  N4  UNL     1      10.695  -8.018   0.147  1.00  0.00    -0.279 N
ATOM     14  H3  UNL     1      10.807  -7.757  -1.910  1.00  0.00     0.208 HD
HETATM   15  C6  UNL     1      11.503  -7.675   1.148  1.00  0.00     0.140 A
ATOM     16  H4  UNL     1       9.808  -8.512   0.247  1.00  0.00     0.189 HD
HETATM   17  C7  UNL     1      11.439  -7.862   2.512  1.00  0.00     0.147 A
HETATM   18  C9  UNL     1      12.587  -7.030   0.600  1.00  0.00     0.171 A
HETATM   19  N6  UNL     1      12.435  -7.413   3.299  1.00  0.00    -0.175 N
HETATM   20  C8  UNL     1      13.512  -6.773   2.776  1.00  0.00     0.679 A
ATOM     21  H6  UNL     1      12.379  -7.555   4.307  1.00  0.00     0.186 HD
HETATM   22  N8  UNL     1      13.541  -6.609   1.451  1.00  0.00    -0.173 N
ATOM     23  H8  UNL     1      14.348  -6.128   1.053  1.00  0.00     0.186 HD
BRANCH  17  24
HETATM   24  N5  UNL     1      10.395  -8.491   2.965  1.00  0.00    -0.383 N
ATOM     25  H52 UNL     1      10.378  -9.494   3.151  1.00  0.00     0.157 HD
ATOM     26  H51 UNL     1       9.559  -7.929   3.126  1.00  0.00     0.157 HD
ENDBRANCH  17  24
BRANCH  20  27
HETATM   27  N7  UNL     1      14.457  -6.349   3.568  1.00  0.00    -0.234 N
ATOM     28  H72 UNL     1      14.285  -6.030   4.521  1.00  0.00     0.174 HD
ATOM     29  H71 UNL     1      15.422  -6.330   3.236  1.00  0.00     0.174 HD
ENDBRANCH  20  27
ENDBRANCH  10  11
ENDBRANCH   1  10
BRANCH   1  30
HETATM   30  C10 UNL     1      15.367  -6.592  -2.905  1.00  0.00     0.218 C
BRANCH  30  31
HETATM   31  O3  UNL     1      16.159  -7.354  -3.782  1.00  0.00    -0.385 OA
ATOM     32  H3  UNL     1      16.872  -6.829  -4.124  1.00  0.00     0.210 HD
ENDBRANCH  30  31
BRANCH  30  33
HETATM   33  C11 UNL     1      16.275  -6.171  -1.814  1.00  0.00     0.130 A
HETATM   34  N9  UNL     1      17.522  -6.523  -1.482  1.00  0.00    -0.328 N
HETATM   35  C12 UNL     1      17.926  -5.909  -0.326  1.00  0.00     0.142 A
ATOM     36  H9  UNL     1      18.099  -7.169  -2.021  1.00  0.00     0.168 HD
HETATM   37  N10 UNL     1      16.884  -5.157   0.053  1.00  0.00    -0.233 N
HETATM   38  N12 UNL     1      15.918  -5.305  -0.813  1.00  0.00    -0.278 N
ATOM     39  H12 UNL     1      15.013  -4.838  -0.753  1.00  0.00     0.189 HD
BRANCH  35  40
HETATM   40  C13 UNL     1      19.243  -6.071   0.343  1.00  0.00     0.135 C
HETATM   41  C14 UNL     1      19.065  -6.423   1.800  1.00  0.00     0.057 C
BRANCH  40  42
HETATM   42  O4  UNL     1      19.937  -4.876   0.227  1.00  0.00    -0.380 OA
ATOM     43  H4  UNL     1      20.861  -5.078   0.139  1.00  0.00     0.211 HD
ENDBRANCH  40  42
BRANCH  40  44
HETATM   44  C15 UNL     1      20.039  -7.205  -0.324  1.00  0.00     0.209 C
BRANCH  44  45
HETATM   45  O5  UNL     1      19.333  -8.401  -0.229  1.00  0.00    -0.397 OA
ATOM     46  H5  UNL     1      19.755  -9.070  -0.755  1.00  0.00     0.209 HD
ENDBRANCH  44  45
ENDBRANCH  40  44
ENDBRANCH  35  40
BRANCH  37  47
HETATM   47  C16 UNL     1      16.721  -4.322   1.192  1.00  0.00     0.231 C
HETATM   48  N11 UNL     1      17.285  -3.150   1.165  1.00  0.00    -0.263 N
ATOM     49  H11 UNL     1      17.187  -2.526   1.966  1.00  0.00     0.195 HD
BRANCH  48  50
HETATM   50  O6  UNL     1      18.010  -2.741   0.071  1.00  0.00    -0.289 OA
ATOM     51  H6  UNL     1      17.899  -1.870  -0.290  1.00  0.00     0.244 HD
ENDBRANCH  48  50
ENDBRANCH  37  47
ENDBRANCH  30  33
ENDBRANCH   1  30
TORSDOF 16
ENDMDL