MODEL 4
REMARK VINA RESULT: -7.636070304      2.180      7.124
REMARK  12 active torsions:
REMARK  status: ('A' for Active; 'I' for Inactive)
REMARK       I    between atoms: N1_2  and  C2_4
REMARK    1  A    between atoms: C2_4  and  C3_6
REMARK    2  A    between atoms: C4_12  and  C5_13
REMARK    3  A    between atoms: C5_13  and  N4_14
REMARK    4  A    between atoms: C5_13  and  C6_18
REMARK    5  A    between atoms: C6_18  and  N5_19
REMARK    6  A    between atoms: N5_19  and  C7_20
REMARK    7  A    between atoms: N5_19  and  C10_35
REMARK    8  A    between atoms: C8_23  and  N7_24
REMARK    9  A    between atoms: C9_29  and  N9_30
REMARK   10  A    between atoms: C11_38  and  C12_39
REMARK   11  A    between atoms: C13_47  and  N16_48
REMARK   12  A    between atoms: C14_53  and  O3_54
ROOT
HETATM    1  N5  UNL     1      14.549  -6.941  -1.766  1.00  0.00    -0.160 N
ENDROOT
BRANCH   1   2
HETATM    2  C6  UNL     1      15.514  -5.940  -1.419  1.00  0.00     0.189 C
BRANCH   2   3
HETATM    3  C5  UNL     1      16.162  -6.100  -0.075  1.00  0.00     0.256 C
BRANCH   3   4
HETATM    4  C4  UNL     1      17.378  -5.252   0.041  1.00  0.00     0.100 A
HETATM    5  C3  UNL     1      18.253  -5.051   1.049  1.00  0.00     0.150 A
HETATM    6  N2  UNL     1      19.153  -4.142   0.571  1.00  0.00    -0.234 N
HETATM    7  O2  UNL     1      18.862  -3.801  -0.645  1.00  0.00    -0.156 OA
ATOM      8  H2  UNL     1      19.947  -3.780   1.100  1.00  0.00     0.197 HD
HETATM    9  N3  UNL     1      17.795  -4.459  -0.982  1.00  0.00    -0.241 N
ATOM     10  H3  UNL     1      17.333  -4.392  -1.889  1.00  0.00     0.196 HD
BRANCH   5  11
HETATM   11  C2  UNL     1      18.238  -5.671   2.349  1.00  0.00     0.271 C
HETATM   12  N1  UNL     1      19.430  -6.199   2.872  1.00  0.00    -0.360 N
HETATM   13  C1  UNL     1      19.409  -6.817   4.179  1.00  0.00     0.149 C
ATOM     14  H1  UNL     1      20.297  -6.147   2.339  1.00  0.00     0.162 HD
HETATM   15  O1  UNL     1      17.201  -5.746   3.010  1.00  0.00    -0.266 OA
ENDBRANCH   5  11
ENDBRANCH   3   4
BRANCH   3  16
HETATM   16  N4  UNL     1      15.165  -5.734   0.913  1.00  0.00    -0.068 N
ATOM     17  H43 UNL     1      15.489  -4.970   1.506  1.00  0.00     0.275 HD
ATOM     18  H42 UNL     1      14.365  -5.271   0.482  1.00  0.00     0.275 HD
ATOM     19  H41 UNL     1      14.877  -6.540   1.467  1.00  0.00     0.275 HD
ENDBRANCH   3  16
ENDBRANCH   2   3
ENDBRANCH   1   2
BRANCH   1  20
HETATM   20  C7  UNL     1      14.771  -8.332  -1.576  1.00  0.00     0.715 A
HETATM   21  N6  UNL     1      15.422  -9.099  -2.482  1.00  0.00    -0.021 N
HETATM   22  C8  UNL     1      15.639 -10.412  -2.311  1.00  0.00     0.705 A
ATOM     23  H6  UNL     1      15.765  -8.658  -3.335  1.00  0.00     0.203 HD
HETATM   24  N8  UNL     1      15.194 -11.002  -1.192  1.00  0.00    -0.022 N
HETATM   25  C9  UNL     1      14.543 -10.279  -0.262  1.00  0.00     0.705 A
ATOM     26  H8  UNL     1      15.349 -11.999  -1.045  1.00  0.00     0.203 HD
HETATM   27  N10 UNL     1      14.338  -8.963  -0.460  1.00  0.00    -0.021 N
ATOM     28  H10 UNL     1      13.843  -8.426   0.252  1.00  0.00     0.203 HD
BRANCH  22  29
HETATM   29  N7  UNL     1      16.263 -11.131  -3.195  1.00  0.00    -0.234 N
ATOM     30  H72 UNL     1      16.836 -10.662  -3.897  1.00  0.00     0.174 HD
ATOM     31  H71 UNL     1      16.202 -12.149  -3.209  1.00  0.00     0.174 HD
ENDBRANCH  22  29
BRANCH  25  32
HETATM   32  N9  UNL     1      14.098 -10.821   0.831  1.00  0.00    -0.234 N
ATOM     33  H92 UNL     1      13.094 -10.975   0.927  1.00  0.00     0.174 HD
ATOM     34  H91 UNL     1      14.727 -11.094   1.585  1.00  0.00     0.174 HD
ENDBRANCH  25  32
ENDBRANCH   1  20
BRANCH   1  35
HETATM   35  C10 UNL     1      13.273  -6.579  -2.343  1.00  0.00     0.175 A
HETATM   36  N11 UNL     1      13.088  -6.579  -3.677  1.00  0.00    -0.332 N
HETATM   37  C11 UNL     1      11.899  -6.247  -4.211  1.00  0.00     0.125 A
ATOM     38  H11 UNL     1      13.861  -6.835  -4.292  1.00  0.00     0.168 HD
HETATM   39  C13 UNL     1      10.882  -5.908  -3.340  1.00  0.00     0.132 A
HETATM   40  N17 UNL     1      11.072  -5.909  -2.002  1.00  0.00    -0.319 N
HETATM   41  C14 UNL     1      12.266  -6.243  -1.471  1.00  0.00     0.187 A
ATOM     42  H17 UNL     1      10.301  -5.655  -1.384  1.00  0.00     0.169 HD
BRANCH  37  43
HETATM   43  C12 UNL     1      11.668  -6.241  -5.653  1.00  0.00     0.165 A
HETATM   44  N12 UNL     1      11.291  -5.169  -6.373  1.00  0.00    -0.265 N
HETATM   45  N13 UNL     1      11.180  -5.526  -7.651  1.00  0.00    -0.005 NA
ATOM     46  H12 UNL     1      11.117  -4.235  -6.000  1.00  0.00     0.186 HD
HETATM   47  N14 UNL     1      11.486  -6.823  -7.748  1.00  0.00    -0.225 N
HETATM   48  N15 UNL     1      11.779  -7.237  -6.532  1.00  0.00    -0.270 N
ATOM     49  H14 UNL     1      11.492  -7.385  -8.599  1.00  0.00     0.205 HD
ATOM     50  H15 UNL     1      12.052  -8.191  -6.295  1.00  0.00     0.190 HD
ENDBRANCH  37  43
BRANCH  39  51
HETATM   51  N16 UNL     1       9.743  -5.589  -3.837  1.00  0.00    -0.383 N
ATOM     52 2H16 UNL     1       8.928  -6.183  -3.689  1.00  0.00     0.157 HD
ATOM     53 1H16 UNL     1       9.682  -4.728  -4.381  1.00  0.00     0.157 HD
ENDBRANCH  39  51
BRANCH  41  54
HETATM   54  O3  UNL     1      12.476  -6.249  -0.103  1.00  0.00    -0.343 OA
ATOM     55  H3  UNL     1      13.207  -6.722   0.278  1.00  0.00     0.219 HD
ENDBRANCH  41  54
ENDBRANCH   1  35
TORSDOF 12
ENDMDL