MODEL 4
REMARK VINA RESULT: -7.394895947      1.144      1.478
REMARK  15 active torsions:
REMARK  status: ('A' for Active; 'I' for Inactive)
REMARK    1  A    between atoms: N1_2  and  N2_3
REMARK    2  A    between atoms: N1_2  and  C2_6
REMARK    3  A    between atoms: C2_6  and  C3_7
REMARK    4  A    between atoms: C3_7  and  C4_8
REMARK    5  A    between atoms: C4_8  and  O1_9
REMARK    6  A    between atoms: C4_8  and  C5_11
REMARK    7  A    between atoms: C5_11  and  O2_12
REMARK    8  A    between atoms: C5_11  and  C6_14
REMARK    9  A    between atoms: C6_14  and  C7_15
REMARK   10  A    between atoms: C9_19  and  C10_20
REMARK   11  A    between atoms: C13_27  and  N6_28
REMARK   12  A    between atoms: C14_33  and  N8_34
REMARK   13  A    between atoms: N10_40  and  C16_41
REMARK   14  A    between atoms: N12_44  and  N13_45
REMARK   15  A    between atoms: C17_48  and  N14_49
ROOT
HETATM    1  C7  UNL     1      12.696  -6.483  -0.967  1.00  0.00     0.054 A
HETATM    2  C8  UNL     1      12.878  -5.173  -0.617  1.00  0.00     0.116 A
HETATM    3  N3  UNL     1      14.184  -4.953  -0.349  1.00  0.00    -0.348 N
ATOM      4  H3  UNL     1      14.601  -4.068  -0.062  1.00  0.00     0.167 HD
HETATM    5  C9  UNL     1      14.832  -6.115  -0.528  1.00  0.00     0.157 A
HETATM    6  N10 UNL     1      13.950  -7.047  -0.901  1.00  0.00    -0.131 N
ENDROOT
BRANCH   5   7
HETATM    7  C10 UNL     1      16.272  -6.260  -0.336  1.00  0.00     0.094 A
HETATM    8  C11 UNL     1      17.101  -6.585  -1.397  1.00  0.00     0.123 A
HETATM    9  N4  UNL     1      18.431  -6.738  -1.270  1.00  0.00    -0.348 N
HETATM   10  C12 UNL     1      18.970  -6.566  -0.051  1.00  0.00     0.151 A
ATOM     11  H4  UNL     1      19.013  -6.977  -2.072  1.00  0.00     0.167 HD
HETATM   12  N5  UNL     1      20.303  -6.718   0.089  1.00  0.00    -0.174 N
HETATM   13  C15 UNL     1      18.190  -6.244   1.033  1.00  0.00     0.122 A
HETATM   14  C13 UNL     1      20.929  -6.568   1.267  1.00  0.00     0.679 A
ATOM     15  H5  UNL     1      20.858  -6.956  -0.733  1.00  0.00     0.186 HD
HETATM   16  N7  UNL     1      20.171  -6.252   2.331  1.00  0.00    -0.175 N
HETATM   17  C14 UNL     1      18.826  -6.085   2.256  1.00  0.00     0.145 A
ATOM     18  H7  UNL     1      20.626  -6.134   3.236  1.00  0.00     0.186 HD
HETATM   19  N9  UNL     1      16.857  -6.096   0.878  1.00  0.00    -0.346 N
ATOM     20  H9  UNL     1      16.281  -5.858   1.685  1.00  0.00     0.166 HD
BRANCH  14  21
HETATM   21  N6  UNL     1      22.226  -6.717   1.395  1.00  0.00    -0.234 N
ATOM     22  H62 UNL     1      22.849  -5.914   1.316  1.00  0.00     0.174 HD
ATOM     23  H61 UNL     1      22.653  -7.626   1.574  1.00  0.00     0.174 HD
ENDBRANCH  14  21
BRANCH  17  24
HETATM   24  N8  UNL     1      18.148  -5.786   3.302  1.00  0.00    -0.383 N
ATOM     25  H82 UNL     1      18.610  -5.705   4.208  1.00  0.00     0.157 HD
ATOM     26  H81 UNL     1      17.142  -5.625   3.239  1.00  0.00     0.157 HD
ENDBRANCH  17  24
ENDBRANCH   5   7
BRANCH   6  27
HETATM   27  C16 UNL     1      14.254  -8.406  -1.189  1.00  0.00     0.722 A
HETATM   28  N11 UNL     1      14.497  -9.024  -2.341  1.00  0.00    -0.095 N
HETATM   29  N12 UNL     1      14.741 -10.314  -2.114  1.00  0.00    -0.012 N
ATOM     30  H11 UNL     1      14.497  -8.579  -3.259  1.00  0.00     0.208 HD
HETATM   31  C17 UNL     1      14.653 -10.543  -0.772  1.00  0.00     0.727 A
HETATM   32  N15 UNL     1      14.352  -9.354  -0.225  1.00  0.00    -0.018 N
ATOM     33  H15 UNL     1      14.217  -9.189   0.773  1.00  0.00     0.203 HD
BRANCH  29  34
HETATM   34  N13 UNL     1      15.042 -11.321  -3.016  1.00  0.00    -0.309 N
ATOM     35 2H13 UNL     1      14.322 -11.913  -3.431  1.00  0.00     0.179 HD
ATOM     36 1H13 UNL     1      15.950 -11.612  -3.380  1.00  0.00     0.179 HD
ENDBRANCH  29  34
BRANCH  31  37
HETATM   37  N14 UNL     1      14.829 -11.684  -0.185  1.00  0.00    -0.231 N
ATOM     38 2H14 UNL     1      14.203 -12.179   0.450  1.00  0.00     0.174 HD
ATOM     39 1H14 UNL     1      15.652 -12.280  -0.275  1.00  0.00     0.174 HD
ENDBRANCH  31  37
ENDBRANCH   6  27
BRANCH   1  40
HETATM   40  C6  UNL     1      11.535  -7.279  -1.334  1.00  0.00     0.094 C
BRANCH  40  41
HETATM   41  C5  UNL     1      11.187  -7.441  -2.746  1.00  0.00     0.152 C
BRANCH  41  42
HETATM   42  C4  UNL     1      11.985  -6.740  -3.786  1.00  0.00     0.148 C
BRANCH  42  43
HETATM   43  C3  UNL     1      10.967  -5.895  -4.592  1.00  0.00     0.050 C
BRANCH  43  44
HETATM   44  C2  UNL     1      11.550  -5.361  -5.854  1.00  0.00     0.115 C
BRANCH  44  45
HETATM   45  N1  UNL     1      11.289  -6.269  -6.953  1.00  0.00    -0.242 NA
HETATM   46  C1  UNL     1      10.352  -5.737  -7.897  1.00  0.00     0.135 C
BRANCH  45  47
HETATM   47  N2  UNL     1      12.430  -6.754  -7.553  1.00  0.00    -0.364 NA
ATOM     48  H22 UNL     1      12.247  -7.359  -8.353  1.00  0.00     0.171 HD
ATOM     49  H21 UNL     1      13.079  -7.171  -6.885  1.00  0.00     0.171 HD
ENDBRANCH  45  47
ENDBRANCH  44  45
ENDBRANCH  43  44
ENDBRANCH  42  43
BRANCH  42  50
HETATM   50  O1  UNL     1      12.771  -7.473  -4.606  1.00  0.00    -0.393 OA
ATOM     51  H1  UNL     1      12.510  -8.386  -4.607  1.00  0.00     0.210 HD
ENDBRANCH  42  50
ENDBRANCH  41  42
BRANCH  41  52
HETATM   52  O2  UNL     1       9.852  -6.960  -2.903  1.00  0.00    -0.393 OA
ATOM     53  H2  UNL     1       9.308  -7.737  -2.962  1.00  0.00     0.210 HD
ENDBRANCH  41  52
ENDBRANCH  40  41
ENDBRANCH   1  40
TORSDOF 15
ENDMDL