MODEL 5
REMARK VINA RESULT: -7.193384778      2.786      7.151
REMARK  13 active torsions:
REMARK  status: ('A' for Active; 'I' for Inactive)
REMARK       I    between atoms: C1_4  and  N2_5
REMARK       I    between atoms: C1_4  and  N13_49
REMARK    1  A    between atoms: N2_5  and  C2_7
REMARK    2  A    between atoms: C2_7  and  C3_8
REMARK    3  A    between atoms: C3_8  and  N3_9
REMARK    4  A    between atoms: C3_8  and  C4_13
REMARK    5  A    between atoms: C4_13  and  O1_14
REMARK    6  A    between atoms: C4_13  and  N4_16
REMARK    7  A    between atoms: N4_16  and  C5_18
REMARK    8  A    between atoms: C6_21  and  C7_22
REMARK    9  A    between atoms: C7_22  and  C8_23
REMARK   10  A    between atoms: C8_23  and  N6_24
REMARK   11  A    between atoms: C12_36  and  C13_37
REMARK   12  A    between atoms: C14_41  and  N10_42
REMARK   13  A    between atoms: N13_49  and  N14_51
ROOT
HETATM    1  C5  UNL     1      16.306  -5.366  -0.126  1.00  0.00     0.124 A
HETATM    2  N5  UNL     1      17.598  -5.766  -0.035  1.00  0.00    -0.331 N
ATOM      3  H5  UNL     1      18.301  -5.115   0.316  1.00  0.00     0.168 HD
HETATM    4  C6  UNL     1      17.968  -6.997  -0.396  1.00  0.00     0.085 A
HETATM    5  N7  UNL     1      17.038  -7.882  -0.870  1.00  0.00    -0.331 N
ATOM      6  H7  UNL     1      17.340  -8.819  -1.140  1.00  0.00     0.168 HD
HETATM    7  C9  UNL     1      15.744  -7.554  -0.988  1.00  0.00     0.124 A
HETATM    8  C10 UNL     1      15.377  -6.259  -0.604  1.00  0.00     0.119 A
HETATM    9  C11 UNL     1      13.976  -5.938  -0.747  1.00  0.00     0.261 C
HETATM   10  O2  UNL     1      13.534  -4.819  -0.439  1.00  0.00    -0.267 OA
HETATM   11  N8  UNL     1      13.090  -6.949  -1.261  1.00  0.00    -0.329 N
ATOM     12  H8  UNL     1      12.101  -6.939  -1.016  1.00  0.00     0.165 HD
HETATM   13  C12 UNL     1      13.617  -7.982  -2.130  1.00  0.00     0.257 C
HETATM   14  N12 UNL     1      14.795  -8.501  -1.487  1.00  0.00    -0.348 N
ATOM     15  H12 UNL     1      14.948  -9.505  -1.391  1.00  0.00     0.163 HD
ENDROOT
BRANCH   1  16
HETATM   16  N4  UNL     1      15.935  -4.060   0.299  1.00  0.00    -0.347 N
ATOM     17  H4  UNL     1      15.185  -3.551  -0.168  1.00  0.00     0.163 HD
BRANCH  16  18
HETATM   18  C4  UNL     1      16.667  -3.461   1.438  1.00  0.00     0.251 C
BRANCH  18  19
HETATM   19  C3  UNL     1      15.679  -2.618   2.206  1.00  0.00     0.249 C
BRANCH  19  20
HETATM   20  C2  UNL     1      15.264  -3.263   3.500  1.00  0.00     0.175 C
BRANCH  20  21
HETATM   21  N2  UNL     1      15.793  -4.610   3.610  1.00  0.00    -0.223 N
HETATM   22  C1  UNL     1      14.888  -5.657   3.880  1.00  0.00     0.691 C
HETATM   23  N1  UNL     1      15.306  -6.674   4.570  1.00  0.00    -0.233 N
HETATM   24  N13 UNL     1      13.565  -5.558   3.387  1.00  0.00    -0.072 N
ATOM     25  H12 UNL     1      16.260  -6.745   4.925  1.00  0.00     0.174 HD
ATOM     26  H11 UNL     1      14.651  -7.431   4.766  1.00  0.00     0.174 HD
ATOM     27  H13 UNL     1      13.009  -4.718   3.550  1.00  0.00     0.212 HD
ATOM     28  H2  UNL     1      16.789  -4.794   3.495  1.00  0.00     0.177 HD
BRANCH  24  29
HETATM   29  N14 UNL     1      13.039  -6.634   2.675  1.00  0.00    -0.024 N
HETATM   30  O4  UNL     1      13.554  -7.779   2.739  1.00  0.00    -0.516 OA
HETATM   31  O5  UNL     1      11.930  -6.438   1.881  1.00  0.00    -0.516 OA
ENDBRANCH  24  29
ENDBRANCH  20  21
ENDBRANCH  19  20
BRANCH  19  32
HETATM   32  N3  UNL     1      14.475  -2.405   1.424  1.00  0.00    -0.069 N
ATOM     33  H33 UNL     1      13.621  -2.515   1.970  1.00  0.00     0.275 HD
ATOM     34  H32 UNL     1      14.338  -1.429   1.160  1.00  0.00     0.275 HD
ATOM     35  H31 UNL     1      14.520  -3.033   0.621  1.00  0.00     0.275 HD
ENDBRANCH  19  32
ENDBRANCH  18  19
BRANCH  18  36
HETATM   36  O1  UNL     1      17.644  -2.632   0.836  1.00  0.00    -0.375 OA
ATOM     37  H1  UNL     1      18.197  -3.148   0.261  1.00  0.00     0.212 HD
ENDBRANCH  18  36
ENDBRANCH  16  18
ENDBRANCH   1  16
BRANCH   4  38
HETATM   38  C7  UNL     1      19.382  -7.406  -0.268  1.00  0.00     0.104 C
BRANCH  38  39
HETATM   39  C8  UNL     1      20.112  -6.639   0.799  1.00  0.00     0.237 C
BRANCH  39  40
HETATM   40  N6  UNL     1      21.501  -6.574   0.452  1.00  0.00    -0.079 N
ATOM     41  H63 UNL     1      21.674  -5.976  -0.356  1.00  0.00     0.274 HD
ATOM     42  H62 UNL     1      22.050  -6.051   1.135  1.00  0.00     0.274 HD
ATOM     43  H61 UNL     1      21.851  -7.523   0.316  1.00  0.00     0.274 HD
ENDBRANCH  39  40
ENDBRANCH  38  39
ENDBRANCH   4  38
BRANCH  13  44
HETATM   44  C13 UNL     1      12.590  -8.992  -2.384  1.00  0.00     0.148 A
HETATM   45  N9  UNL     1      12.476  -9.891  -3.373  1.00  0.00    -0.241 N
HETATM   46  O3  UNL     1      11.376 -10.599  -3.185  1.00  0.00    -0.200 OA
ATOM     47  H9  UNL     1      13.132 -10.008  -4.145  1.00  0.00     0.196 HD
HETATM   48  C14 UNL     1      10.765 -10.188  -2.100  1.00  0.00     0.242 A
HETATM   49  N11 UNL     1      11.519  -9.187  -1.597  1.00  0.00    -0.306 N
ATOM     50  H11 UNL     1      11.308  -8.660  -0.749  1.00  0.00     0.171 HD
BRANCH  48  51
HETATM   51  N10 UNL     1       9.665 -10.699  -1.672  1.00  0.00    -0.364 N
ATOM     52 2H10 UNL     1       9.501 -11.456  -1.007  1.00  0.00     0.159 HD
ATOM     53 1H10 UNL     1       8.744 -10.381  -1.974  1.00  0.00     0.159 HD
ENDBRANCH  48  51
ENDBRANCH  13  44
TORSDOF 13
ENDMDL