MODEL 1
REMARK VINA RESULT: -7.669425398      0.000      0.000
REMARK  15 active torsions:
REMARK  status: ('A' for Active; 'I' for Inactive)
REMARK       I    between atoms: C2_2  and  N1_4
REMARK    1  A    between atoms: C4_9  and  N4_10
REMARK    2  A    between atoms: C5_16  and  C6_17
REMARK    3  A    between atoms: C6_17  and  O2_18
REMARK    4  A    between atoms: C6_17  and  N6_20
REMARK    5  A    between atoms: N6_20  and  C7_22
REMARK    6  A    between atoms: C9_24  and  N7_25
REMARK    7  A    between atoms: N7_25  and  C10_27
REMARK    8  A    between atoms: C10_27  and  O3_28
REMARK    9  A    between atoms: C10_27  and  C11_30
REMARK   10  A    between atoms: C11_30  and  N8_31
REMARK       I    between atoms: N9_36  and  C13_37
REMARK   11  A    between atoms: C15_40  and  N10_41
REMARK   12  A    between atoms: C16_44  and  C17_45
REMARK   13  A    between atoms: C17_45  and  O5_46
REMARK   14  A    between atoms: C17_45  and  C18_48
REMARK   15  A    between atoms: C18_48  and  N11_49
ROOT
HETATM    1  C6  UNL     1      15.528  -7.114  -2.595  1.00  0.00     0.267 C
ENDROOT
BRANCH   1   2
HETATM    2  C5  UNL     1      15.239  -8.344  -1.820  1.00  0.00     0.060 C
HETATM    3  N5  UNL     1      16.141  -9.203  -1.809  1.00  0.00    -0.348 N
HETATM    4  C4  UNL     1      16.440 -10.454  -1.306  1.00  0.00     0.388 C
ATOM      5  H5  UNL     1      16.929  -8.867  -2.362  1.00  0.00     0.163 HD
HETATM    6  N3  UNL     1      15.444 -11.217  -0.659  1.00  0.00    -0.321 N
HETATM    7  C3  UNL     1      14.316 -10.776  -0.179  1.00  0.00     0.196 C
ATOM      8  H3  UNL     1      15.627 -12.215  -0.557  1.00  0.00     0.166 HD
HETATM    9  N1  UNL     1      13.770  -9.443  -0.166  1.00  0.00    -0.279 N
HETATM   10  N2  UNL     1      13.529 -11.794   0.418  1.00  0.00    -0.063 NA
HETATM   11  C2  UNL     1      13.000  -9.178   0.976  1.00  0.00     0.223 C
HETATM   12  C16 UNL     1      13.916  -8.441  -1.136  1.00  0.00     0.175 C
HETATM   13  C1  UNL     1      12.307  -7.937   1.354  1.00  0.00     0.117 C
HETATM   14  O1  UNL     1      12.858 -10.123   1.836  1.00  0.00    -0.273 OA
BRANCH   4  15
HETATM   15  N4  UNL     1      17.522 -10.267  -0.314  1.00  0.00    -0.041 N
ATOM     16  H43 UNL     1      17.523  -9.342   0.116  1.00  0.00     0.279 HD
ATOM     17  H42 UNL     1      17.384 -10.802   0.543  1.00  0.00     0.279 HD
ATOM     18  H41 UNL     1      18.391 -10.491  -0.798  1.00  0.00     0.279 HD
ENDBRANCH   4  15
BRANCH  12  19
HETATM   19  C17 UNL     1      12.860  -8.341  -2.188  1.00  0.00     0.172 C
BRANCH  19  20
HETATM   20  O5  UNL     1      11.993  -7.249  -1.925  1.00  0.00    -0.391 OA
ATOM     21  H5  UNL     1      11.107  -7.556  -1.766  1.00  0.00     0.210 HD
ENDBRANCH  19  20
BRANCH  19  22
HETATM   22  C18 UNL     1      11.964  -9.488  -2.443  1.00  0.00     0.263 C
BRANCH  22  23
HETATM   23  N11 UNL     1      12.023 -10.079  -3.742  1.00  0.00    -0.077 N
ATOM     24 3H11 UNL     1      12.070  -9.345  -4.449  1.00  0.00     0.274 HD
ATOM     25 2H11 UNL     1      12.931 -10.524  -3.873  1.00  0.00     0.274 HD
ATOM     26 1H11 UNL     1      11.283 -10.738  -3.984  1.00  0.00     0.274 HD
ENDBRANCH  22  23
ENDBRANCH  19  22
ENDBRANCH  12  19
ENDBRANCH   1   2
BRANCH   1  27
HETATM   27  O2  UNL     1      14.727  -7.082  -3.773  1.00  0.00    -0.371 OA
ATOM     28  H2  UNL     1      14.796  -7.909  -4.235  1.00  0.00     0.212 HD
ENDBRANCH   1  27
BRANCH   1  29
HETATM   29  N6  UNL     1      15.013  -5.969  -1.839  1.00  0.00    -0.356 N
ATOM     30  H6  UNL     1      14.109  -5.559  -2.073  1.00  0.00     0.162 HD
BRANCH  29  31
HETATM   31  C7  UNL     1      15.793  -5.437  -0.776  1.00  0.00     0.077 A
HETATM   32  C8  UNL     1      17.157  -5.636  -0.752  1.00  0.00     0.063 A
HETATM   33  C9  UNL     1      17.902  -5.127   0.281  1.00  0.00     0.048 A
HETATM   34  C12 UNL     1      17.269  -4.429   1.269  1.00  0.00     0.131 A
HETATM   35  N9  UNL     1      15.922  -4.208   1.287  1.00  0.00    -0.275 N
HETATM   36  C13 UNL     1      15.374  -3.474   2.359  1.00  0.00     0.225 C
HETATM   37  C15 UNL     1      15.209  -4.725   0.248  1.00  0.00     0.135 A
HETATM   38  C14 UNL     1      13.947  -3.169   2.493  1.00  0.00     0.118 C
HETATM   39  O4  UNL     1      16.169  -3.051   3.265  1.00  0.00    -0.273 OA
BRANCH  33  40
HETATM   40  N7  UNL     1      19.316  -5.338   0.305  1.00  0.00    -0.361 N
ATOM     41  H7  UNL     1      19.936  -4.585   0.007  1.00  0.00     0.162 HD
BRANCH  40  42
HETATM   42  C10 UNL     1      19.887  -6.588   0.739  1.00  0.00     0.243 C
BRANCH  42  43
HETATM   43  O3  UNL     1      19.938  -6.612   2.141  1.00  0.00    -0.375 OA
ATOM     44  H3  UNL     1      20.139  -7.494   2.433  1.00  0.00     0.212 HD
ENDBRANCH  42  43
BRANCH  42  45
HETATM   45  C11 UNL     1      21.266  -6.733   0.179  1.00  0.00     0.282 C
BRANCH  45  46
HETATM   46  N8  UNL     1      22.260  -6.702   1.248  1.00  0.00    -0.075 N
ATOM     47  H83 UNL     1      21.840  -6.875   2.161  1.00  0.00     0.274 HD
ATOM     48  H82 UNL     1      22.882  -7.509   1.210  1.00  0.00     0.274 HD
ATOM     49  H81 UNL     1      22.778  -5.824   1.230  1.00  0.00     0.274 HD
ENDBRANCH  45  46
ENDBRANCH  42  45
ENDBRANCH  40  42
ENDBRANCH  33  40
BRANCH  37  50
HETATM   50  N10 UNL     1      13.949  -4.504   0.283  1.00  0.00    -0.383 N
ATOM     51 2H10 UNL     1      13.365  -5.326   0.437  1.00  0.00     0.157 HD
ATOM     52 1H10 UNL     1      13.565  -3.566   0.167  1.00  0.00     0.157 HD
ENDBRANCH  37  50
ENDBRANCH  29  31
ENDBRANCH   1  29
TORSDOF 15
ENDMDL