MODEL 1
REMARK VINA RESULT: -7.895291414      0.000      0.000
REMARK  11 active torsions:
REMARK  status: ('A' for Active; 'I' for Inactive)
REMARK    1  A    between atoms: C2_2  and  C3_3
REMARK    2  A    between atoms: C2_2  and  C4_6
REMARK    3  A    between atoms: C3_3  and  O1_4
REMARK       I    between atoms: C4_6  and  N1_8
REMARK    4  A    between atoms: N1_8  and  C5_10
REMARK    5  A    between atoms: C7_12  and  N2_13
REMARK    6  A    between atoms: N3_15  and  C8_17
REMARK    7  A    between atoms: C9_20  and  N5_21
REMARK    8  A    between atoms: N9_32  and  C12_33
REMARK    9  A    between atoms: C13_37  and  N11_38
REMARK       I    between atoms: N11_38  and  C14_40
REMARK       I    between atoms: C14_40  and  N12_42
REMARK   10  A    between atoms: N12_42  and  N13_44
REMARK   11  A    between atoms: C15_49  and  N15_50
ROOT
HETATM    1  C8  UNL     1      16.796  -5.960  -1.455  1.00  0.00     0.167 A
HETATM    2  N4  UNL     1      17.906  -6.713  -1.389  1.00  0.00    -0.173 N
ATOM      3  H4  UNL     1      18.292  -7.118  -2.241  1.00  0.00     0.186 HD
HETATM    4  C9  UNL     1      18.521  -6.941  -0.197  1.00  0.00     0.679 A
HETATM    5  N6  UNL     1      18.053  -6.431   0.959  1.00  0.00    -0.173 N
ATOM      6  H6  UNL     1      18.538  -6.620   1.837  1.00  0.00     0.186 HD
HETATM    7  C10 UNL     1      16.954  -5.677   0.951  1.00  0.00     0.173 A
HETATM    8  C11 UNL     1      16.323  -5.441  -0.261  1.00  0.00     0.141 A
HETATM    9  N7  UNL     1      15.266  -4.666   0.042  1.00  0.00    -0.279 N
ATOM     10  H7  UNL     1      14.581  -4.306  -0.623  1.00  0.00     0.189 HD
HETATM   11  N8  UNL     1      15.263  -4.449   1.349  1.00  0.00    -0.236 N
ATOM     12  H8  UNL     1      14.564  -3.888   1.837  1.00  0.00     0.208 HD
HETATM   13  N9  UNL     1      16.266  -5.044   1.934  1.00  0.00    -0.224 N
ENDROOT
BRANCH   1  14
HETATM   14  N3  UNL     1      16.105  -5.684  -2.666  1.00  0.00    -0.281 N
HETATM   15  N2  UNL     1      15.309  -6.500  -3.175  1.00  0.00    -0.283 N
ATOM     16  H2  UNL     1      14.824  -6.283  -4.046  1.00  0.00     0.188 HD
ATOM     17  H3  UNL     1      16.265  -4.792  -3.134  1.00  0.00     0.188 HD
BRANCH  15  18
HETATM   18  C7  UNL     1      15.095  -7.753  -2.505  1.00  0.00     0.139 A
HETATM   19  C6  UNL     1      14.144  -7.800  -1.534  1.00  0.00     0.099 A
HETATM   20  C5  UNL     1      13.925  -9.013  -0.873  1.00  0.00     0.127 A
HETATM   21  N16 UNL     1      14.649 -10.077  -1.211  1.00  0.00    -0.177 N
HETATM   22  C15 UNL     1      15.576 -10.000  -2.168  1.00  0.00     0.679 A
ATOM     23  H16 UNL     1      14.493 -10.964  -0.733  1.00  0.00     0.185 HD
HETATM   24  N14 UNL     1      15.789  -8.841  -2.804  1.00  0.00    -0.175 N
ATOM     25  H14 UNL     1      16.500  -8.795  -3.533  1.00  0.00     0.186 HD
BRANCH  20  26
HETATM   26  N1  UNL     1      12.937  -9.011   0.116  1.00  0.00    -0.312 N
HETATM   27  C4  UNL     1      12.912  -9.749   1.324  1.00  0.00     0.229 C
HETATM   28  O2  UNL     1      13.800 -10.536   1.697  1.00  0.00    -0.273 OA
ATOM     29  H1  UNL     1      12.136  -8.404  -0.053  1.00  0.00     0.170 HD
BRANCH  27  30
HETATM   30  C2  UNL     1      11.726  -9.581   2.248  1.00  0.00     0.098 C
HETATM   31  C1  UNL     1      10.482  -9.591   1.407  1.00  0.00     0.022 C
BRANCH  30  32
HETATM   32  C3  UNL     1      11.893  -8.213   2.891  1.00  0.00     0.177 C
BRANCH  32  33
HETATM   33  O1  UNL     1      13.193  -7.771   2.870  1.00  0.00    -0.400 OA
ATOM     34  H1  UNL     1      13.321  -6.980   3.381  1.00  0.00     0.209 HD
ENDBRANCH  32  33
ENDBRANCH  30  32
ENDBRANCH  27  30
ENDBRANCH  20  26
BRANCH  22  35
HETATM   35  N15 UNL     1      16.274 -11.070  -2.479  1.00  0.00    -0.234 N
ATOM     36 2H15 UNL     1      17.236 -11.153  -2.150  1.00  0.00     0.174 HD
ATOM     37 1H15 UNL     1      15.862 -11.813  -3.042  1.00  0.00     0.174 HD
ENDBRANCH  22  35
ENDBRANCH  15  18
ENDBRANCH   1  14
BRANCH   4  38
HETATM   38  N5  UNL     1      19.581  -7.676  -0.245  1.00  0.00    -0.234 N
ATOM     39  H52 UNL     1      19.581  -8.650   0.057  1.00  0.00     0.174 HD
ATOM     40  H51 UNL     1      20.421  -7.221  -0.603  1.00  0.00     0.174 HD
ENDBRANCH   4  38
BRANCH  13  41
HETATM   41  C12 UNL     1      16.563  -5.017   3.357  1.00  0.00     0.362 A
HETATM   42  N10 UNL     1      17.355  -6.085   3.912  1.00  0.00    -0.024 N
HETATM   43  C13 UNL     1      15.920  -6.006   4.215  1.00  0.00     0.343 A
ATOM     44 2H10 UNL     1      17.971  -6.801   3.526  1.00  0.00     0.282 HD
ATOM     45 1H10 UNL     1      18.208  -6.135   4.471  1.00  0.00     0.282 HD
BRANCH  43  46
HETATM   46  N11 UNL     1      15.506  -5.757   5.555  1.00  0.00    -0.310 N
HETATM   47  C14 UNL     1      14.139  -5.663   5.928  1.00  0.00     0.336 C
HETATM   48  O3  UNL     1      13.201  -5.794   5.084  1.00  0.00    -0.246 OA
HETATM   49  N12 UNL     1      13.743  -5.414   7.269  1.00  0.00    -0.258 N
ATOM     50  H12 UNL     1      14.457  -5.300   7.989  1.00  0.00     0.191 HD
ATOM     51  H11 UNL     1      16.219  -5.642   6.275  1.00  0.00     0.166 HD
BRANCH  49  52
HETATM   52  N13 UNL     1      12.394  -5.324   7.622  1.00  0.00    -0.341 N
ATOM     53 2H13 UNL     1      11.719  -5.078   6.898  1.00  0.00     0.177 HD
ATOM     54 1H13 UNL     1      12.084  -5.498   8.579  1.00  0.00     0.177 HD
ENDBRANCH  49  52
ENDBRANCH  43  46
ENDBRANCH  13  41
TORSDOF 11
ENDMDL