MODEL 2
REMARK VINA RESULT: -8.797711030      0.168      1.058
REMARK  5 active torsions:
REMARK  status: ('A' for Active; 'I' for Inactive)
REMARK    1  A    between atoms: C1_4  and  N2_5
REMARK    2  A    between atoms: C1_4  and  C9_19
REMARK    3  A    between atoms: N2_5  and  N3_7
REMARK    4  A    between atoms: C2_9  and  C3_10
REMARK    5  A    between atoms: C8_15  and  N4_16
ROOT
HETATM    1  N2  UNL     1      11.148  15.447  56.961  1.00  0.00    -0.286 N
ATOM      2  H2  UNL     1      11.302  14.718  57.657  1.00  0.00     0.188 HD
ENDROOT
BRANCH   1   3
HETATM    3  C1  UNL     1      12.267  16.136  56.402  1.00  0.00     0.123 C
HETATM    4  N1  UNL     1      13.347  15.472  56.217  1.00  0.00    -0.384 N
ATOM      5  H12 UNL     1      13.410  14.485  56.465  1.00  0.00     0.157 HD
ATOM      6  H11 UNL     1      14.147  15.964  55.818  1.00  0.00     0.157 HD
BRANCH   3   7
HETATM    7  C9  UNL     1      12.177  17.542  56.048  1.00  0.00     0.011 A
HETATM    8  C10 UNL     1      12.263  18.553  56.980  1.00  0.00     0.032 A
HETATM    9  C11 UNL     1      12.156  19.855  56.546  1.00  0.00     0.088 A
HETATM   10  N5  UNL     1      11.971  20.172  55.259  1.00  0.00    -0.375 N
HETATM   11  C12 UNL     1      11.884  19.199  54.339  1.00  0.00     0.088 A
ATOM     12  H5  UNL     1      11.897  21.150  54.978  1.00  0.00     0.164 HD
HETATM   13  C13 UNL     1      11.987  17.883  54.736  1.00  0.00     0.032 A
ENDBRANCH   3   7
ENDBRANCH   1   3
BRANCH   1  14
HETATM   14  N3  UNL     1       9.918  15.744  56.585  1.00  0.00    -0.309 N
HETATM   15  C2  UNL     1       8.970  16.484  56.808  1.00  0.00     0.121 C
ATOM     16  H3  UNL     1       9.661  15.122  55.819  1.00  0.00     0.186 HD
BRANCH  15  17
HETATM   17  C3  UNL     1       8.855  17.540  57.808  1.00  0.00     0.014 A
HETATM   18  C4  UNL     1       9.325  17.323  59.101  1.00  0.00     0.015 A
HETATM   19  C5  UNL     1       9.272  18.326  60.046  1.00  0.00     0.001 A
HETATM   20  C6  UNL     1       8.763  19.564  59.763  1.00  0.00     0.002 A
HETATM   21  C7  UNL     1       8.297  19.799  58.508  1.00  0.00     0.037 A
HETATM   22  C8  UNL     1       8.343  18.788  57.530  1.00  0.00     0.114 A
BRANCH  22  23
HETATM   23  N4  UNL     1       7.833  19.130  56.262  1.00  0.00    -0.115 N
HETATM   24  O1  UNL     1       6.681  19.001  55.835  1.00  0.00    -0.532 OA
HETATM   25  O2  UNL     1       8.719  19.753  55.361  1.00  0.00    -0.532 OA
ENDBRANCH  22  23
ENDBRANCH  15  17
ENDBRANCH   1  14
TORSDOF 5
ENDMDL