MODEL 5
REMARK VINA RESULT: -7.181417878      2.455      3.383
REMARK  6 active torsions:
REMARK  status: ('A' for Active; 'I' for Inactive)
REMARK    1  A    between atoms: C2_2  and  S1_7
REMARK    2  A    between atoms: N1_3  and  O1_5
REMARK    3  A    between atoms: S1_7  and  C3_8
REMARK    4  A    between atoms: C3_8  and  C4_9
REMARK    5  A    between atoms: N3_12  and  N4_14
REMARK       I    between atoms: N4_14  and  C6_16
REMARK    6  A    between atoms: C6_16  and  C7_18
ROOT
HETATM    1  C4  UNL     1      10.020  17.925  55.694  1.00  0.00     0.115 C
HETATM    2  C5  UNL     1      10.552  16.815  56.420  1.00  0.00     0.115 C
HETATM    3  N2  UNL     1      10.996  15.910  56.994  1.00  0.00    -0.190 NA
HETATM    4  N3  UNL     1       9.152  18.702  56.227  1.00  0.00    -0.291 N
ATOM      5  H3  UNL     1       8.809  19.479  55.662  1.00  0.00     0.187 HD
ENDROOT
BRANCH   1   6
HETATM    6  C3  UNL     1      10.471  18.187  54.313  1.00  0.00     0.151 C
BRANCH   6   7
HETATM    7  S1  UNL     1      11.834  19.365  54.255  1.00  0.00    -0.108 SA
BRANCH   7   8
HETATM    8  C2  UNL     1      11.951  20.200  55.808  1.00  0.00     0.064 C
HETATM    9  C1  UNL     1      12.680  19.578  56.923  1.00  0.00     0.078 C
HETATM   10  N1  UNL     1      11.402  21.343  55.966  1.00  0.00    -0.267 N
ATOM     11  H1  UNL     1      11.494  21.789  56.878  1.00  0.00     0.194 HD
BRANCH  10  12
HETATM   12  O1  UNL     1      10.701  22.013  55.005  1.00  0.00    -0.289 OA
ATOM     13  H1  UNL     1      10.181  22.793  55.155  1.00  0.00     0.244 HD
ENDBRANCH  10  12
ENDBRANCH   7   8
ENDBRANCH   6   7
ENDBRANCH   1   6
BRANCH   4  14
HETATM   14  N4  UNL     1       8.644  18.570  57.510  1.00  0.00    -0.263 N
HETATM   15  C6  UNL     1       8.748  19.586  58.481  1.00  0.00     0.293 C
HETATM   16  O2  UNL     1       9.324  20.650  58.172  1.00  0.00    -0.264 OA
ATOM     17  H4  UNL     1       8.174  17.700  57.762  1.00  0.00     0.190 HD
BRANCH  15  18
HETATM   18  C7  UNL     1       8.189  19.371  59.802  1.00  0.00     0.144 A
HETATM   19  C8  UNL     1       8.585  18.400  60.709  1.00  0.00     0.045 A
HETATM   20  C9  UNL     1       7.802  18.542  61.831  1.00  0.00     0.027 A
HETATM   21  C10 UNL     1       6.960  19.592  61.569  1.00  0.00     0.143 A
HETATM   22  O3  UNL     1       7.227  20.035  60.378  1.00  0.00    -0.317 OA
ENDBRANCH  15  18
ENDBRANCH   4  14
TORSDOF 6
ENDMDL