MODEL 2
REMARK VINA RESULT: -7.719600154      2.510      2.839
REMARK  7 active torsions:
REMARK  status: ('A' for Active; 'I' for Inactive)
REMARK    1  A    between atoms: O1_2  and  C2_3
REMARK    2  A    between atoms: C2_3  and  C3_5
REMARK    3  A    between atoms: C3_5  and  C5_8
REMARK    4  A    between atoms: N2_13  and  C10_15
REMARK    5  A    between atoms: C10_15  and  C11_16
REMARK    6  A    between atoms: C11_16  and  O3_17
REMARK    7  A    between atoms: N3_19  and  O4_21
ROOT
HETATM    1  C3  UNL     1       9.071  18.650  56.016  1.00  0.00     0.201 C
HETATM    2  C4  UNL     1       9.331  18.764  54.605  1.00  0.00     0.074 C
HETATM    3  N1  UNL     1       9.526  18.830  53.443  1.00  0.00    -0.196 NA
ENDROOT
BRANCH   1   4
HETATM    4  C2  UNL     1       7.593  18.794  56.311  1.00  0.00     0.277 C
HETATM    5  O2  UNL     1       7.107  19.910  56.642  1.00  0.00    -0.264 OA
BRANCH   4   6
HETATM    6  O1  UNL     1       6.740  17.714  56.226  1.00  0.00    -0.325 OA
HETATM    7  C1  UNL     1       7.058  16.523  56.946  1.00  0.00     0.213 C
ENDBRANCH   4   6
ENDBRANCH   1   4
BRANCH   1   8
HETATM    8  C5  UNL     1       9.741  19.693  56.828  1.00  0.00     0.058 C
HETATM    9  C6  UNL     1      10.752  20.510  56.073  1.00  0.00     0.013 C
HETATM   10  C7  UNL     1      12.059  19.852  56.319  1.00  0.00     0.006 C
HETATM   11  C8  UNL     1      11.884  19.001  57.530  1.00  0.00     0.052 C
HETATM   12  C9  UNL     1      10.496  19.233  58.007  1.00  0.00    -0.012 C
HETATM   13  N2  UNL     1      10.171  19.043  59.226  1.00  0.00    -0.388 N
ATOM     14  H2  UNL     1      10.853  18.714  59.910  1.00  0.00     0.159 HD
BRANCH  13  15
HETATM   15  C10 UNL     1       8.823  19.308  59.598  1.00  0.00     0.205 C
BRANCH  15  16
HETATM   16  C11 UNL     1       8.439  18.721  60.882  1.00  0.00     0.153 C
HETATM   17  N3  UNL     1       7.297  18.926  61.426  1.00  0.00    -0.250 N
ATOM     18  H3  UNL     1       6.635  19.526  60.932  1.00  0.00     0.196 HD
BRANCH  16  19
HETATM   19  O3  UNL     1       9.345  17.911  61.538  1.00  0.00    -0.347 OA
ATOM     20  H3  UNL     1       9.238  17.771  62.471  1.00  0.00     0.219 HD
ENDBRANCH  16  19
BRANCH  17  21
HETATM   21  O4  UNL     1       6.907  18.398  62.616  1.00  0.00    -0.288 OA
ATOM     22  H4  UNL     1       6.018  18.423  62.949  1.00  0.00     0.244 HD
ENDBRANCH  17  21
ENDBRANCH  15  16
ENDBRANCH  13  15
ENDBRANCH   1   8
TORSDOF 7
ENDMDL