MODEL 1
REMARK VINA RESULT: -7.667265537      0.000      0.000
REMARK  7 active torsions:
REMARK  status: ('A' for Active; 'I' for Inactive)
REMARK    1  A    between atoms: C1_4  and  N2_5
REMARK    2  A    between atoms: C1_4  and  C8_17
REMARK    3  A    between atoms: N2_5  and  O1_7
REMARK    4  A    between atoms: O1_7  and  C2_8
REMARK    5  A    between atoms: C2_8  and  C3_10
REMARK    6  A    between atoms: C3_10  and  S1_11
REMARK    7  A    between atoms: S1_11  and  C4_12
ROOT
HETATM    1  N2  UNL     1      11.355  15.735  57.200  1.00  0.00    -0.241 N
ATOM      2  H2  UNL     1      11.317  15.278  58.111  1.00  0.00     0.196 HD
ENDROOT
BRANCH   1   3
HETATM    3  C1  UNL     1      10.276  15.551  56.251  1.00  0.00     0.130 C
HETATM    4  N1  UNL     1      10.370  14.629  55.438  1.00  0.00    -0.383 N
ATOM      5  H12 UNL     1      11.189  14.021  55.423  1.00  0.00     0.157 HD
ATOM      6  H11 UNL     1       9.610  14.500  54.770  1.00  0.00     0.157 HD
BRANCH   3   7
HETATM    7  C8  UNL     1       9.107  16.419  56.271  1.00  0.00     0.012 A
HETATM    8  C9  UNL     1       8.147  16.365  57.280  1.00  0.00     0.032 A
HETATM    9  C10 UNL     1       7.056  17.194  57.263  1.00  0.00     0.088 A
HETATM   10  N3  UNL     1       6.917  18.075  56.250  1.00  0.00    -0.375 N
HETATM   11  C11 UNL     1       7.800  18.182  55.248  1.00  0.00     0.088 A
ATOM     12  H3  UNL     1       6.102  18.687  56.247  1.00  0.00     0.164 HD
HETATM   13  C12 UNL     1       8.890  17.342  55.279  1.00  0.00     0.032 A
ENDBRANCH   3   7
ENDBRANCH   1   3
BRANCH   1  14
HETATM   14  O1  UNL     1      12.418  16.517  56.875  1.00  0.00    -0.197 OA
BRANCH  14  15
HETATM   15  C2  UNL     1      12.379  17.799  56.317  1.00  0.00     0.290 C
HETATM   16  O2  UNL     1      12.425  17.896  55.082  1.00  0.00    -0.262 OA
BRANCH  15  17
HETATM   17  C3  UNL     1      12.282  18.996  57.172  1.00  0.00     0.194 C
BRANCH  17  18
HETATM   18  S1  UNL     1      10.753  19.874  57.182  1.00  0.00    -0.095 SA
BRANCH  18  19
HETATM   19  C4  UNL     1       9.683  19.554  58.562  1.00  0.00     0.112 A
HETATM   20  C5  UNL     1       9.864  18.606  59.567  1.00  0.00     0.046 A
HETATM   21  C6  UNL     1       8.792  18.713  60.424  1.00  0.00     0.028 A
HETATM   22  C7  UNL     1       8.009  19.706  59.916  1.00  0.00     0.143 A
HETATM   23  O3  UNL     1       8.566  20.182  58.816  1.00  0.00    -0.316 OA
ENDBRANCH  18  19
ENDBRANCH  17  18
ENDBRANCH  15  17
ENDBRANCH  14  15
ENDBRANCH   1  14
TORSDOF 7
ENDMDL