MODEL 1
REMARK VINA RESULT: -8.517043924      0.000      0.000
REMARK  5 active torsions:
REMARK  status: ('A' for Active; 'I' for Inactive)
REMARK    1  A    between atoms: O1_1  and  N1_3
REMARK    2  A    between atoms: N1_3  and  C1_5
REMARK    3  A    between atoms: N3_12  and  N4_14
REMARK    4  A    between atoms: C6_16  and  C7_17
REMARK    5  A    between atoms: C11_21  and  N5_22
ROOT
HETATM    1  C1  UNL     1       8.557  19.695  59.595  1.00  0.00     0.099 A
HETATM    2  C2  UNL     1       7.372  20.115  60.187  1.00  0.00     0.037 A
HETATM    3  C3  UNL     1       7.007  19.474  61.355  1.00  0.00     0.019 A
HETATM    4  C4  UNL     1       7.828  18.468  61.860  1.00  0.00     0.090 A
HETATM    5  N2  UNL     1       8.960  18.085  61.269  1.00  0.00    -0.349 N
ATOM      6  H2  UNL     1       9.531  17.343  61.675  1.00  0.00     0.167 HD
HETATM    7  C5  UNL     1       9.342  18.696  60.124  1.00  0.00     0.148 A
HETATM    8  N3  UNL     1      10.442  18.329  59.544  1.00  0.00    -0.284 N
ATOM      9  H3  UNL     1      10.971  17.583  59.995  1.00  0.00     0.188 HD
ENDROOT
BRANCH   8  10
HETATM   10  N4  UNL     1      10.957  18.832  58.408  1.00  0.00    -0.309 N
HETATM   11  C6  UNL     1      10.988  18.416  57.218  1.00  0.00     0.118 C
ATOM     12  H4  UNL     1      11.415  19.735  58.534  1.00  0.00     0.186 HD
BRANCH  11  13
HETATM   13  C7  UNL     1      10.457  17.202  56.642  1.00  0.00    -0.017 A
HETATM   14  C8  UNL     1      11.229  16.238  56.053  1.00  0.00     0.013 A
HETATM   15  C9  UNL     1      10.670  15.077  55.510  1.00  0.00     0.003 A
HETATM   16  C10 UNL     1       9.310  14.882  55.559  1.00  0.00     0.036 A
HETATM   17  C11 UNL     1       8.544  15.861  56.155  1.00  0.00     0.103 A
HETATM   18  C12 UNL     1       9.075  17.000  56.691  1.00  0.00     0.048 A
BRANCH  17  19
HETATM   19  N5  UNL     1       7.139  15.645  56.198  1.00  0.00    -0.116 N
HETATM   20  O2  UNL     1       6.712  14.460  56.211  1.00  0.00    -0.532 OA
HETATM   21  O3  UNL     1       6.249  16.688  56.225  1.00  0.00    -0.532 OA
ENDBRANCH  17  19
ENDBRANCH  11  13
ENDBRANCH   8  10
BRANCH   1  22
HETATM   22  N1  UNL     1       8.984  20.317  58.392  1.00  0.00    -0.266 N
ATOM     23  H1  UNL     1       9.894  20.776  58.377  1.00  0.00     0.194 HD
BRANCH  22  24
HETATM   24  O1  UNL     1       8.294  20.327  57.353  1.00  0.00    -0.289 OA
ATOM     25  H1  UNL     1       8.551  20.795  56.568  1.00  0.00     0.244 HD
ENDBRANCH  22  24
ENDBRANCH   1  22
TORSDOF 5
ENDMDL