MODEL 1
REMARK VINA RESULT: -7.622467041      0.000      0.000
REMARK  7 active torsions:
REMARK  status: ('A' for Active; 'I' for Inactive)
REMARK    1  A    between atoms: O1_2  and  C2_3
REMARK    2  A    between atoms: C2_3  and  C3_5
REMARK    3  A    between atoms: C8_10  and  C9_11
REMARK    4  A    between atoms: C8_10  and  C10_18
REMARK    5  A    between atoms: C9_11  and  O3_12
REMARK    6  A    between atoms: N1_14  and  O4_16
REMARK    7  A    between atoms: C10_18  and  C12_21
ROOT
HETATM    1  C10 UNL     1      10.000  16.973  56.003  1.00  0.00     0.171 C
HETATM    2  C11 UNL     1       9.506  16.942  54.632  1.00  0.00     0.072 C
HETATM    3  N2  UNL     1       9.117  16.895  53.541  1.00  0.00    -0.196 NA
ENDROOT
BRANCH   1   4
HETATM    4  C8  UNL     1      11.269  17.804  56.058  1.00  0.00     0.061 C
HETATM    5  C3  UNL     1      11.593  18.425  57.348  1.00  0.00     0.104 C
HETATM    6  C4  UNL     1      12.685  19.472  57.121  1.00  0.00     0.016 C
HETATM    7  C5  UNL     1      12.295  20.580  56.213  1.00  0.00     0.001 C
HETATM    8  C6  UNL     1      11.232  20.190  55.219  1.00  0.00     0.001 C
HETATM    9  C7  UNL     1      11.338  18.726  54.848  1.00  0.00     0.020 C
BRANCH   5  10
HETATM   10  C2  UNL     1      10.565  19.015  58.185  1.00  0.00     0.263 C
HETATM   11  O2  UNL     1      10.480  18.650  59.390  1.00  0.00    -0.265 OA
BRANCH  10  12
HETATM   12  O1  UNL     1       9.623  19.967  57.826  1.00  0.00    -0.326 OA
HETATM   13  C1  UNL     1       8.271  19.618  57.616  1.00  0.00     0.213 C
ENDBRANCH  10  12
ENDBRANCH   5  10
BRANCH   4  14
HETATM   14  C9  UNL     1      12.339  16.790  55.800  1.00  0.00     0.146 C
HETATM   15  N1  UNL     1      12.941  16.118  56.709  1.00  0.00    -0.250 N
ATOM     16  H1  UNL     1      12.681  16.278  57.683  1.00  0.00     0.196 HD
BRANCH  14  17
HETATM   17  O3  UNL     1      12.700  16.564  54.482  1.00  0.00    -0.347 OA
ATOM     18  H3  UNL     1      12.960  17.316  53.964  1.00  0.00     0.219 HD
ENDBRANCH  14  17
BRANCH  15  19
HETATM   19  O4  UNL     1      13.914  15.201  56.439  1.00  0.00    -0.288 OA
ATOM     20  H4  UNL     1      13.740  14.368  56.018  1.00  0.00     0.244 HD
ENDBRANCH  15  19
ENDBRANCH   4  14
ENDBRANCH   1   4
BRANCH   1  21
HETATM   21  C12 UNL     1      10.019  15.709  56.711  1.00  0.00     0.251 C
HETATM   22  O5  UNL     1      10.014  14.682  56.009  1.00  0.00    -0.305 OA
ENDBRANCH   1  21
TORSDOF 7
ENDMDL