MODEL 1
REMARK VINA RESULT: -7.832066568      0.000      0.000
REMARK  4 active torsions:
REMARK  status: ('A' for Active; 'I' for Inactive)
REMARK    1  A    between atoms: N1_2  and  C1_4
REMARK    2  A    between atoms: C3_6  and  N2_7
REMARK    3  A    between atoms: N2_7  and  C4_9
REMARK    4  A    between atoms: C10_18  and  N4_19
ROOT
HETATM    1  C1  UNL     1       8.739  15.538  56.045  1.00  0.00     0.107 A
HETATM    2  C2  UNL     1       8.420  16.743  56.629  1.00  0.00     0.065 A
HETATM    3  C3  UNL     1       9.419  17.660  56.979  1.00  0.00     0.033 A
HETATM    4  C9  UNL     1      10.730  17.347  56.733  1.00  0.00     0.065 A
HETATM    5  C10 UNL     1      11.084  16.126  56.139  1.00  0.00     0.107 A
HETATM    6  C11 UNL     1      10.067  15.251  55.810  1.00  0.00     0.072 A
ENDROOT
BRANCH   3   7
HETATM    7  N2  UNL     1       9.095  18.890  57.587  1.00  0.00    -0.385 N
ATOM      8  H2  UNL     1       8.650  19.619  57.031  1.00  0.00     0.160 HD
BRANCH   7   9
HETATM    9  C4  UNL     1       9.374  19.134  58.956  1.00  0.00     0.085 C
HETATM   10  C5  UNL     1       8.263  19.979  59.542  1.00  0.00     0.052 C
HETATM   11  C6  UNL     1       7.419  19.092  60.413  1.00  0.00     0.234 C
HETATM   12  N3  UNL     1       8.115  18.549  61.545  1.00  0.00    -0.075 N
HETATM   13  C7  UNL     1       9.453  18.182  61.194  1.00  0.00     0.234 C
ATOM     14  H32 UNL     1       8.096  19.188  62.341  1.00  0.00     0.277 HD
ATOM     15  H31 UNL     1       7.607  17.769  61.961  1.00  0.00     0.277 HD
HETATM   16  C8  UNL     1       9.481  17.812  59.726  1.00  0.00     0.052 C
ENDBRANCH   7   9
ENDBRANCH   3   7
BRANCH   1  17
HETATM   17  N1  UNL     1       7.714  14.611  55.693  1.00  0.00    -0.116 N
HETATM   18  O1  UNL     1       6.626  14.557  56.292  1.00  0.00    -0.532 OA
HETATM   19  O2  UNL     1       7.917  13.738  54.659  1.00  0.00    -0.532 OA
ENDBRANCH   1  17
BRANCH   5  20
HETATM   20  N4  UNL     1      12.451  15.832  55.897  1.00  0.00    -0.116 N
HETATM   21  O3  UNL     1      12.817  15.472  54.787  1.00  0.00    -0.532 OA
HETATM   22  O4  UNL     1      13.366  15.949  56.907  1.00  0.00    -0.532 OA
ENDBRANCH   5  20
TORSDOF 4
ENDMDL