MODEL 1
REMARK VINA RESULT: -7.602195483      0.000      0.000
REMARK  6 active torsions:
REMARK  status: ('A' for Active; 'I' for Inactive)
REMARK    1  A    between atoms: N1_2  and  C1_4
REMARK    2  A    between atoms: C4_7  and  C5_8
REMARK    3  A    between atoms: N2_9  and  N3_11
REMARK    4  A    between atoms: N3_11  and  C6_13
REMARK    5  A    between atoms: C6_13  and  N4_15
REMARK    6  A    between atoms: N4_15  and  C7_17
ROOT
HETATM    1  C5  UNL     1       9.047  19.994  57.918  1.00  0.00     0.144 C
HETATM    2  N2  UNL     1       8.522  19.471  56.876  1.00  0.00    -0.307 N
ATOM      3  H2  UNL     1       7.935  18.647  56.999  1.00  0.00     0.186 HD
ENDROOT
BRANCH   2   4
HETATM    4  N3  UNL     1       8.701  19.951  55.600  1.00  0.00    -0.277 N
ATOM      5  H3  UNL     1       8.250  20.820  55.313  1.00  0.00     0.189 HD
BRANCH   4   6
HETATM    6  C6  UNL     1       9.515  19.235  54.683  1.00  0.00     0.186 C
HETATM    7  S1  UNL     1       8.997  17.798  54.094  1.00  0.00    -0.040 SA
BRANCH   6   8
HETATM    8  N4  UNL     1      10.761  19.752  54.279  1.00  0.00    -0.361 N
ATOM      9  H4  UNL     1      10.835  20.268  53.403  1.00  0.00     0.162 HD
BRANCH   8  10
HETATM   10  C7  UNL     1      11.920  19.559  55.088  1.00  0.00     0.083 C
HETATM   11  C8  UNL     1      12.115  20.550  56.220  1.00  0.00     0.025 C
HETATM   12  C9  UNL     1      12.708  19.379  57.012  1.00  0.00     0.004 C
HETATM   13  C10 UNL     1      11.775  18.489  56.178  1.00  0.00     0.025 C
ENDBRANCH   8  10
ENDBRANCH   6   8
ENDBRANCH   4   6
ENDBRANCH   2   4
BRANCH   1  14
HETATM   14  C4  UNL     1       8.797  19.413  59.221  1.00  0.00     0.095 A
HETATM   15  C3  UNL     1       9.622  18.517  59.886  1.00  0.00     0.043 A
HETATM   16  C2  UNL     1       9.027  18.209  61.090  1.00  0.00     0.065 A
HETATM   17  C1  UNL     1       7.853  18.931  61.122  1.00  0.00     0.215 A
HETATM   18  O3  UNL     1       7.777  19.610  60.008  1.00  0.00    -0.287 OA
BRANCH  17  19
HETATM   19  N1  UNL     1       6.908  18.911  62.207  1.00  0.00    -0.090 N
HETATM   20  O1  UNL     1       6.685  19.937  62.868  1.00  0.00    -0.530 OA
HETATM   21  O2  UNL     1       6.269  17.735  62.485  1.00  0.00    -0.530 OA
ENDBRANCH  17  19
ENDBRANCH   1  14
TORSDOF 6
ENDMDL