MODEL 5
REMARK VINA RESULT: -8.446923164      1.837      2.328
REMARK  6 active torsions:
REMARK  status: ('A' for Active; 'I' for Inactive)
REMARK    1  A    between atoms: C1_2  and  O2_3
REMARK    2  A    between atoms: C1_2  and  C7_13
REMARK    3  A    between atoms: O2_3  and  N1_4
REMARK       I    between atoms: N1_4  and  C2_6
REMARK    4  A    between atoms: C2_6  and  C3_8
REMARK    5  A    between atoms: C10_16  and  C11_17
REMARK    6  A    between atoms: N2_18  and  O5_20
ROOT
HETATM    1  O1  UNL     1      11.043  20.621  56.934  1.00  0.00    -0.257 OA
HETATM    2  C1  UNL     1      10.748  19.475  57.362  1.00  0.00     0.315 C
ENDROOT
BRANCH   2   3
HETATM    3  O2  UNL     1      11.292  18.394  56.710  1.00  0.00    -0.192 OA
BRANCH   3   4
HETATM    4  N1  UNL     1      10.632  17.600  55.803  1.00  0.00    -0.220 N
HETATM    5  C2  UNL     1      10.446  16.232  56.129  1.00  0.00     0.299 C
HETATM    6  O3  UNL     1      10.877  15.770  57.218  1.00  0.00    -0.263 OA
ATOM      7  H1  UNL     1      10.286  17.983  54.924  1.00  0.00     0.198 HD
BRANCH   5   8
HETATM    8  C3  UNL     1       9.750  15.313  55.218  1.00  0.00     0.144 A
HETATM    9  C4  UNL     1       8.552  14.670  55.466  1.00  0.00     0.045 A
HETATM   10  C5  UNL     1       8.239  13.892  54.349  1.00  0.00     0.027 A
HETATM   11  C6  UNL     1       9.285  14.114  53.477  1.00  0.00     0.143 A
HETATM   12  O4  UNL     1      10.130  14.946  54.034  1.00  0.00    -0.317 OA
ENDBRANCH   5   8
ENDBRANCH   3   4
ENDBRANCH   2   3
BRANCH   2  13
HETATM   13  C7  UNL     1       9.854  19.319  58.514  1.00  0.00     0.041 A
HETATM   14  C8  UNL     1      10.165  18.460  59.538  1.00  0.00     0.018 A
HETATM   15  C9  UNL     1       9.329  18.292  60.643  1.00  0.00     0.014 A
HETATM   16  C10 UNL     1       8.152  18.993  60.740  1.00  0.00    -0.019 A
HETATM   17  C12 UNL     1       7.845  19.853  59.709  1.00  0.00     0.014 A
HETATM   18  C13 UNL     1       8.671  20.021  58.615  1.00  0.00     0.018 A
BRANCH  16  19
HETATM   19  C11 UNL     1       7.237  18.842  61.895  1.00  0.00     0.125 C
HETATM   20  N2  UNL     1       6.208  19.577  62.013  1.00  0.00    -0.280 N
ATOM     21  H2  UNL     1       6.001  20.284  61.307  1.00  0.00     0.193 HD
BRANCH  20  22
HETATM   22  O5  UNL     1       5.377  19.420  63.090  1.00  0.00    -0.290 OA
ATOM     23  H5  UNL     1       5.576  18.764  63.749  1.00  0.00     0.244 HD
ENDBRANCH  20  22
ENDBRANCH  16  19
ENDBRANCH   2  13
TORSDOF 6
ENDMDL