MODEL 2
REMARK VINA RESULT: -7.024320543      1.253      1.605
REMARK  4 active torsions:
REMARK  status: ('A' for Active; 'I' for Inactive)
REMARK       I    between atoms: C1_2  and  N1_3
REMARK       I    between atoms: C1_2  and  N3_13
REMARK    1  A    between atoms: N1_3  and  N2_5
REMARK    2  A    between atoms: C2_7  and  C3_8
REMARK    3  A    between atoms: N3_13  and  N4_15
REMARK    4  A    between atoms: C7_17  and  C8_18
ROOT
HETATM    1  O1  UNL     1      10.865  16.236  57.081  1.00  0.00    -0.244 OA
HETATM    2  C1  UNL     1      11.543  17.251  56.857  1.00  0.00     0.353 C
HETATM    3  N1  UNL     1      11.420  18.386  57.707  1.00  0.00    -0.251 N
ATOM      4  H1  UNL     1      11.984  19.212  57.508  1.00  0.00     0.191 HD
HETATM    5  N3  UNL     1      12.466  17.331  55.750  1.00  0.00    -0.251 N
ATOM      6  H3  UNL     1      13.016  18.174  55.579  1.00  0.00     0.191 HD
ENDROOT
BRANCH   3   7
HETATM    7  N2  UNL     1      10.559  18.407  58.799  1.00  0.00    -0.307 N
HETATM    8  C2  UNL     1       9.495  19.140  58.804  1.00  0.00     0.120 C
ATOM      9  H2  UNL     1      10.772  17.832  59.613  1.00  0.00     0.186 HD
BRANCH   8  10
HETATM   10  C3  UNL     1       8.636  19.108  59.995  1.00  0.00     0.005 A
HETATM   11  C4  UNL     1       7.530  19.897  60.247  1.00  0.00     0.039 A
HETATM   12  C5  UNL     1       7.045  19.521  61.472  1.00  0.00     0.142 A
HETATM   13  O2  UNL     1       7.800  18.564  61.945  1.00  0.00    -0.334 OA
HETATM   14  C6  UNL     1       8.769  18.282  61.092  1.00  0.00     0.154 A
ENDBRANCH   8  10
ENDBRANCH   3   7
BRANCH   5  15
HETATM   15  N4  UNL     1      12.577  16.242  54.941  1.00  0.00    -0.307 N
HETATM   16  C7  UNL     1      12.009  16.024  53.871  1.00  0.00     0.126 C
ATOM     17  H4  UNL     1      13.214  15.513  55.263  1.00  0.00     0.186 HD
BRANCH  16  18
HETATM   18  C8  UNL     1      11.059  16.882  53.181  1.00  0.00     0.021 A
HETATM   19  C9  UNL     1      11.170  17.700  52.098  1.00  0.00     0.021 A
HETATM   20  C10 UNL     1      10.069  18.382  51.695  1.00  0.00     0.008 A
HETATM   21  C11 UNL     1       8.924  18.197  52.410  1.00  0.00     0.050 A
HETATM   22  S1  UNL     1       9.384  17.097  53.611  1.00  0.00    -0.101 SA
ENDBRANCH  16  18
ENDBRANCH   5  15
TORSDOF 4
ENDMDL