MODEL 1
REMARK VINA RESULT: -8.146340723      0.000      0.000
REMARK  11 active torsions:
REMARK  status: ('A' for Active; 'I' for Inactive)
REMARK    1  A    between atoms: C2_2  and  C26_31
REMARK    2  A    between atoms: C3_3  and  C4_4
REMARK    3  A    between atoms: C4_4  and  C5_5
REMARK    4  A    between atoms: C5_5  and  C7_7
REMARK    5  A    between atoms: C11_12  and  O2_13
REMARK    6  A    between atoms: C26_31  and  C27_32
REMARK    7  A    between atoms: C27_32  and  C28_34
REMARK    8  A    between atoms: C30_36  and  C31_37
REMARK    9  A    between atoms: C32_38  and  C33_39
REMARK   10  A    between atoms: C33_39  and  C34_40
REMARK   11  A    between atoms: C34_40  and  C35_41
ROOT
HETATM    1  C7  UNL     1     -30.085  -3.628 -37.886  1.00  0.00     0.039 C
HETATM    2  C8  UNL     1     -30.689  -4.950 -37.857  1.00  0.00     0.180 C
HETATM    3  O1  UNL     1     -29.977  -6.031 -37.559  1.00  0.00    -0.360 OA
HETATM    4  C9  UNL     1     -29.030  -6.564 -38.272  1.00  0.00     0.263 C
HETATM    5  C10 UNL     1     -28.206  -5.752 -39.212  1.00  0.00     0.096 C
HETATM    6  C11 UNL     1     -27.316  -4.742 -38.525  1.00  0.00     0.166 C
HETATM    7  C12 UNL     1     -27.244  -4.905 -37.031  1.00  0.00     0.168 C
HETATM    8  F1  UNL     1     -25.878  -4.596 -36.775  1.00  0.00    -0.236 F
HETATM    9  C13 UNL     1     -27.246  -6.366 -36.774  1.00  0.00     0.099 C
HETATM   10  C14 UNL     1     -25.910  -6.998 -37.230  1.00  0.00     0.050 C
HETATM   11  C15 UNL     1     -27.271  -6.593 -35.315  1.00  0.00     0.042 C
HETATM   12  C16 UNL     1     -28.444  -5.957 -34.639  1.00  0.00     0.009 C
HETATM   13  C17 UNL     1     -28.723  -4.533 -34.975  1.00  0.00     0.005 C
HETATM   14  C18 UNL     1     -28.681  -3.675 -33.728  1.00  0.00    -0.043 C
HETATM   15  C19 UNL     1     -29.779  -2.598 -33.685  1.00  0.00     0.015 C
HETATM   16  C20 UNL     1     -29.101  -4.554 -32.530  1.00  0.00     0.015 C
HETATM   17  C21 UNL     1     -27.361  -3.135 -33.339  1.00  0.00     0.009 C
HETATM   18  C22 UNL     1     -26.406  -3.151 -34.499  1.00  0.00     0.002 C
HETATM   19  C23 UNL     1     -27.153  -2.872 -35.720  1.00  0.00     0.013 C
HETATM   20  C24 UNL     1     -28.095  -4.000 -36.215  1.00  0.00     0.006 C
HETATM   21  C25 UNL     1     -29.057  -3.140 -37.058  1.00  0.00     0.024 C
HETATM   22  O3  UNL     1     -28.151  -7.161 -37.371  1.00  0.00    -0.347 OA
ENDROOT
BRANCH   1  23
HETATM   23  C5  UNL     1     -31.265  -2.619 -37.934  1.00  0.00    -0.078 C
HETATM   24  C6  UNL     1     -32.140  -2.605 -36.754  1.00  0.00     0.044 C
BRANCH  23  25
HETATM   25  C4  UNL     1     -30.912  -1.420 -38.647  1.00  0.00     0.003 C
BRANCH  25  26
HETATM   26  C3  UNL     1     -30.595  -0.224 -38.428  1.00  0.00     0.007 C
HETATM   27  C2  UNL     1     -30.281   0.640 -37.318  1.00  0.00    -0.063 C
HETATM   28  C1  UNL     1     -30.146   0.195 -35.904  1.00  0.00     0.048 C
BRANCH  27  29
HETATM   29  C26 UNL     1     -30.040   1.931 -37.622  1.00  0.00     0.021 C
BRANCH  29  30
HETATM   30  C27 UNL     1     -30.149   3.088 -36.743  1.00  0.00     0.222 C
HETATM   31  F2  UNL     1     -31.236   3.876 -37.060  1.00  0.00    -0.240 F
BRANCH  30  32
HETATM   32  C28 UNL     1     -28.909   3.869 -36.804  1.00  0.00    -0.047 C
HETATM   33  C29 UNL     1     -27.900   3.304 -37.825  1.00  0.00     0.046 C
HETATM   34  C30 UNL     1     -28.514   4.922 -36.160  1.00  0.00     0.005 C
BRANCH  34  35
HETATM   35  C31 UNL     1     -29.134   5.713 -35.155  1.00  0.00    -0.004 C
HETATM   36  C32 UNL     1     -28.709   6.092 -33.978  1.00  0.00    -0.026 C
BRANCH  36  37
HETATM   37  C33 UNL     1     -27.525   5.923 -33.184  1.00  0.00     0.037 C
BRANCH  37  38
HETATM   38  C34 UNL     1     -26.546   7.020 -33.033  1.00  0.00     0.117 C
BRANCH  38  39
HETATM   39  C35 UNL     1     -26.308   7.267 -31.553  1.00  0.00     0.172 C
HETATM   40  O4  UNL     1     -25.194   7.021 -31.030  1.00  0.00    -0.648 OA
HETATM   41  O5  UNL     1     -27.318   7.771 -30.761  1.00  0.00    -0.648 OA
ENDBRANCH  38  39
ENDBRANCH  37  38
ENDBRANCH  36  37
ENDBRANCH  34  35
ENDBRANCH  30  32
ENDBRANCH  29  30
ENDBRANCH  27  29
ENDBRANCH  25  26
ENDBRANCH  23  25
ENDBRANCH   1  23
BRANCH   6  42
HETATM   42  O2  UNL     1     -26.025  -4.979 -39.109  1.00  0.00    -0.392 OA
ATOM     43  H2  UNL     1     -25.428  -4.879 -38.377  1.00  0.00     0.210 HD
ENDBRANCH   6  42
TORSDOF 11
ENDMDL