MODEL 2
REMARK VINA RESULT: -5.889391955      7.453     12.346
REMARK  12 active torsions:
REMARK  status: ('A' for Active; 'I' for Inactive)
REMARK    1  A    between atoms: C3_3  and  O1_4
REMARK    2  A    between atoms: C3_3  and  C6_8
REMARK    3  A    between atoms: O1_4  and  C4_5
REMARK    4  A    between atoms: C6_8  and  C8_10
REMARK    5  A    between atoms: C6_8  and  C13_17
REMARK    6  A    between atoms: C8_10  and  C9_11
REMARK    7  A    between atoms: C9_11  and  C10_12
REMARK    8  A    between atoms: C10_12  and  C11_13
REMARK    9  A    between atoms: C15_19  and  O3_20
REMARK   10  A    between atoms: C21_27  and  O4_28
REMARK   11  A    between atoms: C21_27  and  C22_30
REMARK   12  A    between atoms: C25_33  and  O5_34
ROOT
HETATM    1  C1  UNL     1     -29.904   0.435 -36.480  1.00  0.00     0.099 C
HETATM    2  C2  UNL     1     -30.161   1.536 -36.947  1.00  0.00    -0.154 C
HETATM    3  C3  UNL     1     -30.518   2.831 -37.543  1.00  0.00     0.209 C
ENDROOT
BRANCH   3   4
HETATM    4  O1  UNL     1     -30.990   3.582 -36.391  1.00  0.00    -0.304 OA
BRANCH   4   5
HETATM    5  C4  UNL     1     -32.303   3.724 -36.055  1.00  0.00     0.256 C
HETATM    6  C5  UNL     1     -33.402   3.878 -37.055  1.00  0.00     0.126 C
HETATM    7  O2  UNL     1     -32.647   3.730 -34.852  1.00  0.00    -0.266 OA
ENDBRANCH   4   5
ENDBRANCH   3   4
BRANCH   3   8
HETATM    8  C6  UNL     1     -29.411   3.561 -38.220  1.00  0.00     0.017 C
HETATM    9  C7  UNL     1     -28.160   2.694 -38.230  1.00  0.00     0.024 C
BRANCH   8  10
HETATM   10  C8  UNL     1     -28.951   4.788 -37.559  1.00  0.00     0.017 C
BRANCH  10  11
HETATM   11  C9  UNL     1     -27.840   4.752 -36.565  1.00  0.00     0.007 C
BRANCH  11  12
HETATM   12  C10 UNL     1     -27.845   6.214 -35.992  1.00  0.00     0.079 C
BRANCH  12  13
HETATM   13  C11 UNL     1     -28.127   6.165 -34.524  1.00  0.00     0.240 C
HETATM   14  C12 UNL     1     -29.598   6.346 -34.288  1.00  0.00     0.090 C
HETATM   15  F1  UNL     1     -27.419   7.201 -33.926  1.00  0.00    -0.207 F
HETATM   16  F2  UNL     1     -27.750   4.934 -34.051  1.00  0.00    -0.207 F
ENDBRANCH  12  13
ENDBRANCH  11  12
ENDBRANCH  10  11
ENDBRANCH   8  10
BRANCH   8  17
HETATM   17  C13 UNL     1     -29.892   3.858 -39.621  1.00  0.00    -0.060 C
HETATM   18  C14 UNL     1     -30.632   4.949 -39.672  1.00  0.00     0.009 C
HETATM   19  C15 UNL     1     -31.268   5.539 -40.888  1.00  0.00     0.142 C
HETATM   20  C16 UNL     1     -30.314   5.116 -41.976  1.00  0.00     0.045 C
HETATM   21  C17 UNL     1     -30.470   3.581 -41.994  1.00  0.00     0.030 C
HETATM   22  C18 UNL     1     -30.173   3.132 -43.354  1.00  0.00    -0.067 C
HETATM   23  C34 UNL     1     -29.667   2.986 -40.840  1.00  0.00    -0.012 C
HETATM   24  C19 UNL     1     -31.259   2.365 -44.088  1.00  0.00     0.038 C
HETATM   25  C31 UNL     1     -28.852   2.526 -43.638  1.00  0.00    -0.044 C
HETATM   26  C20 UNL     1     -30.994   2.505 -45.605  1.00  0.00     0.047 C
HETATM   27  C21 UNL     1     -30.534   1.139 -46.138  1.00  0.00     0.088 C
HETATM   28  C24 UNL     1     -29.442   0.598 -45.310  1.00  0.00     0.020 A
HETATM   29  C25 UNL     1     -29.154  -0.671 -45.757  1.00  0.00     0.078 A
HETATM   30  C30 UNL     1     -28.776   1.158 -44.189  1.00  0.00    -0.018 A
HETATM   31  C27 UNL     1     -28.198  -1.409 -45.082  1.00  0.00     0.037 A
HETATM   32  C28 UNL     1     -27.537  -0.907 -43.990  1.00  0.00     0.004 A
HETATM   33  C29 UNL     1     -27.839   0.365 -43.567  1.00  0.00     0.013 A
HETATM   34  C32 UNL     1     -27.834   2.921 -42.629  1.00  0.00     0.041 C
HETATM   35  C33 UNL     1     -28.232   2.838 -41.198  1.00  0.00     0.019 C
HETATM   36  C35 UNL     1     -30.301   1.630 -40.667  1.00  0.00     0.021 C
BRANCH  19  37
HETATM   37  O3  UNL     1     -31.290   6.919 -40.854  1.00  0.00    -0.392 OA
ATOM     38  H3  UNL     1     -31.321   7.302 -41.723  1.00  0.00     0.210 HD
ENDBRANCH  19  37
BRANCH  27  39
HETATM   39  O4  UNL     1     -30.041   1.359 -47.417  1.00  0.00    -0.385 OA
ATOM     40  H4  UNL     1     -29.661   0.537 -47.706  1.00  0.00     0.211 HD
ENDBRANCH  27  39
BRANCH  27  41
HETATM   41  C22 UNL     1     -31.827   0.352 -46.154  1.00  0.00     0.038 C
HETATM   42  C23 UNL     1     -32.702   0.843 -47.332  1.00  0.00     0.008 C
ENDBRANCH  27  41
BRANCH  29  43
HETATM   43  O5  UNL     1     -29.781  -1.229 -46.860  1.00  0.00    -0.355 OA
HETATM   44  C26 UNL     1     -29.361  -2.470 -47.399  1.00  0.00     0.210 C
ENDBRANCH  29  43
ENDBRANCH   8  17
ENDBRANCH   3   8
TORSDOF 12
ENDMDL