MODEL 1
REMARK VINA RESULT: -7.633140649      0.000      0.000
REMARK  11 active torsions:
REMARK  status: ('A' for Active; 'I' for Inactive)
REMARK    1  A    between atoms: C6_8  and  C7_9
REMARK    2  A    between atoms: N2_12  and  C10_13
REMARK    3  A    between atoms: C11_14  and  C12_15
REMARK    4  A    between atoms: C12_15  and  C13_16
REMARK    5  A    between atoms: C13_16  and  C14_17
REMARK    6  A    between atoms: C14_17  and  O1_18
REMARK    7  A    between atoms: O1_18  and  C15_19
REMARK    8  A    between atoms: C15_19  and  N3_21
REMARK    9  A    between atoms: C18_24  and  O2_25
REMARK   10  A    between atoms: O2_25  and  C19_26
REMARK   11  A    between atoms: C31_40  and  O3_41
ROOT
HETATM    1  C10 UNL     1     -29.793   1.906 -40.061  1.00  0.00     0.089 C
HETATM    2  C11 UNL     1     -30.501   0.926 -39.267  1.00  0.00     0.013 C
ENDROOT
BRANCH   2   3
HETATM    3  C12 UNL     1     -31.576   1.121 -38.317  1.00  0.00    -0.023 C
BRANCH   3   4
HETATM    4  C13 UNL     1     -31.800   0.217 -37.158  1.00  0.00     0.054 C
BRANCH   4   5
HETATM    5  C14 UNL     1     -30.943   0.641 -35.955  1.00  0.00     0.182 C
BRANCH   5   6
HETATM    6  O1  UNL     1     -29.787  -0.167 -35.904  1.00  0.00    -0.327 OA
BRANCH   6   7
HETATM    7  C15 UNL     1     -29.668  -1.335 -35.228  1.00  0.00     0.212 C
HETATM    8  S1  UNL     1     -30.677  -1.646 -33.980  1.00  0.00    -0.033 SA
BRANCH   7   9
HETATM    9  N3  UNL     1     -28.649  -2.306 -35.608  1.00  0.00    -0.351 N
HETATM   10  C16 UNL     1     -28.687  -2.736 -36.955  1.00  0.00     0.128 C
HETATM   11  C17 UNL     1     -27.626  -3.680 -37.336  1.00  0.00     0.054 C
HETATM   12  C18 UNL     1     -27.176  -4.585 -36.205  1.00  0.00     0.150 C
HETATM   13  C25 UNL     1     -26.720  -3.745 -35.023  1.00  0.00     0.130 C
HETATM   14 CL1  UNL     1     -26.411  -4.861 -33.680  1.00  0.00    -0.121 Cl
HETATM   15  C26 UNL     1     -27.712  -2.730 -34.628  1.00  0.00     0.148 C
BRANCH  12  16
HETATM   16  O2  UNL     1     -26.078  -5.296 -36.653  1.00  0.00    -0.344 OA
BRANCH  16  17
HETATM   17  C19 UNL     1     -26.046  -6.601 -37.042  1.00  0.00     0.072 A
HETATM   18  C20 UNL     1     -25.669  -7.623 -36.216  1.00  0.00     0.037 A
HETATM   19  C21 UNL     1     -25.650  -8.949 -36.654  1.00  0.00     0.006 A
HETATM   20  C22 UNL     1     -26.010  -9.281 -37.936  1.00  0.00     0.042 A
HETATM   21  C23 UNL     1     -26.398  -8.259 -38.795  1.00  0.00     0.119 A
HETATM   22  F1  UNL     1     -26.748  -8.623 -40.042  1.00  0.00    -0.206 F
HETATM   23  C24 UNL     1     -26.409  -6.967 -38.346  1.00  0.00     0.079 A
ENDBRANCH  16  17
ENDBRANCH  12  16
ENDBRANCH   7   9
ENDBRANCH   6   7
ENDBRANCH   5   6
ENDBRANCH   4   5
ENDBRANCH   3   4
ENDBRANCH   2   3
BRANCH   1  24
HETATM   24  N2  UNL     1     -29.122   2.991 -39.552  1.00  0.00    -0.370 N
HETATM   25  C9  UNL     1     -28.187   2.890 -38.512  1.00  0.00     0.064 C
HETATM   26  C8  UNL     1     -28.713   3.327 -37.154  1.00  0.00     0.054 C
HETATM   27  C7  UNL     1     -29.317   4.696 -37.305  1.00  0.00     0.027 C
HETATM   28  C28 UNL     1     -30.451   4.586 -38.269  1.00  0.00     0.030 C
HETATM   29  C27 UNL     1     -29.815   4.260 -39.622  1.00  0.00     0.128 C
BRANCH  27  30
HETATM   30  C6  UNL     1     -29.663   5.308 -36.015  1.00  0.00    -0.026 A
HETATM   31  C5  UNL     1     -30.958   5.554 -35.618  1.00  0.00     0.096 A
HETATM   32  N1  UNL     1     -30.926   6.127 -34.402  1.00  0.00    -0.365 N
HETATM   33  C4  UNL     1     -29.664   6.271 -33.977  1.00  0.00     0.043 A
ATOM     34  H1  UNL     1     -31.751   6.413 -33.875  1.00  0.00     0.165 HD
HETATM   35  C3  UNL     1     -29.056   6.773 -32.848  1.00  0.00     0.039 A
HETATM   36  C29 UNL     1     -28.875   5.752 -34.997  1.00  0.00     0.001 A
HETATM   37  C2  UNL     1     -27.683   6.786 -32.678  1.00  0.00    -0.027 A
HETATM   38  C1  UNL     1     -27.098   7.345 -31.418  1.00  0.00     0.051 C
HETATM   39  C31 UNL     1     -26.903   6.271 -33.688  1.00  0.00     0.072 A
HETATM   40  C30 UNL     1     -27.525   5.763 -34.835  1.00  0.00     0.051 A
BRANCH  39  41
HETATM   41  O3  UNL     1     -25.539   6.271 -33.547  1.00  0.00    -0.360 OA
ATOM     42  H3  UNL     1     -25.068   7.095 -33.582  1.00  0.00     0.217 HD
ENDBRANCH  39  41
ENDBRANCH  27  30
ENDBRANCH   1  24
TORSDOF 11
ENDMDL