MODEL 3
REMARK VINA RESULT: -6.325234863      2.324      3.529
REMARK  11 active torsions:
REMARK  status: ('A' for Active; 'I' for Inactive)
REMARK    1  A    between atoms: O1_1  and  C1_3
REMARK    2  A    between atoms: C1_3  and  C2_4
REMARK    3  A    between atoms: C3_5  and  S1_6
REMARK    4  A    between atoms: S1_6  and  C4_7
REMARK    5  A    between atoms: C4_7  and  C5_8
REMARK    6  A    between atoms: C5_8  and  C6_9
REMARK    7  A    between atoms: C6_9  and  C7_10
REMARK    8  A    between atoms: C7_10  and  C8_11
REMARK    9  A    between atoms: C8_11  and  N1_12
REMARK   10  A    between atoms: N2_15  and  C11_16
REMARK   11  A    between atoms: C27_34  and  O2_35
ROOT
HETATM    1  C2  UNL     1     -27.679  -4.046 -32.993  1.00  0.00    -0.034 A
HETATM    2  C3  UNL     1     -28.612  -3.697 -33.821  1.00  0.00    -0.015 A
HETATM    3  C19 UNL     1     -29.305  -5.066 -33.736  1.00  0.00     0.061 A
HETATM    4  C20 UNL     1     -28.205  -5.451 -32.883  1.00  0.00     0.002 A
HETATM    5  C21 UNL     1     -27.244  -6.505 -33.351  1.00  0.00    -0.000 C
HETATM    6  C22 UNL     1     -27.813  -7.579 -34.180  1.00  0.00     0.010 C
HETATM    7  C23 UNL     1     -29.026  -8.271 -33.755  1.00  0.00     0.039 C
HETATM    8  C24 UNL     1     -29.616  -8.001 -32.456  1.00  0.00    -0.051 A
HETATM    9  C25 UNL     1     -30.573  -8.971 -32.196  1.00  0.00     0.010 A
HETATM   10  C26 UNL     1     -31.322  -9.005 -31.043  1.00  0.00     0.037 A
HETATM   11  C27 UNL     1     -31.136  -8.044 -30.079  1.00  0.00     0.066 A
HETATM   12  C28 UNL     1     -30.183  -7.067 -30.325  1.00  0.00     0.044 A
HETATM   13  C29 UNL     1     -29.447  -7.050 -31.480  1.00  0.00    -0.044 A
HETATM   14  C30 UNL     1     -28.514  -5.920 -31.488  1.00  0.00     0.033 C
HETATM   15  C31 UNL     1     -27.204  -6.441 -30.939  1.00  0.00     0.011 C
HETATM   16  C32 UNL     1     -26.501  -6.975 -32.141  1.00  0.00     0.006 C
ENDROOT
BRANCH   2  17
HETATM   17  S1  UNL     1     -29.182  -2.316 -34.787  1.00  0.00    -0.134 SA
BRANCH  17  18
HETATM   18  C4  UNL     1     -28.293  -1.981 -36.280  1.00  0.00     0.079 C
BRANCH  18  19
HETATM   19  C5  UNL     1     -26.902  -2.690 -36.249  1.00  0.00     0.010 C
BRANCH  19  20
HETATM   20  C6  UNL     1     -26.880  -3.690 -37.351  1.00  0.00     0.002 C
BRANCH  20  21
HETATM   21  C7  UNL     1     -27.196  -5.102 -36.936  1.00  0.00     0.020 C
BRANCH  21  22
HETATM   22  C8  UNL     1     -28.228  -5.692 -37.844  1.00  0.00     0.122 C
BRANCH  22  23
HETATM   23  N1  UNL     1     -27.868  -5.722 -39.209  1.00  0.00    -0.390 N
HETATM   24  C9  UNL     1     -26.802  -6.546 -39.619  1.00  0.00     0.141 C
HETATM   25  C10 UNL     1     -26.083  -5.909 -40.817  1.00  0.00     0.143 C
HETATM   26  N2  UNL     1     -27.074  -5.778 -41.884  1.00  0.00    -0.372 N
HETATM   27  C17 UNL     1     -28.467  -5.864 -41.512  1.00  0.00     0.167 C
HETATM   28  C18 UNL     1     -28.750  -5.201 -40.171  1.00  0.00     0.078 C
BRANCH  26  29
HETATM   29  C11 UNL     1     -26.679  -5.576 -43.239  1.00  0.00     0.074 A
HETATM   30  C12 UNL     1     -26.616  -4.301 -43.742  1.00  0.00     0.062 A
HETATM   31 CL1  UNL     1     -27.016  -2.943 -42.733  1.00  0.00    -0.082 Cl
HETATM   32  C13 UNL     1     -26.236  -4.043 -45.060  1.00  0.00     0.026 A
HETATM   33  C14 UNL     1     -25.907  -5.086 -45.900  1.00  0.00     0.003 A
HETATM   34  C15 UNL     1     -25.971  -6.360 -45.394  1.00  0.00     0.026 A
HETATM   35  C16 UNL     1     -26.347  -6.619 -44.090  1.00  0.00     0.062 A
HETATM   36 CL2  UNL     1     -26.426  -8.241 -43.457  1.00  0.00    -0.082 Cl
ENDBRANCH  26  29
ENDBRANCH  22  23
ENDBRANCH  21  22
ENDBRANCH  20  21
ENDBRANCH  19  20
ENDBRANCH  18  19
ENDBRANCH  17  18
ENDBRANCH   2  17
BRANCH   1  37
HETATM   37  C1  UNL     1     -26.475  -3.414 -32.346  1.00  0.00     0.200 C
BRANCH  37  38
HETATM   38  O1  UNL     1     -26.637  -2.103 -32.100  1.00  0.00    -0.397 OA
ATOM     39  H1  UNL     1     -27.066  -1.641 -32.811  1.00  0.00     0.209 HD
ENDBRANCH  37  38
ENDBRANCH   1  37
BRANCH  11  40
HETATM   40  O2  UNL     1     -31.881  -8.047 -28.892  1.00  0.00    -0.361 OA
ATOM     41  H2  UNL     1     -31.683  -7.448 -28.182  1.00  0.00     0.217 HD
ENDBRANCH  11  40
TORSDOF 11
ENDMDL