MODEL 2
REMARK VINA RESULT: -8.462451392      1.241      1.448
REMARK  12 active torsions:
REMARK  status: ('A' for Active; 'I' for Inactive)
REMARK    1  A    between atoms: C2_2  and  C3_4
REMARK    2  A    between atoms: C2_2  and  C16_24
REMARK    3  A    between atoms: C3_4  and  C4_5
REMARK    4  A    between atoms: C4_5  and  C5_6
REMARK    5  A    between atoms: C5_6  and  O2_8
REMARK    6  A    between atoms: O2_8  and  C6_9
REMARK    7  A    between atoms: C6_9  and  C7_10
REMARK    8  A    between atoms: C7_10  and  O3_11
REMARK    9  A    between atoms: O3_11  and  C8_12
REMARK   10  A    between atoms: C8_12  and  C9_14
REMARK   11  A    between atoms: C9_14  and  C10_15
REMARK   12  A    between atoms: C13_18  and  O5_19
ROOT
HETATM    1  C1  UNL     1     -30.749  -2.490 -36.062  1.00  0.00     0.033 C
HETATM    2  C2  UNL     1     -29.282  -2.142 -35.950  1.00  0.00     0.038 C
HETATM    3 CL1  UNL     1     -28.578  -3.071 -37.360  1.00  0.00    -0.119 Cl
ENDROOT
BRANCH   2   4
HETATM    4  C3  UNL     1     -29.128  -0.720 -36.347  1.00  0.00     0.035 C
BRANCH   4   5
HETATM    5  C4  UNL     1     -30.182   0.249 -35.968  1.00  0.00     0.113 C
BRANCH   5   6
HETATM    6  C5  UNL     1     -30.635   1.134 -37.100  1.00  0.00     0.258 C
HETATM    7  O1  UNL     1     -31.759   1.649 -37.176  1.00  0.00    -0.265 OA
BRANCH   6   8
HETATM    8  O2  UNL     1     -29.707   1.358 -38.093  1.00  0.00    -0.319 OA
BRANCH   8   9
HETATM    9  C6  UNL     1     -29.408   2.610 -38.633  1.00  0.00     0.205 C
BRANCH   9  10
HETATM   10  C7  UNL     1     -28.281   3.244 -37.862  1.00  0.00     0.205 C
BRANCH  10  11
HETATM   11  O3  UNL     1     -28.723   4.070 -36.829  1.00  0.00    -0.319 OA
BRANCH  11  12
HETATM   12  C8  UNL     1     -27.897   4.726 -35.936  1.00  0.00     0.263 C
HETATM   13  O4  UNL     1     -27.110   4.087 -35.200  1.00  0.00    -0.265 OA
BRANCH  12  14
HETATM   14  C9  UNL     1     -27.914   6.210 -35.819  1.00  0.00     0.149 C
BRANCH  14  15
HETATM   15  C10 UNL     1     -27.897   6.567 -34.385  1.00  0.00    -0.047 A
HETATM   16  C11 UNL     1     -26.712   6.957 -33.801  1.00  0.00     0.010 A
HETATM   17  C12 UNL     1     -26.628   7.303 -32.469  1.00  0.00     0.039 A
HETATM   18  C13 UNL     1     -27.760   7.264 -31.674  1.00  0.00     0.087 A
HETATM   19  C14 UNL     1     -28.949   6.873 -32.259  1.00  0.00     0.067 A
HETATM   20 CL2  UNL     1     -30.375   6.829 -31.240  1.00  0.00    -0.081 Cl
HETATM   21  C15 UNL     1     -29.022   6.528 -33.602  1.00  0.00     0.034 A
BRANCH  18  22
HETATM   22  O5  UNL     1     -27.685   7.606 -30.346  1.00  0.00    -0.359 OA
ATOM     23  H5  UNL     1     -28.321   8.202 -29.969  1.00  0.00     0.217 HD
ENDBRANCH  18  22
ENDBRANCH  14  15
ENDBRANCH  12  14
ENDBRANCH  11  12
ENDBRANCH  10  11
ENDBRANCH   9  10
ENDBRANCH   8   9
ENDBRANCH   6   8
ENDBRANCH   5   6
ENDBRANCH   4   5
ENDBRANCH   2   4
BRANCH   2  24
HETATM   24  C16 UNL     1     -28.582  -2.603 -34.783  1.00  0.00     0.017 C
HETATM   25  C17 UNL     1     -27.085  -2.845 -35.142  1.00  0.00     0.007 C
HETATM   26  C18 UNL     1     -26.526  -3.241 -33.822  1.00  0.00     0.006 C
HETATM   27  C19 UNL     1     -27.695  -3.888 -33.110  1.00  0.00    -0.002 C
HETATM   28  C20 UNL     1     -27.283  -5.177 -32.550  1.00  0.00    -0.005 C
HETATM   29  C32 UNL     1     -28.857  -3.910 -34.113  1.00  0.00    -0.035 C
HETATM   30  C21 UNL     1     -27.962  -5.624 -31.290  1.00  0.00     0.006 C
HETATM   31  C29 UNL     1     -27.201  -6.309 -33.547  1.00  0.00    -0.002 C
HETATM   32  C22 UNL     1     -27.049  -6.665 -30.670  1.00  0.00     0.006 C
HETATM   33  C23 UNL     1     -27.012  -7.874 -31.565  1.00  0.00    -0.006 C
HETATM   34  C24 UNL     1     -28.285  -8.674 -31.553  1.00  0.00     0.005 C
HETATM   35  C27 UNL     1     -26.693  -7.569 -32.993  1.00  0.00    -0.036 C
HETATM   36  C25 UNL     1     -28.363  -9.298 -32.952  1.00  0.00     0.001 C
HETATM   37  C26 UNL     1     -27.146  -8.819 -33.693  1.00  0.00     0.010 C
HETATM   38  C28 UNL     1     -25.161  -7.544 -33.104  1.00  0.00     0.016 C
HETATM   39  C30 UNL     1     -28.539  -6.401 -34.201  1.00  0.00     0.006 C
HETATM   40  C31 UNL     1     -28.891  -5.123 -34.952  1.00  0.00     0.010 C
HETATM   41  C33 UNL     1     -30.110  -3.852 -33.250  1.00  0.00     0.016 C
ENDBRANCH   2  24
TORSDOF 12
ENDMDL