MODEL 1
REMARK VINA RESULT: -8.137133220      0.000      0.000
REMARK  10 active torsions:
REMARK  status: ('A' for Active; 'I' for Inactive)
REMARK    1  A    between atoms: C8_8  and  C9_9
REMARK    2  A    between atoms: C10_12  and  C11_13
REMARK    3  A    between atoms: C11_13  and  C12_14
REMARK    4  A    between atoms: C12_14  and  C13_15
REMARK    5  A    between atoms: C13_15  and  N2_16
REMARK    6  A    between atoms: C17_22  and  O2_23
REMARK    7  A    between atoms: C23_31  and  C25_33
REMARK    8  A    between atoms: C25_33  and  C26_34
REMARK    9  A    between atoms: C26_34  and  C27_35
REMARK   10  A    between atoms: C28_36  and  O3_37
ROOT
HETATM    1  N2  UNL     1     -26.775   6.581 -34.335  1.00  0.00    -0.368 N
ATOM      2  H2  UNL     1     -26.277   6.536 -35.223  1.00  0.00     0.161 HD
HETATM    3  C14 UNL     1     -26.171   6.924 -33.276  1.00  0.00     0.348 C
HETATM    4  O1  UNL     1     -25.674   7.384 -32.226  1.00  0.00    -0.284 OA
ENDROOT
BRANCH   1   5
HETATM    5  C13 UNL     1     -28.185   6.253 -34.264  1.00  0.00     0.122 C
BRANCH   5   6
HETATM    6  C12 UNL     1     -28.641   5.621 -35.543  1.00  0.00     0.026 C
BRANCH   6   7
HETATM    7  C11 UNL     1     -27.895   4.373 -35.920  1.00  0.00     0.058 C
BRANCH   7   8
HETATM    8  C10 UNL     1     -28.600   3.552 -36.946  1.00  0.00     0.009 A
HETATM    9  N1  UNL     1     -28.902   2.249 -36.697  1.00  0.00    -0.357 N
HETATM   10  C9  UNL     1     -29.541   1.443 -37.545  1.00  0.00     0.066 A
ATOM     11  H1  UNL     1     -28.619   1.861 -35.797  1.00  0.00     0.166 HD
HETATM   12  C17 UNL     1     -29.904   2.035 -38.766  1.00  0.00     0.092 A
HETATM   13  C16 UNL     1     -29.622   3.340 -39.060  1.00  0.00     0.041 A
HETATM   14  C15 UNL     1     -28.950   4.138 -38.135  1.00  0.00     0.028 A
BRANCH  10  15
HETATM   15  C8  UNL     1     -29.862   0.056 -37.273  1.00  0.00     0.036 C
HETATM   16  C7  UNL     1     -30.816  -0.359 -36.484  1.00  0.00    -0.065 C
HETATM   17  C5  UNL     1     -31.098  -1.816 -36.253  1.00  0.00     0.006 C
HETATM   18  C18 UNL     1     -31.655   0.602 -35.738  1.00  0.00     0.036 C
HETATM   19  C4  UNL     1     -30.400  -2.775 -37.088  1.00  0.00     0.019 C
HETATM   20  C6  UNL     1     -32.585  -1.938 -36.679  1.00  0.00     0.025 C
HETATM   21  C21 UNL     1     -31.085  -1.995 -34.804  1.00  0.00    -0.032 C
HETATM   22  C3  UNL     1     -29.146  -3.383 -36.550  1.00  0.00     0.007 C
HETATM   23  C2  UNL     1     -29.308  -4.184 -35.321  1.00  0.00    -0.004 C
HETATM   24  C1  UNL     1     -30.524  -5.006 -35.187  1.00  0.00     0.011 C
HETATM   25  C23 UNL     1     -29.085  -3.293 -34.102  1.00  0.00     0.014 C
HETATM   26  C22 UNL     1     -30.342  -2.570 -33.879  1.00  0.00     0.106 C
HETATM   27  C24 UNL     1     -27.914  -2.359 -34.336  1.00  0.00     0.023 C
HETATM   28  F1  UNL     1     -30.842  -2.409 -32.627  1.00  0.00    -0.210 F
HETATM   29  C20 UNL     1     -32.235  -1.279 -34.125  1.00  0.00     0.038 C
HETATM   30  C19 UNL     1     -32.093   0.199 -34.377  1.00  0.00     0.009 C
BRANCH  25  31
HETATM   31  C25 UNL     1     -28.669  -4.240 -33.003  1.00  0.00     0.021 C
BRANCH  31  32
HETATM   32  C26 UNL     1     -27.224  -4.511 -32.846  1.00  0.00     0.045 C
BRANCH  32  33
HETATM   33  C27 UNL     1     -27.018  -6.006 -33.005  1.00  0.00     0.011 A
HETATM   34  C28 UNL     1     -27.184  -6.813 -31.986  1.00  0.00     0.185 A
HETATM   35  O4  UNL     1     -26.994  -8.160 -32.149  1.00  0.00    -0.326 OA
HETATM   36  C29 UNL     1     -26.664  -8.784 -33.361  1.00  0.00     0.217 A
HETATM   37  C30 UNL     1     -26.427  -7.861 -34.485  1.00  0.00    -0.023 A
HETATM   38  C31 UNL     1     -26.009  -8.346 -35.727  1.00  0.00     0.013 A
HETATM   39  C35 UNL     1     -26.625  -6.510 -34.307  1.00  0.00    -0.014 A
HETATM   40  C32 UNL     1     -25.785  -7.503 -36.791  1.00  0.00     0.043 A
HETATM   41  C33 UNL     1     -25.980  -6.151 -36.622  1.00  0.00     0.117 A
HETATM   42  F2  UNL     1     -25.778  -5.258 -37.631  1.00  0.00    -0.206 F
HETATM   43  C34 UNL     1     -26.393  -5.692 -35.389  1.00  0.00     0.055 A
BRANCH  34  44
HETATM   44  O3  UNL     1     -27.551  -6.238 -30.765  1.00  0.00    -0.341 OA
ATOM     45  H3  UNL     1     -28.394  -6.486 -30.403  1.00  0.00     0.220 HD
ENDBRANCH  34  44
ENDBRANCH  32  33
ENDBRANCH  31  32
ENDBRANCH  25  31
ENDBRANCH  10  15
BRANCH  12  46
HETATM   46  O2  UNL     1     -30.566   1.269 -39.693  1.00  0.00    -0.358 OA
ATOM     47  H2  UNL     1     -31.374   1.605 -40.064  1.00  0.00     0.217 HD
ENDBRANCH  12  46
ENDBRANCH   7   8
ENDBRANCH   6   7
ENDBRANCH   5   6
ENDBRANCH   1   5
TORSDOF 10
ENDMDL