MODEL 5
REMARK VINA RESULT: -7.935613209      2.733      3.384
REMARK  13 active torsions:
REMARK  status: ('A' for Active; 'I' for Inactive)
REMARK    1  A    between atoms: O1_1  and  C1_3
REMARK    2  A    between atoms: C1_3  and  S1_4
REMARK    3  A    between atoms: C1_3  and  N3_39
REMARK    4  A    between atoms: S1_4  and  C2_5
REMARK    5  A    between atoms: C2_5  and  C3_6
REMARK    6  A    between atoms: C5_8  and  N1_9
REMARK    7  A    between atoms: N1_9  and  C6_11
REMARK    8  A    between atoms: C6_11  and  C7_12
REMARK    9  A    between atoms: C7_12  and  C8_13
REMARK   10  A    between atoms: C8_13  and  N2_14
REMARK   11  A    between atoms: N2_14  and  C9_15
REMARK   12  A    between atoms: N2_14  and  C14_20
REMARK   13  A    between atoms: C28_36  and  O2_37
ROOT
HETATM    1  C7  UNL     1     -28.153   4.409 -36.660  1.00  0.00     0.064 C
ENDROOT
BRANCH   1   2
HETATM    2  C6  UNL     1     -28.100   5.870 -36.328  1.00  0.00     0.058 C
BRANCH   2   3
HETATM    3  N1  UNL     1     -27.187   6.292 -35.356  1.00  0.00    -0.394 N
ATOM      4  H1  UNL     1     -26.425   6.917 -35.614  1.00  0.00     0.159 HD
BRANCH   3   5
HETATM    5  C5  UNL     1     -27.316   5.856 -34.020  1.00  0.00     0.106 C
HETATM    6  C4  UNL     1     -28.652   6.100 -33.384  1.00  0.00     0.041 C
HETATM    7  C3  UNL     1     -28.252   6.201 -31.894  1.00  0.00     0.054 C
HETATM    8  C28 UNL     1     -27.012   6.929 -31.971  1.00  0.00     0.046 C
HETATM    9  C27 UNL     1     -26.440   6.757 -33.179  1.00  0.00     0.030 C
BRANCH   7  10
HETATM   10  C2  UNL     1     -29.397   6.758 -31.104  1.00  0.00     0.094 C
BRANCH  10  11
HETATM   11  S1  UNL     1     -30.788   7.314 -32.000  1.00  0.00    -0.086 SA
BRANCH  11  12
HETATM   12  C1  UNL     1     -31.636   8.769 -31.586  1.00  0.00     0.177 C
BRANCH  12  13
HETATM   13  O1  UNL     1     -31.846   9.584 -32.578  1.00  0.00    -0.341 OA
ATOM     14  H1  UNL     1     -31.079  10.059 -32.877  1.00  0.00     0.220 HD
ENDBRANCH  12  13
BRANCH  12  15
HETATM   15  N3  UNL     1     -32.132   9.230 -30.353  1.00  0.00    -0.356 N
HETATM   16  C29 UNL     1     -31.278  10.240 -29.713  1.00  0.00     0.125 C
HETATM   17  C30 UNL     1     -32.043  11.138 -28.801  1.00  0.00     0.020 C
HETATM   18  C31 UNL     1     -32.444  10.485 -27.520  1.00  0.00     0.002 C
HETATM   19  C32 UNL     1     -32.349   8.980 -27.588  1.00  0.00     0.002 C
HETATM   20  C33 UNL     1     -33.432   8.371 -28.409  1.00  0.00     0.020 C
HETATM   21  C34 UNL     1     -33.387   8.811 -29.821  1.00  0.00     0.125 C
ENDBRANCH  12  15
ENDBRANCH  11  12
ENDBRANCH  10  11
ENDBRANCH   7  10
BRANCH   8  22
HETATM   22  O2  UNL     1     -26.359   7.734 -31.023  1.00  0.00    -0.365 OA
ATOM     23  H2  UNL     1     -25.594   7.564 -30.486  1.00  0.00     0.217 HD
ENDBRANCH   8  22
ENDBRANCH   3   5
ENDBRANCH   2   3
ENDBRANCH   1   2
BRANCH   1  24
HETATM   24  C8  UNL     1     -29.619   3.999 -36.476  1.00  0.00     0.128 C
BRANCH  24  25
HETATM   25  N2  UNL     1     -30.167   3.346 -37.635  1.00  0.00    -0.379 N
BRANCH  25  26
HETATM   26  C9  UNL     1     -30.274   4.055 -38.854  1.00  0.00     0.003 C
HETATM   27  C10 UNL     1     -30.929   5.149 -39.168  1.00  0.00    -0.002 C
HETATM   28  C11 UNL     1     -30.729   5.505 -40.596  1.00  0.00     0.029 C
HETATM   29  C12 UNL     1     -30.359   4.170 -41.214  1.00  0.00     0.010 C
HETATM   30  C13 UNL     1     -29.548   3.560 -40.084  1.00  0.00     0.057 C
ENDBRANCH  25  26
BRANCH  25  31
HETATM   31  C14 UNL     1     -30.568   1.983 -37.514  1.00  0.00     0.085 C
HETATM   32  C15 UNL     1     -29.358   1.056 -37.311  1.00  0.00     0.030 C
HETATM   33  C16 UNL     1     -29.649   0.223 -36.115  1.00  0.00    -0.004 C
HETATM   34  C17 UNL     1     -29.239  -1.203 -36.205  1.00  0.00     0.010 C
HETATM   35  C25 UNL     1     -31.186   0.253 -36.104  1.00  0.00     0.025 C
HETATM   36  C18 UNL     1     -30.181  -2.161 -35.521  1.00  0.00     0.039 C
HETATM   37  C19 UNL     1     -31.016  -1.511 -34.464  1.00  0.00    -0.048 A
HETATM   38  C20 UNL     1     -31.256  -2.117 -33.253  1.00  0.00     0.053 A
HETATM   39  C24 UNL     1     -31.543  -0.266 -34.762  1.00  0.00    -0.044 A
HETATM   40  C21 UNL     1     -32.039  -1.452 -32.337  1.00  0.00     0.155 A
HETATM   41  F1  UNL     1     -32.283  -2.041 -31.138  1.00  0.00    -0.203 F
HETATM   42  C22 UNL     1     -32.577  -0.213 -32.605  1.00  0.00     0.155 A
HETATM   43  F2  UNL     1     -33.349   0.456 -31.718  1.00  0.00    -0.203 F
HETATM   44  C23 UNL     1     -32.315   0.369 -33.837  1.00  0.00     0.053 A
HETATM   45  C26 UNL     1     -31.410   1.740 -36.253  1.00  0.00     0.035 C
ENDBRANCH  25  31
ENDBRANCH  24  25
ENDBRANCH   1  24
TORSDOF 13
ENDMDL