MODEL 4
REMARK VINA RESULT: -6.547119171      3.382      8.611
REMARK  11 active torsions:
REMARK  status: ('A' for Active; 'I' for Inactive)
REMARK    1  A    between atoms: C2_2  and  O1_4
REMARK    2  A    between atoms: C2_2  and  C4_6
REMARK    3  A    between atoms: C4_6  and  C5_7
REMARK    4  A    between atoms: C5_7  and  C6_8
REMARK    5  A    between atoms: C6_8  and  O2_9
REMARK    6  A    between atoms: C15_20  and  O4_21
REMARK    7  A    between atoms: O4_21  and  C16_22
REMARK    8  A    between atoms: C16_22  and  C17_23
REMARK    9  A    between atoms: C17_23  and  C18_24
REMARK   10  A    between atoms: C18_24  and  O5_25
REMARK   11  A    between atoms: O5_25  and  C19_26
ROOT
HETATM    1  C5  UNL     1     -30.758   1.113 -37.787  1.00  0.00    -0.009 C
HETATM    2  C7  UNL     1     -29.970   1.186 -36.494  1.00  0.00     0.013 C
HETATM    3  C8  UNL     1     -29.114  -0.058 -36.474  1.00  0.00     0.007 C
HETATM    4  C9  UNL     1     -29.933  -1.079 -37.232  1.00  0.00    -0.001 C
HETATM    5  C10 UNL     1     -30.156  -2.222 -36.309  1.00  0.00     0.002 C
HETATM    6  C11 UNL     1     -30.405  -3.516 -36.978  1.00  0.00     0.084 C
HETATM    7  C12 UNL     1     -31.335  -4.421 -36.281  1.00  0.00     0.132 C
HETATM    8  O3  UNL     1     -31.483  -5.528 -36.806  1.00  0.00    -0.298 OA
HETATM    9  C13 UNL     1     -32.088  -4.155 -35.059  1.00  0.00     0.066 C
HETATM   10  C14 UNL     1     -32.339  -5.333 -34.202  1.00  0.00     0.044 C
HETATM   11  C15 UNL     1     -31.111  -5.839 -33.428  1.00  0.00     0.122 C
HETATM   12  C25 UNL     1     -30.456  -4.691 -32.695  1.00  0.00     0.033 C
HETATM   13  C26 UNL     1     -30.251  -3.465 -33.507  1.00  0.00     0.013 C
HETATM   14  C27 UNL     1     -31.439  -3.052 -34.308  1.00  0.00    -0.029 C
HETATM   15  C28 UNL     1     -32.499  -2.505 -33.339  1.00  0.00     0.016 C
HETATM   16  C29 UNL     1     -31.080  -1.868 -35.192  1.00  0.00    -0.001 C
HETATM   17  C30 UNL     1     -32.287  -1.069 -35.592  1.00  0.00     0.006 C
HETATM   18  C31 UNL     1     -32.357  -0.770 -37.059  1.00  0.00     0.011 C
HETATM   19  C32 UNL     1     -31.144  -0.352 -37.743  1.00  0.00    -0.030 C
HETATM   20  C33 UNL     1     -31.353  -0.743 -39.233  1.00  0.00     0.016 C
ENDROOT
BRANCH  11  21
HETATM   21  O4  UNL     1     -30.253  -6.375 -34.310  1.00  0.00    -0.386 OA
BRANCH  21  22
HETATM   22  C16 UNL     1     -30.109  -7.666 -34.458  1.00  0.00     0.170 C
BRANCH  22  23
HETATM   23  C17 UNL     1     -28.839  -8.363 -34.172  1.00  0.00     0.053 C
BRANCH  23  24
HETATM   24  C18 UNL     1     -27.897  -7.809 -33.187  1.00  0.00     0.178 C
BRANCH  24  25
HETATM   25  O5  UNL     1     -26.795  -7.255 -33.944  1.00  0.00    -0.351 OA
BRANCH  25  26
HETATM   26  C19 UNL     1     -26.771  -5.897 -34.235  1.00  0.00     0.071 A
HETATM   27  C20 UNL     1     -26.801  -5.417 -35.528  1.00  0.00     0.060 A
HETATM   28  C21 UNL     1     -26.774  -4.062 -35.766  1.00  0.00     0.038 A
HETATM   29 CL1  UNL     1     -26.815  -3.496 -37.429  1.00  0.00    -0.084 Cl
HETATM   30  C22 UNL     1     -26.718  -3.143 -34.740  1.00  0.00     0.048 A
HETATM   31  C23 UNL     1     -26.688  -3.615 -33.436  1.00  0.00     0.038 A
HETATM   32 CL2  UNL     1     -26.620  -2.447 -32.152  1.00  0.00    -0.084 Cl
HETATM   33  C24 UNL     1     -26.716  -4.988 -33.203  1.00  0.00     0.060 A
ENDBRANCH  25  26
ENDBRANCH  24  25
ENDBRANCH  23  24
ENDBRANCH  22  23
ENDBRANCH  21  22
ENDBRANCH  11  21
BRANCH   1  34
HETATM   34  C4  UNL     1     -29.911   1.388 -38.984  1.00  0.00     0.049 C
BRANCH  34  35
HETATM   35  C2  UNL     1     -29.073   2.550 -39.148  1.00  0.00     0.051 C
HETATM   36  C1  UNL     1     -28.748   2.509 -40.688  1.00  0.00     0.045 C
HETATM   37  C3  UNL     1     -29.610   3.920 -38.980  1.00  0.00     0.045 C
BRANCH  35  38
HETATM   38  O1  UNL     1     -27.767   2.430 -38.624  1.00  0.00    -0.391 OA
ATOM     39  H1  UNL     1     -27.953   1.930 -37.838  1.00  0.00     0.210 HD
ENDBRANCH  35  38
ENDBRANCH  34  35
ENDBRANCH   1  34
BRANCH   1  40
HETATM   40  C6  UNL     1     -31.904   2.075 -37.799  1.00  0.00     0.174 C
BRANCH  40  41
HETATM   41  O2  UNL     1     -32.085   2.796 -36.622  1.00  0.00    -0.400 OA
ATOM     42  H2  UNL     1     -32.989   2.920 -36.359  1.00  0.00     0.209 HD
ENDBRANCH  40  41
ENDBRANCH   1  40
TORSDOF 11
ENDMDL