MODEL 4
REMARK VINA RESULT: -7.295745366      5.539      8.187
REMARK  11 active torsions:
REMARK  status: ('A' for Active; 'I' for Inactive)
REMARK    1  A    between atoms: C2_2  and  C3_3
REMARK    2  A    between atoms: C2_2  and  C29_36
REMARK    3  A    between atoms: C3_3  and  C4_4
REMARK    4  A    between atoms: C4_4  and  C5_6
REMARK    5  A    between atoms: C10_11  and  C11_12
REMARK    6  A    between atoms: C11_12  and  C12_13
REMARK    7  A    between atoms: C12_13  and  C13_14
REMARK    8  A    between atoms: C15_18  and  C17_20
REMARK    9  A    between atoms: C17_20  and  O4_21
REMARK   10  A    between atoms: C19_24  and  O5_25
REMARK   11  A    between atoms: C20_27  and  C21_28
ROOT
HETATM    1  C12 UNL     1     -29.419  -2.740 -33.255  1.00  0.00     0.034 C
ENDROOT
BRANCH   1   2
HETATM    2  C11 UNL     1     -30.487  -1.805 -33.713  1.00  0.00     0.007 C
BRANCH   2   3
HETATM    3  C10 UNL     1     -31.910  -2.226 -33.549  1.00  0.00    -0.010 C
HETATM    4  C8  UNL     1     -32.707  -1.094 -32.875  1.00  0.00    -0.014 C
HETATM    5  C7  UNL     1     -32.463  -1.058 -31.404  1.00  0.00     0.005 C
HETATM    6  C9  UNL     1     -34.166  -1.374 -33.147  1.00  0.00     0.010 C
HETATM    7  C6  UNL     1     -33.103  -2.344 -30.861  1.00  0.00     0.012 C
HETATM    8  C5  UNL     1     -32.426  -3.536 -31.430  1.00  0.00     0.056 C
HETATM    9  C28 UNL     1     -32.142  -3.528 -32.888  1.00  0.00     0.017 C
BRANCH   8  10
HETATM   10  C4  UNL     1     -33.310  -4.716 -31.146  1.00  0.00     0.131 C
HETATM   11  O1  UNL     1     -34.488  -4.718 -31.455  1.00  0.00    -0.298 OA
BRANCH  10  12
HETATM   12  C3  UNL     1     -32.777  -5.936 -30.472  1.00  0.00     0.087 C
BRANCH  12  13
HETATM   13  C2  UNL     1     -31.409  -5.701 -29.897  1.00  0.00     0.021 C
HETATM   14  C1  UNL     1     -30.471  -6.860 -30.186  1.00  0.00     0.015 C
BRANCH  13  15
HETATM   15  C29 UNL     1     -31.533  -5.623 -28.407  1.00  0.00    -0.052 A
HETATM   16  C30 UNL     1     -31.692  -4.428 -27.768  1.00  0.00     0.011 A
HETATM   17  C31 UNL     1     -31.808  -4.325 -26.394  1.00  0.00     0.044 A
HETATM   18  C32 UNL     1     -31.765  -5.467 -25.625  1.00  0.00     0.138 A
HETATM   19  F1  UNL     1     -31.875  -5.409 -24.280  1.00  0.00    -0.204 F
HETATM   20  C33 UNL     1     -31.604  -6.676 -26.269  1.00  0.00     0.073 A
HETATM   21 CL1  UNL     1     -31.549  -8.130 -25.284  1.00  0.00    -0.081 Cl
HETATM   22  C34 UNL     1     -31.488  -6.775 -27.635  1.00  0.00     0.034 A
ENDBRANCH  13  15
ENDBRANCH  12  13
ENDBRANCH  10  12
ENDBRANCH   8  10
ENDBRANCH   2   3
ENDBRANCH   1   2
BRANCH   1  23
HETATM   23  C13 UNL     1     -28.335  -3.053 -34.234  1.00  0.00     0.140 C
HETATM   24  O2  UNL     1     -28.913  -3.326 -35.472  1.00  0.00    -0.315 OA
HETATM   25  C14 UNL     1     -28.219  -3.884 -36.472  1.00  0.00     0.270 C
HETATM   26  O3  UNL     1     -28.237  -3.460 -37.645  1.00  0.00    -0.264 OA
HETATM   27  C15 UNL     1     -27.405  -5.061 -36.136  1.00  0.00     0.072 C
HETATM   28  C16 UNL     1     -28.334  -6.213 -36.440  1.00  0.00     0.029 C
HETATM   29  C18 UNL     1     -26.792  -4.998 -34.803  1.00  0.00     0.045 C
HETATM   30  C19 UNL     1     -26.431  -6.334 -34.167  1.00  0.00     0.128 C
HETATM   31  C26 UNL     1     -27.300  -4.018 -33.789  1.00  0.00    -0.010 C
HETATM   32  C20 UNL     1     -27.536  -7.007 -33.442  1.00  0.00     0.018 C
HETATM   33  C24 UNL     1     -28.455  -6.001 -32.793  1.00  0.00     0.008 C
HETATM   34  C25 UNL     1     -27.644  -4.785 -32.528  1.00  0.00     0.012 C
HETATM   35  C27 UNL     1     -26.126  -3.145 -33.249  1.00  0.00     0.018 C
BRANCH  27  36
HETATM   36  C17 UNL     1     -26.348  -5.132 -37.268  1.00  0.00     0.184 C
BRANCH  36  37
HETATM   37  O4  UNL     1     -26.571  -6.248 -38.074  1.00  0.00    -0.400 OA
ATOM     38  H4  UNL     1     -26.033  -6.977 -37.788  1.00  0.00     0.209 HD
ENDBRANCH  36  37
ENDBRANCH  27  36
BRANCH  30  39
HETATM   39  O5  UNL     1     -25.914  -7.212 -35.108  1.00  0.00    -0.395 OA
ATOM     40  H5  UNL     1     -25.614  -8.014 -34.698  1.00  0.00     0.210 HD
ENDBRANCH  30  39
BRANCH  32  41
HETATM   41  C21 UNL     1     -27.057  -8.072 -32.512  1.00  0.00    -0.016 C
HETATM   42  C22 UNL     1     -27.988  -9.294 -32.522  1.00  0.00     0.010 C
HETATM   43  C23 UNL     1     -26.884  -7.686 -31.084  1.00  0.00     0.010 C
ENDBRANCH  32  41
ENDBRANCH   1  23
TORSDOF 11
ENDMDL