MODEL 2
REMARK VINA RESULT: -7.204476421      1.692      2.246
REMARK  14 active torsions:
REMARK  status: ('A' for Active; 'I' for Inactive)
REMARK    1  A    between atoms: C2_2  and  C3_3
REMARK    2  A    between atoms: C3_3  and  C4_4
REMARK    3  A    between atoms: C3_3  and  C18_22
REMARK    4  A    between atoms: C4_4  and  C5_5
REMARK    5  A    between atoms: C6_6  and  C7_7
REMARK    6  A    between atoms: C8_8  and  C9_9
REMARK    7  A    between atoms: C12_12  and  O1_13
REMARK    8  A    between atoms: C14_16  and  O2_17
REMARK    9  A    between atoms: C18_22  and  C20_24
REMARK   10  A    between atoms: C20_24  and  C21_25
REMARK   11  A    between atoms: C21_25  and  C22_26
REMARK   12  A    between atoms: C22_26  and  C23_27
REMARK   13  A    between atoms: C26_30  and  O3_32
REMARK   14  A    between atoms: O3_32  and  C28_33
ROOT
HETATM    1  C18 UNL     1     -30.035   0.306 -36.364  1.00  0.00     0.022 C
HETATM    2  C19 UNL     1     -30.336  -0.465 -37.631  1.00  0.00     0.015 C
ENDROOT
BRANCH   1   3
HETATM    3  C3  UNL     1     -30.108   1.763 -36.690  1.00  0.00    -0.010 C
BRANCH   3   4
HETATM    4  C2  UNL     1     -31.439   2.351 -36.609  1.00  0.00     0.006 C
HETATM    5  C1  UNL     1     -31.893   3.462 -37.100  1.00  0.00     0.012 C
ENDBRANCH   3   4
BRANCH   3   6
HETATM    6  C4  UNL     1     -29.113   2.465 -37.074  1.00  0.00    -0.121 C
BRANCH   6   7
HETATM    7  C5  UNL     1     -28.042   3.225 -37.491  1.00  0.00     0.056 C
HETATM    8  C6  UNL     1     -27.890   4.522 -37.268  1.00  0.00     0.008 C
BRANCH   8   9
HETATM    9  C7  UNL     1     -28.761   5.419 -36.570  1.00  0.00     0.001 C
HETATM   10  C8  UNL     1     -28.920   5.274 -35.230  1.00  0.00     0.000 C
BRANCH  10  11
HETATM   11  C9  UNL     1     -29.771   6.132 -34.469  1.00  0.00     0.004 C
HETATM   12  C10 UNL     1     -29.499   6.824 -33.394  1.00  0.00    -0.067 C
HETATM   13  C11 UNL     1     -30.551   7.673 -32.746  1.00  0.00     0.067 C
HETATM   14  C15 UNL     1     -28.169   6.794 -32.776  1.00  0.00     0.002 C
HETATM   15  C12 UNL     1     -30.693   7.371 -31.269  1.00  0.00     0.124 C
HETATM   16  C13 UNL     1     -29.330   7.156 -30.639  1.00  0.00     0.065 C
HETATM   17  C14 UNL     1     -28.222   7.647 -31.502  1.00  0.00     0.132 C
HETATM   18  C16 UNL     1     -27.847   5.379 -32.354  1.00  0.00     0.022 C
HETATM   19  C17 UNL     1     -27.064   7.302 -33.683  1.00  0.00     0.022 C
BRANCH  15  20
HETATM   20  O1  UNL     1     -31.417   6.184 -31.160  1.00  0.00    -0.395 OA
ATOM     21  H1  UNL     1     -32.082   6.199 -31.839  1.00  0.00     0.210 HD
ENDBRANCH  15  20
BRANCH  17  22
HETATM   22  O2  UNL     1     -27.027   7.432 -30.804  1.00  0.00    -0.394 OA
ATOM     23  H2  UNL     1     -26.450   6.943 -31.380  1.00  0.00     0.210 HD
ENDBRANCH  17  22
ENDBRANCH  10  11
ENDBRANCH   8   9
ENDBRANCH   6   7
ENDBRANCH   3   6
ENDBRANCH   1   3
BRANCH   1  24
HETATM   24  C20 UNL     1     -30.772  -0.136 -35.164  1.00  0.00     0.009 C
BRANCH  24  25
HETATM   25  C21 UNL     1     -30.853  -1.669 -35.092  1.00  0.00     0.002 C
BRANCH  25  26
HETATM   26  C22 UNL     1     -29.680  -2.149 -34.310  1.00  0.00     0.017 C
BRANCH  26  27
HETATM   27  C23 UNL     1     -29.146  -3.474 -34.793  1.00  0.00     0.025 C
HETATM   28  C24 UNL     1     -30.246  -4.500 -34.473  1.00  0.00     0.024 C
HETATM   29  C25 UNL     1     -28.842  -3.544 -36.236  1.00  0.00     0.060 C
HETATM   30  C26 UNL     1     -27.733  -4.449 -36.664  1.00  0.00     0.096 C
HETATM   31  C27 UNL     1     -26.569  -3.654 -37.268  1.00  0.00     0.052 C
HETATM   32  C30 UNL     1     -27.149  -5.328 -35.639  1.00  0.00    -0.006 A
HETATM   33  C31 UNL     1     -26.450  -6.481 -35.977  1.00  0.00     0.014 A
HETATM   34  C35 UNL     1     -27.246  -5.027 -34.312  1.00  0.00     0.061 A
HETATM   35  C32 UNL     1     -25.893  -7.259 -34.992  1.00  0.00     0.046 A
HETATM   36  C33 UNL     1     -25.994  -6.947 -33.646  1.00  0.00     0.155 A
HETATM   37  F1  UNL     1     -25.443  -7.718 -32.659  1.00  0.00    -0.203 F
HETATM   38  C34 UNL     1     -26.683  -5.810 -33.294  1.00  0.00     0.169 A
HETATM   39  F2  UNL     1     -26.825  -5.430 -31.985  1.00  0.00    -0.202 F
HETATM   40  C36 UNL     1     -27.992  -3.834 -33.926  1.00  0.00     0.171 C
HETATM   41  O5  UNL     1     -27.664  -3.165 -32.917  1.00  0.00    -0.291 OA
BRANCH  30  42
HETATM   42  O3  UNL     1     -28.187  -5.314 -37.722  1.00  0.00    -0.306 OA
BRANCH  42  43
HETATM   43  C28 UNL     1     -29.485  -5.154 -38.217  1.00  0.00     0.255 C
HETATM   44  C29 UNL     1     -29.725  -4.066 -39.184  1.00  0.00     0.126 C
HETATM   45  O4  UNL     1     -30.357  -5.960 -37.792  1.00  0.00    -0.266 OA
ENDBRANCH  42  43
ENDBRANCH  30  42
ENDBRANCH  26  27
ENDBRANCH  25  26
ENDBRANCH  24  25
ENDBRANCH   1  24
TORSDOF 14
ENDMDL