MODEL 1
REMARK VINA RESULT: -6.264239893      0.000      0.000
REMARK  8 active torsions:
REMARK  status: ('A' for Active; 'I' for Inactive)
REMARK    1  A    between atoms: N1_2  and  C2_5
REMARK    2  A    between atoms: C2_5  and  C3_6
REMARK    3  A    between atoms: C3_6  and  N2_7
REMARK    4  A    between atoms: N2_7  and  C4_10
REMARK    5  A    between atoms: C4_10  and  C5_11
REMARK    6  A    between atoms: C5_11  and  N3_12
REMARK    7  A    between atoms: N3_12  and  C6_14
REMARK    8  A    between atoms: C6_14  and  C7_15
ROOT
HETATM    1  N3  UNL     1       6.065  -1.996  -0.431  1.00  0.00    -0.419 N
ATOM      2  H3  UNL     1       6.823  -1.627   0.142  1.00  0.00     0.153 HD
ENDROOT
BRANCH   1   3
HETATM    3  C5  UNL     1       5.632  -3.354  -0.345  1.00  0.00     0.141 C
BRANCH   3   4
HETATM    4  C4  UNL     1       6.502  -4.315  -1.105  1.00  0.00     0.251 C
BRANCH   4   5
HETATM    5  N2  UNL     1       6.425  -5.670  -0.610  1.00  0.00    -0.072 N
ATOM      6  H22 UNL     1       7.340  -6.120  -0.575  1.00  0.00     0.277 HD
ATOM      7  H21 UNL     1       5.978  -6.299  -1.276  1.00  0.00     0.277 HD
BRANCH   5   8
HETATM    8  C3  UNL     1       5.765  -5.678   0.674  1.00  0.00     0.259 C
BRANCH   8   9
HETATM    9  C2  UNL     1       5.393  -7.082   1.112  1.00  0.00     0.259 C
BRANCH   9  10
HETATM   10  N1  UNL     1       6.497  -7.998   1.076  1.00  0.00    -0.077 N
HETATM   11  C1  UNL     1       5.970  -9.313   1.441  1.00  0.00     0.267 C
ATOM     12  H12 UNL     1       7.281  -7.703   1.657  1.00  0.00     0.276 HD
ATOM     13  H11 UNL     1       6.990  -7.996   0.183  1.00  0.00     0.276 HD
ENDBRANCH   9  10
ENDBRANCH   8   9
ENDBRANCH   5   8
ENDBRANCH   4   5
ENDBRANCH   3   4
ENDBRANCH   1   3
BRANCH   1  14
HETATM   14  C6  UNL     1       5.359  -1.193  -1.377  1.00  0.00     0.118 C
BRANCH  14  15
HETATM   15  C7  UNL     1       5.296   0.227  -0.888  1.00  0.00     0.003 C
HETATM   16  C8  UNL     1       4.751   1.196  -1.894  1.00  0.00     0.006 C
HETATM   17  C9  UNL     1       3.770   0.655  -2.862  1.00  0.00     0.000 C
HETATM   18  C10 UNL     1       2.669   1.637  -3.209  1.00  0.00     0.000 C
HETATM   19  C11 UNL     1       1.980   2.193  -1.998  1.00  0.00     0.000 C
HETATM   20  C12 UNL     1       1.492   1.144  -1.051  1.00  0.00     0.000 C
HETATM   21  C13 UNL     1       2.220   1.147   0.277  1.00  0.00     0.004 C
HETATM   22  C14 UNL     1       3.149  -0.044   0.426  1.00  0.00    -0.018 C
HETATM   23  C15 UNL     1       2.834  -0.673   1.789  1.00  0.00     0.010 C
HETATM   24  C16 UNL     1       4.592   0.335   0.451  1.00  0.00     0.010 C
ENDBRANCH  14  15
ENDBRANCH   1  14
TORSDOF 8
ENDMDL