MODEL 1
REMARK VINA RESULT: -7.073891342      0.000      0.000
REMARK  12 active torsions:
REMARK  status: ('A' for Active; 'I' for Inactive)
REMARK    1  A    between atoms: C3_3  and  C4_4
REMARK    2  A    between atoms: C4_4  and  C5_5
REMARK    3  A    between atoms: C5_5  and  C6_6
REMARK    4  A    between atoms: C6_6  and  C7_7
REMARK    5  A    between atoms: C7_7  and  C8_8
REMARK    6  A    between atoms: C8_8  and  C9_9
REMARK    7  A    between atoms: C9_9  and  C10_10
REMARK    8  A    between atoms: C10_10  and  C11_11
REMARK    9  A    between atoms: C11_11  and  O1_12
REMARK   10  A    between atoms: C11_11  and  C12_14
REMARK   11  A    between atoms: C12_14  and  C13_15
REMARK   12  A    between atoms: C15_18  and  O3_19
ROOT
HETATM    1  C10 UNL     1       5.112  -4.982  -0.223  1.00  0.00     0.043 C
ENDROOT
BRANCH   1   2
HETATM    2  C9  UNL     1       6.430  -4.591  -0.950  1.00  0.00     0.087 C
BRANCH   2   3
HETATM    3  C8  UNL     1       6.472  -3.419  -1.383  1.00  0.00    -0.156 C
BRANCH   3   4
HETATM    4  C7  UNL     1       6.520  -2.078  -1.878  1.00  0.00     0.050 C
BRANCH   4   5
HETATM    5  C6  UNL     1       5.706  -0.987  -1.410  1.00  0.00     0.004 C
BRANCH   5   6
HETATM    6  C5  UNL     1       5.300  -0.799  -0.177  1.00  0.00    -0.022 C
BRANCH   6   7
HETATM    7  C4  UNL     1       4.076  -1.416   0.426  1.00  0.00     0.054 C
BRANCH   7   8
HETATM    8  C3  UNL     1       3.558  -0.406   1.387  1.00  0.00    -0.027 C
HETATM    9  C2  UNL     1       2.547   0.380   1.162  1.00  0.00    -0.035 C
HETATM   10  C1  UNL     1       1.764   0.376  -0.103  1.00  0.00     0.036 C
ENDBRANCH   7   8
ENDBRANCH   6   7
ENDBRANCH   5   6
ENDBRANCH   4   5
ENDBRANCH   3   4
ENDBRANCH   2   3
ENDBRANCH   1   2
BRANCH   1  11
HETATM   11  C11 UNL     1       5.535  -5.928   0.868  1.00  0.00     0.121 C
BRANCH  11  12
HETATM   12  O1  UNL     1       6.082  -5.264   1.932  1.00  0.00    -0.395 OA
ATOM     13  H1  UNL     1       5.614  -5.445   2.739  1.00  0.00     0.210 HD
ENDBRANCH  11  12
BRANCH  11  14
HETATM   14  C12 UNL     1       6.387  -7.070   0.425  1.00  0.00     0.066 C
BRANCH  14  15
HETATM   15  C13 UNL     1       6.306  -8.185   1.408  1.00  0.00     0.154 C
HETATM   16  O2  UNL     1       6.165  -9.463   0.818  1.00  0.00    -0.381 OA
HETATM   17  C14 UNL     1       5.640  -9.869   2.062  1.00  0.00     0.202 C
HETATM   18  C15 UNL     1       5.031  -8.458   2.111  1.00  0.00     0.171 C
BRANCH  18  19
HETATM   19  O3  UNL     1       3.864  -8.459   1.361  1.00  0.00    -0.391 OA
ATOM     20  H3  UNL     1       3.078  -8.813   1.763  1.00  0.00     0.210 HD
ENDBRANCH  18  19
ENDBRANCH  14  15
ENDBRANCH  11  14
ENDBRANCH   1  11
TORSDOF 12
ENDMDL