MODEL 5
REMARK VINA RESULT: -5.809297205      1.409      1.535
REMARK  10 active torsions:
REMARK  status: ('A' for Active; 'I' for Inactive)
REMARK    1  A    between atoms: N1_2  and  C2_5
REMARK    2  A    between atoms: C2_5  and  C3_6
REMARK    3  A    between atoms: C3_6  and  C4_7
REMARK    4  A    between atoms: C4_7  and  C5_8
REMARK    5  A    between atoms: C4_7  and  C11_18
REMARK    6  A    between atoms: C5_8  and  O1_9
REMARK    7  A    between atoms: C5_8  and  C6_11
REMARK    8  A    between atoms: C6_11  and  C7_12
REMARK    9  A    between atoms: C7_12  and  O2_13
REMARK   10  A    between atoms: C7_12  and  C8_15
ROOT
HETATM    1  C4  UNL     1       5.667  -0.869  -0.970  1.00  0.00     0.020 C
ENDROOT
BRANCH   1   2
HETATM    2  C3  UNL     1       6.286  -0.654  -2.302  1.00  0.00     0.035 C
BRANCH   2   3
HETATM    3  C2  UNL     1       5.597   0.190  -3.306  1.00  0.00     0.232 C
BRANCH   3   4
HETATM    4  N1  UNL     1       6.185   0.096  -4.633  1.00  0.00    -0.079 N
HETATM    5  C1  UNL     1       5.206   0.508  -5.598  1.00  0.00     0.266 C
ATOM      6  H12 UNL     1       6.562  -0.831  -4.829  1.00  0.00     0.276 HD
ATOM      7  H11 UNL     1       7.057   0.620  -4.712  1.00  0.00     0.276 HD
ENDBRANCH   3   4
ENDBRANCH   2   3
ENDBRANCH   1   2
BRANCH   1   8
HETATM    8  C5  UNL     1       5.902   0.174   0.052  1.00  0.00     0.125 C
BRANCH   8   9
HETATM    9  O1  UNL     1       7.173   0.756  -0.104  1.00  0.00    -0.395 OA
ATOM     10  H1  UNL     1       7.163   1.413  -0.791  1.00  0.00     0.210 HD
ENDBRANCH   8   9
BRANCH   8  11
HETATM   11  C6  UNL     1       4.852   1.186   0.311  1.00  0.00     0.064 C
BRANCH  11  12
HETATM   12  C7  UNL     1       4.000   0.644   1.485  1.00  0.00     0.124 C
BRANCH  12  13
HETATM   13  O2  UNL     1       4.131   1.408   2.615  1.00  0.00    -0.395 OA
ATOM     14  H2  UNL     1       3.663   1.038   3.355  1.00  0.00     0.210 HD
ENDBRANCH  12  13
BRANCH  12  15
HETATM   15  C8  UNL     1       2.552   0.568   1.092  1.00  0.00     0.014 A
HETATM   16  C9  UNL     1       2.138  -0.723   0.441  1.00  0.00     0.007 A
HETATM   17  C10 UNL     1       2.171   0.542  -0.344  1.00  0.00     0.007 A
ENDBRANCH  12  15
ENDBRANCH  11  12
ENDBRANCH   8  11
ENDBRANCH   1   8
BRANCH   1  18
HETATM   18  C11 UNL     1       6.122  -2.253  -0.450  1.00  0.00    -0.008 C
HETATM   19  C12 UNL     1       5.011  -3.100   0.004  1.00  0.00     0.005 C
HETATM   20  C13 UNL     1       5.698  -4.377   0.572  1.00  0.00     0.000 C
HETATM   21  C14 UNL     1       6.123  -5.167  -0.616  1.00  0.00     0.000 C
HETATM   22  C15 UNL     1       6.853  -4.390  -1.653  1.00  0.00     0.000 C
HETATM   23  C16 UNL     1       6.923  -2.942  -1.521  1.00  0.00     0.005 C
ENDBRANCH   1  18
TORSDOF 10
ENDMDL