MODEL 4
REMARK VINA RESULT: -6.051702686      1.057      1.644
REMARK  10 active torsions:
REMARK  status: ('A' for Active; 'I' for Inactive)
REMARK    1  A    between atoms: O1_1  and  C1_3
REMARK    2  A    between atoms: C1_3  and  C2_4
REMARK    3  A    between atoms: C1_3  and  C9_16
REMARK    4  A    between atoms: C2_4  and  N1_5
REMARK    5  A    between atoms: N1_5  and  C3_8
REMARK    6  A    between atoms: C3_8  and  C4_9
REMARK    7  A    between atoms: C4_9  and  O2_10
REMARK    8  A    between atoms: C4_9  and  C5_12
REMARK    9  A    between atoms: C5_12  and  C6_13
REMARK   10  A    between atoms: C9_16  and  C10_17
ROOT
HETATM    1  C2  UNL     1       5.463   1.224  -2.750  1.00  0.00     0.264 C
ENDROOT
BRANCH   1   2
HETATM    2  C1  UNL     1       6.035   0.410  -1.575  1.00  0.00     0.144 C
BRANCH   2   3
HETATM    3  O1  UNL     1       5.932   1.153  -0.423  1.00  0.00    -0.394 OA
ATOM      4  H1  UNL     1       5.391   0.682   0.200  1.00  0.00     0.210 HD
ENDBRANCH   2   3
BRANCH   2   5
HETATM    5  C9  UNL     1       5.291  -0.907  -1.513  1.00  0.00     0.038 C
BRANCH   5   6
HETATM    6  C10 UNL     1       5.892  -1.862  -0.533  1.00  0.00    -0.012 C
HETATM    7  C11 UNL     1       4.940  -2.911  -0.065  1.00  0.00     0.005 C
HETATM    8  C12 UNL     1       5.568  -4.247   0.189  1.00  0.00     0.000 C
HETATM    9  C13 UNL     1       6.454  -4.739  -0.910  1.00  0.00     0.000 C
HETATM   10  C14 UNL     1       6.802  -3.679  -1.922  1.00  0.00     0.000 C
HETATM   11  C15 UNL     1       7.148  -2.427  -1.150  1.00  0.00     0.005 C
ENDBRANCH   5   6
ENDBRANCH   2   5
ENDBRANCH   1   2
BRANCH   1  12
HETATM   12  N1  UNL     1       4.159   0.752  -3.062  1.00  0.00    -0.070 N
ATOM     13  H12 UNL     1       4.128   0.381  -4.012  1.00  0.00     0.277 HD
ATOM     14  H11 UNL     1       3.951  -0.099  -2.540  1.00  0.00     0.277 HD
BRANCH  12  15
HETATM   15  C3  UNL     1       3.132   1.724  -2.867  1.00  0.00     0.264 C
BRANCH  15  16
HETATM   16  C4  UNL     1       2.155   1.167  -1.833  1.00  0.00     0.144 C
BRANCH  16  17
HETATM   17  O2  UNL     1       0.846   1.520  -2.236  1.00  0.00    -0.394 OA
ATOM     18  H2  UNL     1       0.240   1.192  -1.583  1.00  0.00     0.210 HD
ENDBRANCH  16  17
BRANCH  16  19
HETATM   19  C5  UNL     1       2.421   1.829  -0.474  1.00  0.00     0.038 C
BRANCH  19  20
HETATM   20  C6  UNL     1       1.958   0.880   0.614  1.00  0.00    -0.012 A
HETATM   21  C7  UNL     1       3.045   0.161   1.376  1.00  0.00     0.005 A
HETATM   22  C8  UNL     1       2.115  -0.583   0.444  1.00  0.00     0.005 A
ENDBRANCH  19  20
ENDBRANCH  16  19
ENDBRANCH  15  16
ENDBRANCH  12  15
ENDBRANCH   1  12
TORSDOF 10
ENDMDL