MODEL 3
REMARK VINA RESULT: -6.368139519      1.195      1.716
REMARK  10 active torsions:
REMARK  status: ('A' for Active; 'I' for Inactive)
REMARK    1  A    between atoms: C3_3  and  C4_4
REMARK    2  A    between atoms: C4_4  and  C5_5
REMARK    3  A    between atoms: C6_6  and  C7_7
REMARK    4  A    between atoms: C8_8  and  C9_9
REMARK    5  A    between atoms: C10_10  and  C11_11
REMARK    6  A    between atoms: C11_11  and  C13_13
REMARK    7  A    between atoms: C13_13  and  O1_14
REMARK    8  A    between atoms: C13_13  and  C14_16
REMARK    9  A    between atoms: C16_18  and  C17_19
REMARK   10  A    between atoms: C17_19  and  O2_20
ROOT
HETATM    1  C7  UNL     1       7.846  -1.185  -0.058  1.00  0.00     0.022 A
HETATM    2  C8  UNL     1       7.000  -0.351   0.838  1.00  0.00     0.022 A
HETATM    3  C16 UNL     1       8.301   0.200   0.249  1.00  0.00     0.026 A
ENDROOT
BRANCH   2   4
HETATM    4  C9  UNL     1       5.738   0.261   0.406  1.00  0.00    -0.024 C
HETATM    5  C10 UNL     1       4.605  -0.424   0.464  1.00  0.00    -0.023 C
BRANCH   5   6
HETATM    6  C11 UNL     1       3.282   0.111   0.050  1.00  0.00     0.032 C
HETATM    7  C12 UNL     1       3.438   1.286  -0.848  1.00  0.00     0.017 C
BRANCH   6   8
HETATM    8  C13 UNL     1       2.336   0.273   1.188  1.00  0.00     0.125 C
BRANCH   8   9
HETATM    9  O1  UNL     1       2.701  -0.716   2.143  1.00  0.00    -0.395 OA
ATOM     10  H1  UNL     1       3.631  -0.598   2.298  1.00  0.00     0.210 HD
ENDBRANCH   8   9
BRANCH   8  11
HETATM   11  C14 UNL     1       2.312   1.609   1.846  1.00  0.00     0.028 C
HETATM   12  C15 UNL     1       3.362   1.852   2.879  1.00  0.00     0.007 C
ENDBRANCH   8  11
ENDBRANCH   6   8
ENDBRANCH   5   6
ENDBRANCH   2   4
BRANCH   1  13
HETATM   13  C6  UNL     1       7.417  -1.427  -1.459  1.00  0.00    -0.025 C
HETATM   14  C5  UNL     1       6.640  -2.442  -1.805  1.00  0.00    -0.027 C
BRANCH  14  15
HETATM   15  C4  UNL     1       6.101  -3.450  -0.896  1.00  0.00     0.053 C
BRANCH  15  16
HETATM   16  C3  UNL     1       6.453  -4.846  -1.078  1.00  0.00    -0.027 C
HETATM   17  C2  UNL     1       6.272  -5.866  -0.304  1.00  0.00    -0.035 C
HETATM   18  C1  UNL     1       5.637  -5.881   1.011  1.00  0.00     0.036 C
ENDBRANCH  15  16
ENDBRANCH  14  15
ENDBRANCH   1  13
BRANCH   3  19
HETATM   19  C17 UNL     1       9.470   0.417   1.177  1.00  0.00     0.170 C
BRANCH  19  20
HETATM   20  O2  UNL     1      10.518  -0.408   0.790  1.00  0.00    -0.400 OA
ATOM     21  H2  UNL     1      11.327   0.091   0.799  1.00  0.00     0.209 HD
ENDBRANCH  19  20
ENDBRANCH   3  19
TORSDOF 10
ENDMDL