MODEL 2
REMARK VINA RESULT: -5.634540760      2.971      5.819
REMARK  10 active torsions:
REMARK  status: ('A' for Active; 'I' for Inactive)
REMARK    1  A    between atoms: C2_2  and  C3_3
REMARK    2  A    between atoms: C3_3  and  C5_5
REMARK    3  A    between atoms: C5_5  and  N1_6
REMARK    4  A    between atoms: C5_5  and  C12_16
REMARK    5  A    between atoms: N1_6  and  C6_8
REMARK    6  A    between atoms: C6_8  and  C7_9
REMARK    7  A    between atoms: C6_8  and  C8_12
REMARK    8  A    between atoms: C7_9  and  O1_10
REMARK    9  A    between atoms: C8_12  and  C9_13
REMARK   10  A    between atoms: C14_18  and  O2_19
ROOT
HETATM    1  C5  UNL     1       4.686   0.603  -1.391  1.00  0.00     0.084 C
ENDROOT
BRANCH   1   2
HETATM    2  C3  UNL     1       4.278   0.562   0.069  1.00  0.00     0.004 C
HETATM    3  C4  UNL     1       5.466   0.749   0.992  1.00  0.00     0.012 C
BRANCH   2   4
HETATM    4  C2  UNL     1       3.498  -0.674   0.450  1.00  0.00     0.002 C
HETATM    5  C1  UNL     1       2.751  -0.390   1.708  1.00  0.00     0.005 C
ENDBRANCH   2   4
ENDBRANCH   1   2
BRANCH   1   6
HETATM    6  N1  UNL     1       5.044  -0.742  -1.761  1.00  0.00    -0.410 N
ATOM      7  H1  UNL     1       4.368  -1.505  -1.753  1.00  0.00     0.154 HD
BRANCH   6   8
HETATM    8  C6  UNL     1       6.430  -0.941  -2.145  1.00  0.00     0.100 C
BRANCH   8   9
HETATM    9  C7  UNL     1       7.262   0.291  -2.151  1.00  0.00     0.188 C
BRANCH   9  10
HETATM   10  O1  UNL     1       8.470   0.198  -2.793  1.00  0.00    -0.399 OA
ATOM     11  H1  UNL     1       8.785   0.994  -3.205  1.00  0.00     0.209 HD
ENDBRANCH   9  10
ENDBRANCH   8   9
BRANCH   8  12
HETATM   12  C8  UNL     1       6.896  -2.068  -1.282  1.00  0.00     0.031 C
BRANCH  12  13
HETATM   13  C9  UNL     1       6.088  -3.294  -1.167  1.00  0.00    -0.021 C
HETATM   14  C10 UNL     1       5.873  -3.464   0.382  1.00  0.00     0.009 C
HETATM   15  C11 UNL     1       6.840  -4.582  -1.509  1.00  0.00     0.009 C
ENDBRANCH  12  13
ENDBRANCH   8  12
ENDBRANCH   6   8
ENDBRANCH   1   6
BRANCH   1  16
HETATM   16  C12 UNL     1       3.415   0.913  -2.147  1.00  0.00     0.013 C
HETATM   17  C13 UNL     1       3.556   0.940  -3.659  1.00  0.00     0.038 C
HETATM   18  C14 UNL     1       2.384   1.914  -3.623  1.00  0.00     0.119 C
HETATM   19  C15 UNL     1       3.012   2.353  -2.283  1.00  0.00     0.038 C
BRANCH  18  20
HETATM   20  O2  UNL     1       1.219   1.196  -3.401  1.00  0.00    -0.396 OA
ATOM     21  H2  UNL     1       0.476   1.756  -3.593  1.00  0.00     0.210 HD
ENDBRANCH  18  20
ENDBRANCH   1  16
TORSDOF 10
ENDMDL