MODEL 1
REMARK VINA RESULT: -5.878184670      0.000      0.000
REMARK  10 active torsions:
REMARK  status: ('A' for Active; 'I' for Inactive)
REMARK    1  A    between atoms: C2_2  and  C4_4
REMARK    2  A    between atoms: C4_4  and  N1_5
REMARK    3  A    between atoms: C4_4  and  C13_21
REMARK    4  A    between atoms: N1_5  and  C5_7
REMARK    5  A    between atoms: C5_7  and  C6_8
REMARK    6  A    between atoms: C6_8  and  N2_9
REMARK    7  A    between atoms: N2_9  and  C7_11
REMARK    8  A    between atoms: C7_11  and  C8_12
REMARK    9  A    between atoms: C8_12  and  C9_17
REMARK   10  A    between atoms: N3_13  and  O1_15
ROOT
HETATM    1  N2  UNL     1       2.366   0.230   0.093  1.00  0.00    -0.396 N
ATOM      2  H2  UNL     1       2.598   0.042  -0.882  1.00  0.00     0.159 HD
ENDROOT
BRANCH   1   3
HETATM    3  C6  UNL     1       2.839  -0.661   1.065  1.00  0.00     0.138 C
BRANCH   3   4
HETATM    4  C5  UNL     1       4.333  -1.017   0.745  1.00  0.00     0.133 C
BRANCH   4   5
HETATM    5  N1  UNL     1       4.438  -2.040  -0.203  1.00  0.00    -0.415 N
ATOM      6  H1  UNL     1       3.658  -2.246  -0.827  1.00  0.00     0.153 HD
BRANCH   5   7
HETATM    7  C4  UNL     1       5.620  -2.775  -0.285  1.00  0.00     0.084 C
BRANCH   7   8
HETATM    8  C2  UNL     1       5.617  -4.249  -0.152  1.00  0.00     0.000 C
HETATM    9  C1  UNL     1       6.517  -5.053  -1.019  1.00  0.00     0.011 C
HETATM   10  C3  UNL     1       5.758  -4.715   1.289  1.00  0.00     0.011 C
ENDBRANCH   7   8
BRANCH   7  11
HETATM   11  C13 UNL     1       6.444  -2.440  -1.544  1.00  0.00     0.008 A
HETATM   12  C14 UNL     1       7.566  -1.416  -1.349  1.00  0.00     0.007 A
HETATM   13  C15 UNL     1       6.318  -1.096  -2.151  1.00  0.00     0.007 A
ENDBRANCH   7  11
ENDBRANCH   5   7
ENDBRANCH   4   5
ENDBRANCH   3   4
ENDBRANCH   1   3
BRANCH   1  14
HETATM   14  C7  UNL     1       1.605   1.348   0.375  1.00  0.00     0.111 C
BRANCH  14  15
HETATM   15  C8  UNL     1       0.860   2.079  -0.643  1.00  0.00     0.054 C
HETATM   16  N3  UNL     1       0.796   1.853  -1.824  1.00  0.00    -0.271 N
ATOM     17  H3  UNL     1       0.180   2.609  -2.124  1.00  0.00     0.194 HD
BRANCH  16  18
HETATM   18  O1  UNL     1       1.001   1.283  -2.917  1.00  0.00    -0.290 OA
ATOM     19  H1  UNL     1       0.990   1.130  -3.854  1.00  0.00     0.244 HD
ENDBRANCH  16  18
BRANCH  15  20
HETATM   20  C9  UNL     1       0.084   3.284  -0.128  1.00  0.00    -0.005 C
HETATM   21  C10 UNL     1       0.440   4.489  -0.979  1.00  0.00     0.021 C
HETATM   22  C11 UNL     1      -1.390   3.087  -0.177  1.00  0.00     0.021 C
HETATM   23  C12 UNL     1       0.463   3.576   1.312  1.00  0.00     0.021 C
ENDBRANCH  15  20
ENDBRANCH  14  15
ENDBRANCH   1  14
TORSDOF 10
ENDMDL