MODEL 5
REMARK VINA RESULT: -5.779675439      1.398      3.069
REMARK  11 active torsions:
REMARK  status: ('A' for Active; 'I' for Inactive)
REMARK    1  A    between atoms: C2_2  and  C3_3
REMARK    2  A    between atoms: C3_3  and  C4_4
REMARK    3  A    between atoms: C4_4  and  O1_5
REMARK    4  A    between atoms: C4_4  and  C5_7
REMARK    5  A    between atoms: C5_7  and  O2_8
REMARK    6  A    between atoms: C5_7  and  C6_10
REMARK    7  A    between atoms: C6_10  and  O3_11
REMARK    8  A    between atoms: C6_10  and  C7_13
REMARK    9  A    between atoms: C7_13  and  C8_14
REMARK   10  A    between atoms: C8_14  and  C9_15
REMARK   11  A    between atoms: C9_15  and  C10_16
ROOT
HETATM    1  C6  UNL     1       3.956   1.911  -3.459  1.00  0.00     0.149 C
ENDROOT
BRANCH   1   2
HETATM    2  C5  UNL     1       2.933   2.379  -2.445  1.00  0.00     0.175 C
BRANCH   2   3
HETATM    3  C4  UNL     1       1.969   1.268  -2.135  1.00  0.00     0.152 C
BRANCH   3   4
HETATM    4  C3  UNL     1       1.510   1.280  -0.725  1.00  0.00     0.060 C
BRANCH   4   5
HETATM    5  C2  UNL     1       1.950   0.069  -0.001  1.00  0.00    -0.034 C
HETATM    6  C1  UNL     1       2.583   0.028   1.157  1.00  0.00     0.007 C
ENDBRANCH   4   5
ENDBRANCH   3   4
BRANCH   3   7
HETATM    7  O1  UNL     1       0.877   1.353  -2.988  1.00  0.00    -0.393 OA
ATOM      8  H1  UNL     1       0.941   2.140  -3.517  1.00  0.00     0.210 HD
ENDBRANCH   3   7
ENDBRANCH   2   3
BRANCH   2   9
HETATM    9  O2  UNL     1       3.533   2.875  -1.299  1.00  0.00    -0.390 OA
ATOM     10  H2  UNL     1       3.263   3.767  -1.118  1.00  0.00     0.210 HD
ENDBRANCH   2   9
ENDBRANCH   1   2
BRANCH   1  11
HETATM   11  O3  UNL     1       3.475   0.851  -4.212  1.00  0.00    -0.393 OA
ATOM     12  H3  UNL     1       3.193   0.132  -3.659  1.00  0.00     0.210 HD
ENDBRANCH   1  11
BRANCH   1  13
HETATM   13  C7  UNL     1       5.253   1.524  -2.823  1.00  0.00     0.034 C
BRANCH  13  14
HETATM   14  C8  UNL     1       5.553   0.048  -2.871  1.00  0.00     0.003 C
BRANCH  14  15
HETATM   15  C9  UNL     1       5.668  -0.501  -1.497  1.00  0.00     0.005 C
BRANCH  15  16
HETATM   16  C10 UNL     1       5.652  -2.006  -1.434  1.00  0.00    -0.014 C
HETATM   17  C11 UNL     1       4.744  -2.490  -0.329  1.00  0.00     0.004 C
HETATM   18  C12 UNL     1       5.503  -3.061   0.844  1.00  0.00     0.000 C
HETATM   19  C13 UNL     1       6.068  -4.417   0.598  1.00  0.00     0.000 C
HETATM   20  C14 UNL     1       6.009  -4.852  -0.843  1.00  0.00     0.000 C
HETATM   21  C15 UNL     1       6.920  -4.080  -1.739  1.00  0.00     0.000 C
HETATM   22  C16 UNL     1       7.022  -2.616  -1.379  1.00  0.00     0.004 C
ENDBRANCH  15  16
ENDBRANCH  14  15
ENDBRANCH  13  14
ENDBRANCH   1  13
TORSDOF 11
ENDMDL