MODEL 1
REMARK VINA RESULT: -7.068167383      0.000      0.000
REMARK  7 active torsions:
REMARK  status: ('A' for Active; 'I' for Inactive)
REMARK    1  A    between atoms: C6_6  and  C7_7
REMARK    2  A    between atoms: C7_7  and  C8_8
REMARK    3  A    between atoms: C8_8  and  C9_9
REMARK    4  A    between atoms: C9_9  and  C10_10
REMARK    5  A    between atoms: C10_10  and  C11_11
REMARK       I    between atoms: C11_11  and  N1_13
REMARK    6  A    between atoms: C13_20  and  C14_21
REMARK    7  A    between atoms: C14_21  and  N4_22
ROOT
HETATM    1  C11 UNL     1       0.681  25.015  -1.221  1.00  0.00     0.223 C
HETATM    2  O1  UNL     1       0.683  25.726  -0.142  1.00  0.00    -0.273 OA
HETATM    3  N1  UNL     1       1.843  24.367  -1.524  1.00  0.00    -0.306 N
ATOM      4  H1  UNL     1       2.547  24.422  -0.788  1.00  0.00     0.171 HD
HETATM    5  C12 UNL     1       2.223  23.710  -2.544  1.00  0.00     0.167 A
HETATM    6  N2  UNL     1       1.654  23.392  -3.700  1.00  0.00    -0.279 N
ATOM      7  H2  UNL     1       0.704  23.701  -3.905  1.00  0.00     0.189 HD
HETATM    8  N3  UNL     1       2.298  22.702  -4.550  1.00  0.00    -0.294 N
ATOM      9  H3  UNL     1       1.860  22.460  -5.439  1.00  0.00     0.187 HD
HETATM   10  C13 UNL     1       3.526  22.297  -4.297  1.00  0.00     0.095 A
HETATM   11  S1  UNL     1       3.782  22.944  -2.739  1.00  0.00    -0.036 SA
ENDROOT
BRANCH   1  12
HETATM   12  C10 UNL     1      -0.605  25.023  -1.958  1.00  0.00     0.103 C
BRANCH  12  13
HETATM   13  C9  UNL     1      -0.641  26.140  -2.989  1.00  0.00     0.009 C
BRANCH  13  14
HETATM   14  C8  UNL     1      -1.443  25.755  -4.191  1.00  0.00     0.001 C
BRANCH  14  15
HETATM   15  C7  UNL     1      -2.038  26.948  -4.849  1.00  0.00     0.005 C
BRANCH  15  16
HETATM   16  C6  UNL     1      -3.121  27.609  -4.041  1.00  0.00    -0.011 C
HETATM   17  C2  UNL     1      -2.943  29.118  -4.194  1.00  0.00    -0.015 C
HETATM   18  C1  UNL     1      -2.058  29.580  -3.057  1.00  0.00     0.010 C
HETATM   19  C3  UNL     1      -4.321  29.711  -4.118  1.00  0.00     0.005 C
HETATM   20  C4  UNL     1      -5.293  28.551  -4.093  1.00  0.00     0.001 C
HETATM   21  C5  UNL     1      -4.495  27.341  -4.555  1.00  0.00     0.005 C
ENDBRANCH  15  16
ENDBRANCH  14  15
ENDBRANCH  13  14
ENDBRANCH  12  13
ENDBRANCH   1  12
BRANCH  10  22
HETATM   22  C14 UNL     1       4.452  21.478  -5.165  1.00  0.00     0.295 C
BRANCH  22  23
HETATM   23  N4  UNL     1       3.701  20.346  -5.636  1.00  0.00    -0.073 N
ATOM     24  H43 UNL     1       2.798  20.603  -6.033  1.00  0.00     0.274 HD
ATOM     25  H42 UNL     1       4.098  19.924  -6.474  1.00  0.00     0.274 HD
ATOM     26  H41 UNL     1       3.624  19.692  -4.857  1.00  0.00     0.274 HD
ENDBRANCH  22  23
ENDBRANCH  10  22
TORSDOF 7
ENDMDL