MODEL 3
REMARK VINA RESULT: -6.435171012      1.613      3.109
REMARK  7 active torsions:
REMARK  status: ('A' for Active; 'I' for Inactive)
REMARK    1  A    between atoms: C3_3  and  C4_4
REMARK    2  A    between atoms: C4_4  and  C5_5
REMARK    3  A    between atoms: C5_5  and  C6_6
REMARK    4  A    between atoms: C5_5  and  N1_10
REMARK    5  A    between atoms: C6_6  and  C7_7
REMARK    6  A    between atoms: C7_7  and  C8_8
REMARK    7  A    between atoms: N1_10  and  C10_12
ROOT
HETATM    1  C1  UNL     1      -5.614  28.534  -4.230  1.00  0.00     0.012 C
HETATM    2  C2  UNL     1      -4.507  28.999  -4.127  1.00  0.00    -0.117 C
HETATM    3  C3  UNL     1      -3.172  29.573  -3.984  1.00  0.00     0.095 C
ENDROOT
BRANCH   3   4
HETATM    4  C4  UNL     1      -2.246  28.558  -3.336  1.00  0.00     0.037 C
BRANCH   4   5
HETATM    5  C5  UNL     1      -0.908  28.660  -4.037  1.00  0.00     0.083 C
BRANCH   5   6
HETATM    6  C6  UNL     1      -0.755  27.507  -4.973  1.00  0.00     0.025 C
BRANCH   6   7
HETATM    7  C7  UNL     1      -1.497  26.301  -4.413  1.00  0.00     0.002 C
BRANCH   7   8
HETATM    8  C8  UNL     1      -0.489  25.186  -4.080  1.00  0.00    -0.004 C
HETATM    9  C9  UNL     1      -0.639  24.719  -2.664  1.00  0.00     0.005 C
ENDBRANCH   7   8
ENDBRANCH   6   7
ENDBRANCH   5   6
BRANCH   5  10
HETATM   10  N1  UNL     1       0.107  28.936  -3.138  1.00  0.00    -0.371 N
ATOM     11  H1  UNL     1       0.890  29.369  -3.627  1.00  0.00     0.161 HD
BRANCH  10  12
HETATM   12  C10 UNL     1       0.378  28.826  -1.921  1.00  0.00     0.121 A
HETATM   13  N2  UNL     1       0.711  27.653  -1.359  1.00  0.00    -0.332 N
HETATM   14  C11 UNL     1       1.014  27.457  -0.065  1.00  0.00     0.079 A
ATOM     15  H2  UNL     1       0.737  26.837  -1.970  1.00  0.00     0.168 HD
HETATM   16  C12 UNL     1       1.364  26.106   0.423  1.00  0.00     0.089 C
HETATM   17  N3  UNL     1       0.986  28.526   0.759  1.00  0.00    -0.339 N
HETATM   18  C13 UNL     1       0.654  29.750   0.247  1.00  0.00     0.111 A
ATOM     19  H3  UNL     1       1.209  28.422   1.749  1.00  0.00     0.168 HD
HETATM   20  S1  UNL     1       0.504  31.308   0.921  1.00  0.00     0.008 SA
HETATM   21  C15 UNL     1       0.342  29.966  -1.066  1.00  0.00     0.111 A
HETATM   22  N4  UNL     1       0.061  32.165  -0.455  1.00  0.00    -0.291 N
HETATM   23  C14 UNL     1       0.037  31.235  -1.411  1.00  0.00     0.268 A
ATOM     24  H4  UNL     1      -0.140  33.161  -0.540  1.00  0.00     0.177 HD
HETATM   25  O1  UNL     1      -0.281  31.624  -2.603  1.00  0.00    -0.267 OA
ENDBRANCH  10  12
ENDBRANCH   5  10
ENDBRANCH   4   5
ENDBRANCH   3   4
TORSDOF 7
ENDMDL