MODEL 1
REMARK VINA RESULT: -6.978595539      0.000      0.000
REMARK  6 active torsions:
REMARK  status: ('A' for Active; 'I' for Inactive)
REMARK    1  A    between atoms: C2_2  and  C3_3
REMARK    2  A    between atoms: N2_6  and  C4_7
REMARK    3  A    between atoms: C4_7  and  C5_8
REMARK    4  A    between atoms: C7_10  and  C8_11
REMARK    5  A    between atoms: C15_22  and  C16_23
REMARK    6  A    between atoms: C16_23  and  N5_24
ROOT
HETATM    1  C3  UNL     1       1.854  24.967  -0.916  1.00  0.00     0.033 A
HETATM    2  N1  UNL     1       1.309  25.163  -2.068  1.00  0.00    -0.306 N
ATOM      3  H1  UNL     1       0.689  25.968  -2.154  1.00  0.00     0.186 HD
HETATM    4  N2  UNL     1       1.484  24.385  -3.199  1.00  0.00    -0.319 N
HETATM    5  C13 UNL     1       2.346  23.250  -3.144  1.00  0.00     0.171 A
HETATM    6  C14 UNL     1       2.955  23.056  -1.801  1.00  0.00     0.005 A
HETATM    7  C15 UNL     1       2.755  23.821  -0.754  1.00  0.00    -0.019 A
ENDROOT
BRANCH   4   8
HETATM    8  C4  UNL     1       0.808  24.700  -4.436  1.00  0.00     0.201 C
BRANCH   8   9
HETATM    9  C5  UNL     1      -0.110  25.850  -4.350  1.00  0.00     0.047 A
HETATM   10  C6  UNL     1      -1.410  25.978  -3.928  1.00  0.00     0.055 A
HETATM   11  C7  UNL     1      -1.839  27.277  -4.056  1.00  0.00     0.032 A
HETATM   12  N3  UNL     1      -0.788  27.938  -4.559  1.00  0.00    -0.304 N
HETATM   13  N4  UNL     1       0.246  27.116  -4.741  1.00  0.00    -0.303 N
ATOM     14  H3  UNL     1      -0.780  28.935  -4.773  1.00  0.00     0.186 HD
ATOM     15  H4  UNL     1       1.157  27.385  -5.111  1.00  0.00     0.186 HD
BRANCH  11  16
HETATM   16  C8  UNL     1      -3.171  27.806  -3.715  1.00  0.00     0.037 C
HETATM   17  C9  UNL     1      -3.304  29.277  -3.847  1.00  0.00     0.011 C
HETATM   18  C10 UNL     1      -4.768  29.513  -4.114  1.00  0.00     0.001 C
HETATM   19  C11 UNL     1      -5.414  28.150  -4.254  1.00  0.00     0.001 C
HETATM   20  C12 UNL     1      -4.222  27.303  -4.721  1.00  0.00     0.011 C
ENDBRANCH  11  16
ENDBRANCH   8   9
ENDBRANCH   4   8
BRANCH   1  21
HETATM   21  C2  UNL     1       1.528  25.926   0.169  1.00  0.00     0.055 C
HETATM   22  C1  UNL     1       1.097  27.246  -0.381  1.00  0.00     0.011 C
ENDBRANCH   1  21
BRANCH   7  23
HETATM   23  C16 UNL     1       3.407  23.609   0.565  1.00  0.00     0.154 C
BRANCH  23  24
HETATM   24  N5  UNL     1       2.704  22.779   1.472  1.00  0.00    -0.421 N
HETATM   25  C17 UNL     1       3.456  21.837   2.226  1.00  0.00     0.140 C
ATOM     26  H5  UNL     1       1.693  22.853   1.581  1.00  0.00     0.153 HD
ENDBRANCH  23  24
ENDBRANCH   7  23
TORSDOF 6
ENDMDL