MODEL 3
REMARK VINA RESULT: -6.549791289      1.915      2.823
REMARK  6 active torsions:
REMARK  status: ('A' for Active; 'I' for Inactive)
REMARK    1  A    between atoms: C2_2  and  C3_3
REMARK    2  A    between atoms: C3_3  and  C4_4
REMARK    3  A    between atoms: C4_4  and  C5_5
REMARK    4  A    between atoms: C5_5  and  N1_6
REMARK       I    between atoms: N1_6  and  C6_8
REMARK       I    between atoms: C6_8  and  N4_21
REMARK    5  A    between atoms: N2_9  and  N3_11
REMARK    6  A    between atoms: N4_21  and  N5_23
ROOT
HETATM    1  N1  UNL     1      -3.403  28.228  -4.522  1.00  0.00    -0.223 N
ATOM      2  H1  UNL     1      -3.263  27.547  -5.269  1.00  0.00     0.177 HD
HETATM    3  C6  UNL     1      -2.249  28.747  -3.825  1.00  0.00     0.712 C
HETATM    4  N2  UNL     1      -1.603  27.936  -3.079  1.00  0.00    -0.131 N
ATOM      5  H2  UNL     1      -1.946  26.977  -3.025  1.00  0.00     0.205 HD
HETATM    6  N4  UNL     1      -1.918  30.095  -4.013  1.00  0.00    -0.071 N
ATOM      7  H4  UNL     1      -2.065  30.754  -3.249  1.00  0.00     0.212 HD
ENDROOT
BRANCH   1   8
HETATM    8  C5  UNL     1      -4.729  28.635  -4.200  1.00  0.00     0.138 C
BRANCH   8   9
HETATM    9  C4  UNL     1      -5.667  27.494  -4.134  1.00  0.00     0.020 C
BRANCH   9  10
HETATM   10  C3  UNL     1      -6.929  27.555  -4.887  1.00  0.00     0.001 C
BRANCH  10  11
HETATM   11  C2  UNL     1      -7.854  26.404  -4.869  1.00  0.00    -0.004 C
HETATM   12  C1  UNL     1      -9.189  26.917  -5.458  1.00  0.00     0.005 C
ENDBRANCH  10  11
ENDBRANCH   9  10
ENDBRANCH   8   9
ENDBRANCH   1   8
BRANCH   4  13
HETATM   13  N3  UNL     1      -0.487  28.246  -2.344  1.00  0.00    -0.295 N
HETATM   14  C7  UNL     1       0.546  27.452  -2.166  1.00  0.00     0.004 C
HETATM   15  C8  UNL     1       0.325  26.191  -2.868  1.00  0.00     0.054 C
HETATM   16  C14 UNL     1       1.539  28.128  -1.335  1.00  0.00     0.054 C
HETATM   17  C9  UNL     1      -0.141  25.118  -1.916  1.00  0.00     0.006 C
HETATM   18  C10 UNL     1       0.613  25.081  -0.626  1.00  0.00     0.000 C
HETATM   19  C11 UNL     1       2.073  24.824  -0.785  1.00  0.00     0.000 C
HETATM   20  C12 UNL     1       2.914  26.020  -1.092  1.00  0.00     0.000 C
HETATM   21  C13 UNL     1       2.399  27.275  -0.478  1.00  0.00     0.006 C
ATOM     22  H3  UNL     1      -0.455  29.164  -1.901  1.00  0.00     0.186 HD
ENDBRANCH   4  13
BRANCH   6  23
HETATM   23  N5  UNL     1      -1.388  30.559  -5.230  1.00  0.00    -0.024 N
HETATM   24  O1  UNL     1      -1.013  29.736  -6.086  1.00  0.00    -0.516 OA
HETATM   25  O2  UNL     1      -1.277  31.884  -5.492  1.00  0.00    -0.516 OA
ENDBRANCH   6  23
TORSDOF 6
ENDMDL