MODEL 2
REMARK VINA RESULT: -5.937481874      5.036      8.045
REMARK  7 active torsions:
REMARK  status: ('A' for Active; 'I' for Inactive)
REMARK    1  A    between atoms: C2_2  and  C3_3
REMARK    2  A    between atoms: C3_3  and  C4_4
REMARK    3  A    between atoms: C4_4  and  N1_5
REMARK       I    between atoms: N1_5  and  C5_7
REMARK       I    between atoms: C5_7  and  N2_9
REMARK    4  A    between atoms: N2_9  and  C6_11
REMARK    5  A    between atoms: C7_16  and  S1_17
REMARK    6  A    between atoms: S1_17  and  C8_18
REMARK    7  A    between atoms: C8_18  and  C9_19
ROOT
HETATM    1  C6  UNL     1       0.148  31.665  -5.246  1.00  0.00     0.169 A
HETATM    2  N3  UNL     1      -0.053  31.788  -3.929  1.00  0.00    -0.278 N
ATOM      3  H3  UNL     1       0.053  32.695  -3.475  1.00  0.00     0.189 HD
HETATM    4  N4  UNL     1      -0.375  30.774  -3.254  1.00  0.00    -0.286 N
ATOM      5  H4  UNL     1      -0.530  30.867  -2.250  1.00  0.00     0.188 HD
HETATM    6  C7  UNL     1      -0.516  29.572  -3.841  1.00  0.00     0.130 A
HETATM    7  S2  UNL     1      -0.148  30.002  -5.476  1.00  0.00    -0.026 SA
ENDROOT
BRANCH   1   8
HETATM    8  N2  UNL     1       0.474  32.590  -6.084  1.00  0.00    -0.288 N
HETATM    9  C5  UNL     1      -0.476  33.103  -6.984  1.00  0.00     0.322 C
HETATM   10  N1  UNL     1      -1.490  33.981  -6.520  1.00  0.00    -0.343 N
HETATM   11  O1  UNL     1      -0.466  32.810  -8.203  1.00  0.00    -0.247 OA
ATOM     12  H1  UNL     1      -1.520  34.232  -5.531  1.00  0.00     0.164 HD
ATOM     13  H2  UNL     1       1.428  32.952  -6.094  1.00  0.00     0.172 HD
BRANCH  10  14
HETATM   14  C4  UNL     1      -2.494  34.536  -7.434  1.00  0.00     0.124 C
BRANCH  14  15
HETATM   15  C3  UNL     1      -2.226  35.993  -7.600  1.00  0.00     0.019 C
BRANCH  15  16
HETATM   16  C2  UNL     1      -2.157  36.331  -9.058  1.00  0.00    -0.003 C
HETATM   17  C1  UNL     1      -0.732  36.098  -9.554  1.00  0.00     0.005 C
ENDBRANCH  15  16
ENDBRANCH  14  15
ENDBRANCH  10  14
ENDBRANCH   1   8
BRANCH   6  18
HETATM   18  S1  UNL     1      -0.863  28.013  -3.068  1.00  0.00    -0.103 SA
BRANCH  18  19
HETATM   19  C8  UNL     1      -2.426  27.329  -3.467  1.00  0.00     0.086 C
BRANCH  19  20
HETATM   20  C9  UNL     1      -3.402  27.998  -4.321  1.00  0.00    -0.005 C
HETATM   21  C10 UNL     1      -3.965  29.332  -3.848  1.00  0.00     0.005 C
HETATM   22  C11 UNL     1      -5.346  28.842  -4.285  1.00  0.00     0.001 C
HETATM   23  C12 UNL     1      -4.747  27.441  -4.507  1.00  0.00     0.005 C
ENDBRANCH  19  20
ENDBRANCH  18  19
ENDBRANCH   6  18
TORSDOF 7
ENDMDL