MODEL 5
REMARK VINA RESULT: -6.248797106      2.205      2.949
REMARK  7 active torsions:
REMARK  status: ('A' for Active; 'I' for Inactive)
REMARK    1  A    between atoms: O1_1  and  C1_3
REMARK    2  A    between atoms: C1_3  and  C2_4
REMARK    3  A    between atoms: C2_4  and  C3_5
REMARK    4  A    between atoms: C3_5  and  C4_6
REMARK    5  A    between atoms: C4_6  and  C5_7
REMARK    6  A    between atoms: C5_7  and  N1_8
REMARK    7  A    between atoms: N2_11  and  C8_12
ROOT
HETATM    1  N1  UNL     1      -2.668  27.447  -3.657  1.00  0.00     0.091 N
HETATM    2  C6  UNL     1      -1.891  28.638  -3.650  1.00  0.00     0.292 C
HETATM    3  C7  UNL     1      -0.737  28.510  -2.710  1.00  0.00     0.153 C
HETATM    4  N2  UNL     1      -0.198  27.182  -2.627  1.00  0.00    -0.376 N
HETATM    5  C14 UNL     1      -0.894  25.991  -3.057  1.00  0.00     0.153 C
HETATM    6  C15 UNL     1      -1.850  26.363  -4.167  1.00  0.00     0.292 C
ENDROOT
BRANCH   4   7
HETATM    7  C8  UNL     1       1.108  27.026  -2.084  1.00  0.00     0.059 A
HETATM    8  C9  UNL     1       2.156  26.413  -2.735  1.00  0.00     0.119 A
HETATM    9  N3  UNL     1       3.253  26.423  -1.964  1.00  0.00    -0.357 N
HETATM   10  C10 UNL     1       2.893  27.054  -0.800  1.00  0.00     0.086 A
ATOM     11  H3  UNL     1       4.169  26.039  -2.195  1.00  0.00     0.166 HD
HETATM   12  S1  UNL     1       3.418  27.583   0.737  1.00  0.00    -0.083 SA
HETATM   13  C13 UNL     1       1.589  27.443  -0.826  1.00  0.00     0.026 A
HETATM   14  C11 UNL     1       1.974  28.280   1.305  1.00  0.00     0.053 A
HETATM   15  C12 UNL     1       1.106  28.079   0.267  1.00  0.00     0.024 A
ENDBRANCH   4   7
BRANCH   1  16
HETATM   16  C5  UNL     1      -3.848  27.515  -4.489  1.00  0.00     0.272 C
BRANCH  16  17
HETATM   17  C4  UNL     1      -4.703  28.699  -4.223  1.00  0.00     0.030 C
BRANCH  17  18
HETATM   18  C3  UNL     1      -6.155  28.311  -4.290  1.00  0.00     0.004 C
BRANCH  18  19
HETATM   19  C2  UNL     1      -6.394  26.883  -4.647  1.00  0.00     0.026 C
BRANCH  19  20
HETATM   20  C1  UNL     1      -7.873  26.688  -4.997  1.00  0.00     0.164 C
BRANCH  20  21
HETATM   21  O1  UNL     1      -8.437  25.687  -4.215  1.00  0.00    -0.401 OA
ATOM     22  H1  UNL     1      -8.045  24.844  -4.412  1.00  0.00     0.209 HD
ENDBRANCH  20  21
ENDBRANCH  19  20
ENDBRANCH  18  19
ENDBRANCH  17  18
ENDBRANCH  16  17
ENDBRANCH   1  16
TORSDOF 7
ENDMDL