MODEL 5
REMARK VINA RESULT: -5.985866337      1.173      1.354
REMARK  7 active torsions:
REMARK  status: ('A' for Active; 'I' for Inactive)
REMARK    1  A    between atoms: C2_2  and  C3_3
REMARK    2  A    between atoms: C3_3  and  C4_4
REMARK    3  A    between atoms: C4_4  and  C5_5
REMARK    4  A    between atoms: C6_6  and  N1_7
REMARK    5  A    between atoms: C13_17  and  C14_18
REMARK    6  A    between atoms: C14_18  and  C15_19
REMARK    7  A    between atoms: C17_23  and  N5_24
ROOT
HETATM    1  N1  UNL     1       0.785  26.708  -2.253  1.00  0.00    -0.365 N
HETATM    2  C7  UNL     1       2.003  26.308  -2.916  1.00  0.00     0.130 C
HETATM    3  C8  UNL     1       1.876  24.797  -2.982  1.00  0.00     0.019 C
HETATM    4  C9  UNL     1       3.238  24.192  -3.148  1.00  0.00     0.013 C
HETATM    5  C10 UNL     1       1.295  24.468  -1.640  1.00  0.00     0.116 C
HETATM    6  C11 UNL     1       2.359  24.227  -0.681  1.00  0.00     0.066 C
HETATM    7  N2  UNL     1       3.208  24.041   0.072  1.00  0.00    -0.197 NA
HETATM    8  C12 UNL     1       0.435  25.649  -1.295  1.00  0.00     0.144 C
ENDROOT
BRANCH   1   9
HETATM    9  C6  UNL     1      -0.019  27.852  -2.441  1.00  0.00     0.114 A
HETATM   10  C5  UNL     1       0.216  29.059  -1.827  1.00  0.00     0.029 A
HETATM   11  C17 UNL     1      -0.652  30.086  -2.093  1.00  0.00     0.110 A
HETATM   12  N4  UNL     1      -1.699  29.843  -2.952  1.00  0.00    -0.332 N
HETATM   13  C13 UNL     1      -1.929  28.685  -3.544  1.00  0.00     0.084 A
ATOM     14  H4  UNL     1      -2.343  30.610  -3.145  1.00  0.00     0.168 HD
HETATM   15  N3  UNL     1      -1.082  27.675  -3.290  1.00  0.00    -0.332 N
ATOM     16  H3  UNL     1      -1.229  26.768  -3.732  1.00  0.00     0.168 HD
BRANCH  10  17
HETATM   17  C4  UNL     1       1.372  29.224  -0.966  1.00  0.00     0.046 C
BRANCH  17  18
HETATM   18  C3  UNL     1       1.230  28.901   0.476  1.00  0.00     0.004 C
BRANCH  18  19
HETATM   19  C2  UNL     1       2.134  27.898   1.080  1.00  0.00    -0.004 C
HETATM   20  C1  UNL     1       3.420  27.638   0.369  1.00  0.00     0.005 C
ENDBRANCH  18  19
ENDBRANCH  17  18
ENDBRANCH  10  17
BRANCH  11  21
HETATM   21  N5  UNL     1      -0.545  31.282  -1.619  1.00  0.00    -0.385 N
ATOM     22  H52 UNL     1       0.316  31.788  -1.825  1.00  0.00     0.157 HD
ATOM     23  H51 UNL     1      -1.245  31.742  -1.039  1.00  0.00     0.157 HD
ENDBRANCH  11  21
BRANCH  13  24
HETATM   24  C14 UNL     1      -3.100  28.484  -4.471  1.00  0.00     0.076 C
BRANCH  24  25
HETATM   25  C15 UNL     1      -4.225  29.378  -4.014  1.00  0.00     0.003 C
HETATM   26  C16 UNL     1      -5.544  28.721  -4.234  1.00  0.00     0.005 C
ENDBRANCH  24  25
ENDBRANCH  13  24
ENDBRANCH   1   9
TORSDOF 7
ENDMDL