MODEL 5
REMARK VINA RESULT: -6.185118030      4.966      7.468
REMARK  6 active torsions:
REMARK  status: ('A' for Active; 'I' for Inactive)
REMARK    1  A    between atoms: C2_2  and  N1_3
REMARK    2  A    between atoms: N1_3  and  C3_4
REMARK    3  A    between atoms: N1_3  and  C11_18
REMARK    4  A    between atoms: N3_10  and  C8_12
REMARK    5  A    between atoms: C8_12  and  C9_13
REMARK    6  A    between atoms: C9_13  and  S1_14
ROOT
HETATM    1  C3  UNL     1      -0.061  27.081  -4.646  1.00  0.00     0.106 A
HETATM    2  C4  UNL     1       0.480  27.532  -5.852  1.00  0.00     0.075 A
HETATM    3  C5  UNL     1       1.429  26.818  -6.572  1.00  0.00     0.053 A
HETATM    4  N2  UNL     1       1.958  27.304  -7.795  1.00  0.00    -0.102 NA
HETATM    5  C6  UNL     1       1.844  25.607  -6.054  1.00  0.00     0.075 A
HETATM    6  C7  UNL     1       1.312  25.159  -4.863  1.00  0.00     0.104 A
HETATM    7  N3  UNL     1       1.659  24.042  -4.333  1.00  0.00    -0.376 N
ATOM      8  H3  UNL     1       1.202  23.809  -3.451  1.00  0.00     0.161 HD
HETATM    9  N4  UNL     1       0.376  25.904  -4.191  1.00  0.00    -0.329 N
ATOM     10  H4  UNL     1       0.000  25.547  -3.313  1.00  0.00     0.169 HD
ENDROOT
BRANCH   1  11
HETATM   11  N1  UNL     1      -1.062  27.848  -3.948  1.00  0.00    -0.363 N
BRANCH  11  12
HETATM   12  C2  UNL     1      -0.843  28.178  -2.567  1.00  0.00     0.120 C
HETATM   13  C1  UNL     1       0.365  29.061  -2.323  1.00  0.00     0.026 C
ENDBRANCH  11  12
BRANCH  11  14
HETATM   14  C11 UNL     1      -2.291  28.288  -4.638  1.00  0.00     0.085 C
HETATM   15  C12 UNL     1      -3.266  27.141  -4.654  1.00  0.00     0.025 C
HETATM   16  C13 UNL     1      -4.502  27.365  -3.850  1.00  0.00     0.002 C
HETATM   17  C14 UNL     1      -5.113  28.669  -4.383  1.00  0.00     0.000 C
HETATM   18  C15 UNL     1      -4.215  29.762  -3.918  1.00  0.00     0.002 C
HETATM   19  C16 UNL     1      -2.767  29.606  -4.246  1.00  0.00     0.025 C
ENDBRANCH  11  14
ENDBRANCH   1  11
BRANCH   7  20
HETATM   20  C8  UNL     1       2.600  23.086  -4.815  1.00  0.00     0.131 C
BRANCH  20  21
HETATM   21  C9  UNL     1       2.827  21.953  -3.825  1.00  0.00     0.093 C
BRANCH  21  22
HETATM   22  S1  UNL     1       2.978  22.620  -2.151  1.00  0.00    -0.172 SA
HETATM   23  C10 UNL     1       3.288  21.276  -0.971  1.00  0.00     0.089 C
ENDBRANCH  21  22
ENDBRANCH  20  21
ENDBRANCH   7  20
TORSDOF 6
ENDMDL