MODEL 4
REMARK VINA RESULT: -5.964741393      0.939      1.455
REMARK  6 active torsions:
REMARK  status: ('A' for Active; 'I' for Inactive)
REMARK    1  A    between atoms: N2_5  and  C3_6
REMARK    2  A    between atoms: C3_6  and  C4_7
REMARK    3  A    between atoms: C4_7  and  N3_8
REMARK    4  A    between atoms: N3_8  and  C5_11
REMARK    5  A    between atoms: C5_11  and  C6_12
REMARK    6  A    between atoms: C12_20  and  C13_21
ROOT
HETATM    1  C3  UNL     1       0.618  25.540  -2.568  1.00  0.00     0.177 C
ENDROOT
BRANCH   1   2
HETATM    2  N2  UNL     1       1.451  24.349  -2.518  1.00  0.00    -0.279 N
HETATM    3  N1  UNL     1       1.596  23.434  -3.427  1.00  0.00    -0.301 N
HETATM    4  C2  UNL     1       2.436  22.484  -3.061  1.00  0.00     0.032 A
ATOM      5  H1  UNL     1       1.114  23.447  -4.325  1.00  0.00     0.187 HD
HETATM    6  C1  UNL     1       2.880  21.277  -3.770  1.00  0.00     0.070 C
HETATM    7  C12 UNL     1       2.883  22.819  -1.776  1.00  0.00     0.009 A
HETATM    8  C11 UNL     1       2.254  23.988  -1.459  1.00  0.00     0.126 A
HETATM    9  S1  UNL     1       2.357  24.932  -0.106  1.00  0.00    -0.058 SA
BRANCH   7  10
HETATM   10  C13 UNL     1       3.855  22.083  -0.986  1.00  0.00     0.024 A
HETATM   11  C14 UNL     1       3.358  21.288   0.214  1.00  0.00     0.010 A
HETATM   12  C15 UNL     1       4.089  20.655  -0.945  1.00  0.00     0.010 A
ENDBRANCH   7  10
ENDBRANCH   1   2
BRANCH   1  13
HETATM   13  C4  UNL     1      -0.831  25.179  -2.813  1.00  0.00     0.254 C
BRANCH  13  14
HETATM   14  N3  UNL     1      -1.259  25.316  -4.165  1.00  0.00    -0.073 N
ATOM     15  H32 UNL     1      -0.565  24.929  -4.803  1.00  0.00     0.277 HD
ATOM     16  H31 UNL     1      -2.039  24.689  -4.360  1.00  0.00     0.277 HD
BRANCH  14  17
HETATM   17  C5  UNL     1      -1.586  26.651  -4.529  1.00  0.00     0.237 C
BRANCH  17  18
HETATM   18  C6  UNL     1      -2.669  27.290  -3.718  1.00  0.00     0.015 C
HETATM   19  C7  UNL     1      -3.894  27.399  -4.603  1.00  0.00     0.032 C
HETATM   20  C8  UNL     1      -4.823  28.492  -4.175  1.00  0.00     0.168 C
HETATM   21  O1  UNL     1      -4.185  29.703  -3.960  1.00  0.00    -0.391 OA
HETATM   22  C9  UNL     1      -2.831  29.649  -4.273  1.00  0.00     0.168 C
HETATM   23  C10 UNL     1      -2.214  28.664  -3.267  1.00  0.00     0.032 C
ENDBRANCH  17  18
ENDBRANCH  14  17
ENDBRANCH  13  14
ENDBRANCH   1  13
TORSDOF 6
ENDMDL