MODEL 1
REMARK VINA RESULT: -7.066958640      0.000      0.000
REMARK  8 active torsions:
REMARK  status: ('A' for Active; 'I' for Inactive)
REMARK    1  A    between atoms: O1_1  and  C1_3
REMARK    2  A    between atoms: C1_3  and  C2_4
REMARK    3  A    between atoms: C2_4  and  C3_5
REMARK    4  A    between atoms: C3_5  and  C4_6
REMARK    5  A    between atoms: C4_6  and  N1_7
REMARK    6  A    between atoms: N1_7  and  C5_9
REMARK    7  A    between atoms: N4_19  and  C11_20
REMARK    8  A    between atoms: C11_20  and  C12_21
ROOT
HETATM    1  C5  UNL     1      -3.443  28.367  -4.085  1.00  0.00     0.062 A
HETATM    2  C6  UNL     1      -3.104  29.620  -3.540  1.00  0.00     0.137 A
HETATM    3  N2  UNL     1      -1.895  29.856  -3.015  1.00  0.00    -0.308 N
ATOM      4  H2  UNL     1      -1.699  30.782  -2.633  1.00  0.00     0.186 HD
HETATM    5  N3  UNL     1      -0.948  28.940  -2.971  1.00  0.00    -0.285 N
ATOM      6  H3  UNL     1      -0.038  29.153  -2.563  1.00  0.00     0.188 HD
HETATM    7  C7  UNL     1      -1.202  27.718  -3.474  1.00  0.00     0.134 A
HETATM    8  C8  UNL     1      -2.444  27.422  -4.032  1.00  0.00     0.039 A
HETATM    9  C9  UNL     1      -2.381  26.125  -4.442  1.00  0.00     0.035 A
HETATM   10  C10 UNL     1      -1.120  25.637  -4.139  1.00  0.00     0.093 A
HETATM   11  N4  UNL     1      -0.419  26.614  -3.554  1.00  0.00    -0.341 N
ENDROOT
BRANCH   1  12
HETATM   12  N1  UNL     1      -4.572  28.228  -4.549  1.00  0.00    -0.368 N
ATOM     13  H1  UNL     1      -4.501  28.075  -5.555  1.00  0.00     0.165 HD
BRANCH  12  14
HETATM   14  C4  UNL     1      -5.908  28.206  -4.182  1.00  0.00     0.061 C
BRANCH  14  15
HETATM   15  C3  UNL     1      -6.673  26.970  -4.633  1.00  0.00     0.046 C
BRANCH  15  16
HETATM   16  C2  UNL     1      -7.992  27.316  -5.241  1.00  0.00     0.031 C
BRANCH  16  17
HETATM   17  C1  UNL     1      -8.976  26.168  -5.205  1.00  0.00     0.164 C
BRANCH  17  18
HETATM   18  O1  UNL     1      -8.829  25.384  -4.087  1.00  0.00    -0.401 OA
ATOM     19  H1  UNL     1      -9.365  24.599  -4.119  1.00  0.00     0.209 HD
ENDBRANCH  17  18
ENDBRANCH  16  17
ENDBRANCH  15  16
ENDBRANCH  14  15
ENDBRANCH  12  14
ENDBRANCH   1  12
BRANCH  11  20
HETATM   20  C11 UNL     1       0.945  26.509  -3.097  1.00  0.00     0.134 C
BRANCH  20  21
HETATM   21  C12 UNL     1       1.279  25.207  -2.422  1.00  0.00     0.004 C
HETATM   22  C13 UNL     1       2.741  24.979  -2.302  1.00  0.00     0.006 C
HETATM   23  C14 UNL     1       3.306  26.018  -1.364  1.00  0.00     0.000 C
HETATM   24  C15 UNL     1       2.704  25.890   0.002  1.00  0.00     0.000 C
HETATM   25  C16 UNL     1       1.497  25.013   0.071  1.00  0.00     0.000 C
HETATM   26  C17 UNL     1       0.556  25.158  -1.098  1.00  0.00     0.006 C
ENDBRANCH  20  21
ENDBRANCH  11  20
TORSDOF 8
ENDMDL