MODEL 3
REMARK VINA RESULT: -6.484804314      2.349      3.844
REMARK  6 active torsions:
REMARK  status: ('A' for Active; 'I' for Inactive)
REMARK    1  A    between atoms: C1_2  and  C2_3
REMARK       I    between atoms: C1_2  and  N3_21
REMARK    2  A    between atoms: C2_3  and  C3_4
REMARK    3  A    between atoms: C3_4  and  C4_5
REMARK    4  A    between atoms: C4_5  and  C5_6
REMARK    5  A    between atoms: C6_9  and  C7_10
REMARK    6  A    between atoms: C13_18  and  O2_19
ROOT
HETATM    1  C5  UNL     1      32.237 101.528  36.551  1.00  0.00     0.062 A
HETATM    2  N1  UNL     1      31.395 101.266  35.528  1.00  0.00    -0.345 N
ATOM      3  H1  UNL     1      30.417 100.991  35.624  1.00  0.00     0.167 HD
HETATM    4  C6  UNL     1      32.045 101.424  34.364  1.00  0.00     0.087 A
HETATM    5  N2  UNL     1      33.304 101.790  34.671  1.00  0.00    -0.325 N
ATOM      6  H2  UNL     1      34.038 101.983  33.991  1.00  0.00     0.169 HD
HETATM    7  C13 UNL     1      33.454 101.862  36.006  1.00  0.00     0.164 A
ENDROOT
BRANCH   1   8
HETATM    8  C4  UNL     1      31.971 101.486  38.022  1.00  0.00     0.062 C
BRANCH   8   9
HETATM    9  C3  UNL     1      31.508 100.092  38.350  1.00  0.00     0.015 C
BRANCH   9  10
HETATM   10  C2  UNL     1      32.621  99.116  38.497  1.00  0.00     0.103 C
BRANCH  10  11
HETATM   11  C1  UNL     1      32.221  97.788  38.003  1.00  0.00     0.219 C
HETATM   12  O1  UNL     1      31.406  97.101  38.663  1.00  0.00    -0.273 OA
HETATM   13  N3  UNL     1      32.773  97.321  36.785  1.00  0.00    -0.348 N
HETATM   14  C14 UNL     1      33.699  98.134  36.058  1.00  0.00     0.152 C
HETATM   15  C17 UNL     1      32.383  96.015  36.294  1.00  0.00     0.152 C
HETATM   16  C15 UNL     1      33.950  97.473  34.722  1.00  0.00     0.187 C
HETATM   17  O3  UNL     1      32.714  97.131  34.187  1.00  0.00    -0.388 OA
HETATM   18  C16 UNL     1      32.160  96.018  34.801  1.00  0.00     0.187 C
ENDBRANCH  10  11
ENDBRANCH   9  10
ENDBRANCH   8   9
ENDBRANCH   1   8
BRANCH   7  19
HETATM   19  O2  UNL     1      34.588 102.200  36.730  1.00  0.00    -0.345 OA
ATOM     20  H2  UNL     1      35.482 102.027  36.460  1.00  0.00     0.219 HD
ENDBRANCH   7  19
BRANCH   4  21
HETATM   21  C7  UNL     1      31.479 101.233  33.006  1.00  0.00     0.053 C
HETATM   22  C8  UNL     1      29.990 101.424  33.099  1.00  0.00     0.012 C
HETATM   23  C9  UNL     1      29.268 100.908  31.874  1.00  0.00     0.001 C
HETATM   24  C10 UNL     1      29.593  99.412  31.795  1.00  0.00     0.000 C
HETATM   25  C11 UNL     1      31.067  99.345  31.404  1.00  0.00     0.001 C
HETATM   26  C12 UNL     1      31.867  99.850  32.552  1.00  0.00     0.012 C
ENDBRANCH   4  21
TORSDOF 6
ENDMDL