MODEL 3
REMARK VINA RESULT: -6.157520064      5.140      8.611
REMARK  6 active torsions:
REMARK  status: ('A' for Active; 'I' for Inactive)
REMARK    1  A    between atoms: N1_2  and  C3_4
REMARK    2  A    between atoms: C3_4  and  C4_5
REMARK    3  A    between atoms: C4_5  and  O1_6
REMARK    4  A    between atoms: O1_6  and  C5_7
REMARK    5  A    between atoms: C8_12  and  N3_13
REMARK    6  A    between atoms: N3_13  and  C9_15
ROOT
HETATM    1  C5  UNL     1      34.455 103.668  32.109  1.00  0.00     0.158 A
HETATM    2  C6  UNL     1      35.523 103.212  31.344  1.00  0.00     0.074 A
HETATM    3  C7  UNL     1      35.844 101.858  31.423  1.00  0.00     0.110 A
HETATM    4  N2  UNL     1      35.142 101.026  32.211  1.00  0.00    -0.202 N
ATOM      5  H2  UNL     1      35.395 100.038  32.254  1.00  0.00     0.183 HD
HETATM    6  C8  UNL     1      34.112 101.479  32.944  1.00  0.00     0.680 A
HETATM    7  N4  UNL     1      33.812 102.766  32.865  1.00  0.00    -0.171 N
ATOM      8  H4  UNL     1      33.028 103.100  33.425  1.00  0.00     0.186 HD
ENDROOT
BRANCH   1   9
HETATM    9  O1  UNL     1      34.083 105.014  32.075  1.00  0.00    -0.333 OA
BRANCH   9  10
HETATM   10  C4  UNL     1      35.033 105.958  32.514  1.00  0.00     0.219 C
BRANCH  10  11
HETATM   11  C3  UNL     1      34.372 107.218  33.032  1.00  0.00     0.180 C
HETATM   12  C15 UNL     1      32.891 107.107  32.750  1.00  0.00     0.044 C
HETATM   13  C16 UNL     1      32.640 107.978  31.539  1.00  0.00     0.003 C
HETATM   14  C17 UNL     1      33.663 109.101  31.711  1.00  0.00     0.003 C
HETATM   15  C18 UNL     1      34.897 108.379  32.226  1.00  0.00     0.044 C
BRANCH  11  16
HETATM   16  N1  UNL     1      34.560 107.377  34.439  1.00  0.00     0.091 N
HETATM   17  C1  UNL     1      33.347 107.499  35.179  1.00  0.00     0.310 C
HETATM   18  C2  UNL     1      35.551 108.349  34.802  1.00  0.00     0.310 C
ENDBRANCH  11  16
ENDBRANCH  10  11
ENDBRANCH   9  10
ENDBRANCH   1   9
BRANCH   6  19
HETATM   19  N3  UNL     1      33.439 100.689  33.697  1.00  0.00    -0.221 N
ATOM     20  H3  UNL     1      33.806 100.502  34.630  1.00  0.00     0.178 HD
BRANCH  19  21
HETATM   21  C9  UNL     1      32.203 100.044  33.328  1.00  0.00     0.099 C
HETATM   22  C10 UNL     1      32.088  99.835  31.840  1.00  0.00     0.026 C
HETATM   23  C11 UNL     1      30.776  99.067  31.620  1.00  0.00     0.002 C
HETATM   24  C12 UNL     1      29.594  99.950  31.959  1.00  0.00     0.000 C
HETATM   25  C13 UNL     1      30.021 101.163  32.758  1.00  0.00     0.002 C
HETATM   26  C14 UNL     1      31.034 100.836  33.803  1.00  0.00     0.026 C
ENDBRANCH  19  21
ENDBRANCH   6  19
TORSDOF 6
ENDMDL