MODEL 2
REMARK VINA RESULT: -5.994347251      1.963      5.093
REMARK  5 active torsions:
REMARK  status: ('A' for Active; 'I' for Inactive)
REMARK    1  A    between atoms: C2_2  and  C4_4
REMARK    2  A    between atoms: C4_4  and  C5_5
REMARK    3  A    between atoms: C5_5  and  N1_6
REMARK    4  A    between atoms: C12_15  and  C13_16
REMARK       I    between atoms: C13_16  and  N2_18
REMARK    5  A    between atoms: N2_18  and  C14_20
ROOT
HETATM    1  N1  UNL     1      33.760  98.021  33.173  1.00  0.00    -0.253 N
HETATM    2  O1  UNL     1      34.929  98.167  33.734  1.00  0.00    -0.239 OA
HETATM    3  C6  UNL     1      35.313  99.406  34.059  1.00  0.00     0.183 C
HETATM    4  C7  UNL     1      36.265  99.286  35.297  1.00  0.00     0.081 C
HETATM    5  C8  UNL     1      36.220 100.081  33.013  1.00  0.00     0.081 C
HETATM    6  O2  UNL     1      34.356 100.290  34.413  1.00  0.00    -0.341 OA
HETATM    7  C9  UNL     1      33.083 100.128  34.033  1.00  0.00     0.089 C
HETATM    8  C10 UNL     1      32.262  99.627  35.196  1.00  0.00     0.048 C
HETATM    9  C11 UNL     1      32.549 101.462  33.523  1.00  0.00     0.048 C
HETATM   10  C12 UNL     1      32.979  99.122  32.844  1.00  0.00     0.239 C
ENDROOT
BRANCH  10  11
HETATM   11  C13 UNL     1      31.582  98.985  32.473  1.00  0.00     0.246 C
HETATM   12  O3  UNL     1      30.884  98.139  33.162  1.00  0.00    -0.271 OA
HETATM   13  N2  UNL     1      30.846  99.630  31.464  1.00  0.00    -0.355 N
ATOM     14  H2  UNL     1      31.319 100.309  30.866  1.00  0.00     0.162 HD
BRANCH  13  15
HETATM   15  C14 UNL     1      29.416  99.359  31.242  1.00  0.00     0.084 C
HETATM   16  C15 UNL     1      28.554 100.597  31.223  1.00  0.00     0.025 C
HETATM   17  C16 UNL     1      27.784  99.958  30.083  1.00  0.00     0.004 C
HETATM   18  C17 UNL     1      29.034  99.118  29.813  1.00  0.00     0.025 C
ENDBRANCH  13  15
ENDBRANCH  10  11
BRANCH   1  19
HETATM   19  C5  UNL     1      33.334  96.698  32.987  1.00  0.00     0.091 C
BRANCH  19  20
HETATM   20  C4  UNL     1      33.780  95.630  33.914  1.00  0.00     0.050 C
BRANCH  20  21
HETATM   21  C2  UNL     1      33.512  95.811  35.367  1.00  0.00    -0.018 C
HETATM   22  C1  UNL     1      34.260  94.853  36.264  1.00  0.00     0.010 C
HETATM   23  C3  UNL     1      32.045  95.907  35.688  1.00  0.00     0.010 C
ENDBRANCH  20  21
ENDBRANCH  19  20
ENDBRANCH   1  19
TORSDOF 5
ENDMDL