MODEL 2
REMARK VINA RESULT: -5.758166281      2.993      4.473
REMARK  5 active torsions:
REMARK  status: ('A' for Active; 'I' for Inactive)
REMARK    1  A    between atoms: C2_2  and  N1_3
REMARK    2  A    between atoms: N1_3  and  C3_4
REMARK    3  A    between atoms: N1_3  and  C10_17
REMARK    4  A    between atoms: N5_20  and  C13_21
REMARK    5  A    between atoms: C13_21  and  C14_22
ROOT
HETATM    1  C3  UNL     1      32.481  99.188  34.584  1.00  0.00     0.062 A
HETATM    2  C4  UNL     1      32.822 100.103  35.558  1.00  0.00     0.049 A
HETATM    3  C5  UNL     1      32.234 101.350  35.675  1.00  0.00     0.092 A
HETATM    4  N2  UNL     1      31.280 101.671  34.785  1.00  0.00    -0.350 N
ATOM      5  H2  UNL     1      30.834 102.585  34.854  1.00  0.00     0.166 HD
HETATM    6  C6  UNL     1      30.895 100.845  33.819  1.00  0.00     0.136 A
HETATM    7  N3  UNL     1      29.984 100.972  32.848  1.00  0.00    -0.330 N
ATOM      8  H3  UNL     1      29.396 101.792  32.694  1.00  0.00     0.168 HD
HETATM    9  C7  UNL     1      29.961  99.843  32.101  1.00  0.00     0.079 A
HETATM   10  C8  UNL     1      29.103  99.555  30.924  1.00  0.00     0.089 C
HETATM   11  N4  UNL     1      30.884  99.033  32.647  1.00  0.00    -0.341 N
ATOM     12  H4  UNL     1      31.101  98.099  32.300  1.00  0.00     0.167 HD
HETATM   13  C9  UNL     1      31.483  99.596  33.699  1.00  0.00     0.105 A
ENDROOT
BRANCH   1  14
HETATM   14  N1  UNL     1      33.085  97.930  34.481  1.00  0.00    -0.374 N
BRANCH  14  15
HETATM   15  C2  UNL     1      33.431  97.415  33.146  1.00  0.00     0.119 C
HETATM   16  C1  UNL     1      32.851  96.016  33.069  1.00  0.00     0.026 C
ENDBRANCH  14  15
BRANCH  14  17
HETATM   17  C10 UNL     1      33.428  97.043  35.567  1.00  0.00     0.088 C
HETATM   18  C11 UNL     1      34.677  97.488  36.292  1.00  0.00     0.055 C
HETATM   19  C12 UNL     1      34.542  97.223  37.795  1.00  0.00     0.274 C
HETATM   20  N5  UNL     1      34.078  95.889  38.047  1.00  0.00     0.088 N
HETATM   21  C17 UNL     1      32.784  95.631  37.433  1.00  0.00     0.274 C
HETATM   22  C18 UNL     1      32.341  96.811  36.560  1.00  0.00     0.055 C
BRANCH  20  23
HETATM   23  C13 UNL     1      35.038  94.883  37.727  1.00  0.00     0.276 C
BRANCH  23  24
HETATM   24  C14 UNL     1      34.559  93.797  36.822  1.00  0.00     0.006 C
HETATM   25  C15 UNL     1      34.801  92.468  37.528  1.00  0.00     0.011 C
HETATM   26  C16 UNL     1      35.293  93.777  35.501  1.00  0.00     0.011 C
ENDBRANCH  23  24
ENDBRANCH  20  23
ENDBRANCH  14  17
ENDBRANCH   1  14
TORSDOF 5
ENDMDL