MODEL 4
REMARK VINA RESULT: -5.719454892      3.103      6.031
REMARK  6 active torsions:
REMARK  status: ('A' for Active; 'I' for Inactive)
REMARK    1  A    between atoms: O1_2  and  C2_3
REMARK    2  A    between atoms: C7_8  and  O2_9
REMARK    3  A    between atoms: C9_11  and  C10_12
REMARK    4  A    between atoms: C10_12  and  C11_13
REMARK    5  A    between atoms: C11_13  and  N1_14
REMARK    6  A    between atoms: C18_21  and  O3_22
ROOT
HETATM    1  C2  UNL     1      33.711  95.613  38.610  1.00  0.00     0.102 A
HETATM    2  C3  UNL     1      34.289  95.210  37.443  1.00  0.00     0.047 A
HETATM    3  C4  UNL     1      34.052  95.804  36.192  1.00  0.00    -0.046 A
HETATM    4  C5  UNL     1      33.172  96.864  36.157  1.00  0.00    -0.045 A
HETATM    5  C6  UNL     1      32.580  97.279  37.327  1.00  0.00     0.047 A
HETATM    6  C7  UNL     1      32.839  96.673  38.526  1.00  0.00     0.102 A
HETATM    7  C9  UNL     1      32.757  97.658  34.979  1.00  0.00     0.021 C
HETATM    8  C16 UNL     1      33.836  97.718  33.959  1.00  0.00     0.012 C
HETATM    9  C17 UNL     1      34.016  96.360  33.289  1.00  0.00     0.033 C
HETATM   10  C18 UNL     1      35.265  95.787  33.974  1.00  0.00     0.122 C
HETATM   11  C19 UNL     1      34.841  95.055  35.178  1.00  0.00     0.070 C
ENDROOT
BRANCH   7  12
HETATM   12  C10 UNL     1      32.199  99.006  35.247  1.00  0.00     0.039 C
BRANCH  12  13
HETATM   13  C11 UNL     1      32.044  99.967  34.151  1.00  0.00     0.273 C
BRANCH  13  14
HETATM   14  N1  UNL     1      30.747 100.001  33.499  1.00  0.00     0.088 N
HETATM   15  C12 UNL     1      30.998  99.480  32.139  1.00  0.00     0.272 C
HETATM   16  C13 UNL     1      29.624  99.711  31.512  1.00  0.00     0.032 C
HETATM   17  C14 UNL     1      29.262 101.071  32.107  1.00  0.00     0.032 C
HETATM   18  C15 UNL     1      30.362 101.355  33.137  1.00  0.00     0.272 C
ENDBRANCH  13  14
ENDBRANCH  12  13
ENDBRANCH   7  12
BRANCH   6  19
HETATM   19  O2  UNL     1      32.232  97.105  39.701  1.00  0.00    -0.353 OA
HETATM   20  C8  UNL     1      32.596  98.349  40.237  1.00  0.00     0.210 C
ENDBRANCH   6  19
BRANCH  10  21
HETATM   21  O3  UNL     1      35.849  94.894  33.091  1.00  0.00    -0.395 OA
ATOM     22  H3  UNL     1      35.166  94.586  32.506  1.00  0.00     0.210 HD
ENDBRANCH  10  21
BRANCH   1  23
HETATM   23  O1  UNL     1      33.982  94.985  39.841  1.00  0.00    -0.353 OA
HETATM   24  C1  UNL     1      34.397  93.634  39.852  1.00  0.00     0.210 C
ENDBRANCH   1  23
TORSDOF 6
ENDMDL