MODEL 5
REMARK VINA RESULT: -5.508185186      2.013      4.784
REMARK  5 active torsions:
REMARK  status: ('A' for Active; 'I' for Inactive)
REMARK    1  A    between atoms: C4_4  and  C5_5
REMARK    2  A    between atoms: N1_8  and  C8_9
REMARK    3  A    between atoms: C8_9  and  C9_10
REMARK    4  A    between atoms: C9_10  and  O1_11
REMARK    5  A    between atoms: O1_11  and  C10_12
ROOT
HETATM    1  C5  UNL     1      32.985  98.491  35.591  1.00  0.00     0.024 C
HETATM    2  C6  UNL     1      34.421  98.896  35.604  1.00  0.00     0.029 C
HETATM    3  C7  UNL     1      34.956  98.545  37.005  1.00  0.00     0.122 C
HETATM    4  N1  UNL     1      34.145  97.553  37.608  1.00  0.00    -0.391 N
HETATM    5  C15 UNL     1      32.843  97.976  38.009  1.00  0.00     0.122 C
HETATM    6  C16 UNL     1      32.383  98.946  36.906  1.00  0.00     0.029 C
ENDROOT
BRANCH   4   7
HETATM    7  C8  UNL     1      34.763  96.520  38.311  1.00  0.00     0.084 C
BRANCH   7   8
HETATM    8  C9  UNL     1      34.830  95.175  37.623  1.00  0.00     0.212 C
BRANCH   8   9
HETATM    9  O1  UNL     1      34.055  95.206  36.506  1.00  0.00    -0.379 OA
BRANCH   9  10
HETATM   10  C10 UNL     1      34.582  94.655  35.379  1.00  0.00     0.139 C
HETATM   11  C11 UNL     1      35.439  93.463  35.836  1.00  0.00     0.035 C
HETATM   12  C12 UNL     1      35.770  92.684  34.578  1.00  0.00     0.022 C
HETATM   13  C13 UNL     1      36.576  93.577  33.659  1.00  0.00     0.114 C
HETATM   14  N2  UNL     1      35.932  94.823  33.396  1.00  0.00    -0.419 N
HETATM   15  C14 UNL     1      35.437  95.526  34.537  1.00  0.00     0.145 C
ATOM     16  H2  UNL     1      35.831  95.190  32.450  1.00  0.00     0.153 HD
ENDBRANCH   9  10
ENDBRANCH   8   9
ENDBRANCH   7   8
ENDBRANCH   4   7
BRANCH   1  17
HETATM   17  C4  UNL     1      32.190  99.004  34.493  1.00  0.00    -0.030 A
HETATM   18  C3  UNL     1      31.500 100.221  34.588  1.00  0.00     0.034 A
HETATM   19  C2  UNL     1      30.850 100.442  33.419  1.00  0.00     0.008 A
HETATM   20  C1  UNL     1      29.990 101.596  33.039  1.00  0.00     0.068 C
HETATM   21  N3  UNL     1      31.131  99.386  32.618  1.00  0.00    -0.358 N
HETATM   22  C17 UNL     1      31.935  98.514  33.250  1.00  0.00     0.014 A
HETATM   23  C19 UNL     1      30.650  99.177  31.252  1.00  0.00     0.156 C
HETATM   24  C18 UNL     1      32.484  97.234  32.737  1.00  0.00     0.069 C
ENDBRANCH   1  17
TORSDOF 5
ENDMDL