MODEL 4
REMARK VINA RESULT: -6.233417514      2.780      4.491
REMARK  5 active torsions:
REMARK  status: ('A' for Active; 'I' for Inactive)
REMARK    1  A    between atoms: C2_2  and  C4_4
REMARK    2  A    between atoms: C4_4  and  N1_5
REMARK    3  A    between atoms: C10_15  and  C11_16
REMARK    4  A    between atoms: C11_16  and  O1_17
REMARK    5  A    between atoms: O1_17  and  C12_18
ROOT
HETATM    1  N1  UNL     1      32.708  96.291  37.457  1.00  0.00    -0.351 N
HETATM    2  C5  UNL     1      32.850  97.160  38.605  1.00  0.00     0.132 C
HETATM    3  C6  UNL     1      31.839  98.313  38.549  1.00  0.00     0.079 C
HETATM    4  C7  UNL     1      32.403  99.341  37.657  1.00  0.00     0.035 A
HETATM    5  N2  UNL     1      32.536 100.647  37.978  1.00  0.00    -0.354 N
ATOM      6  H2  UNL     1      32.269 101.082  38.861  1.00  0.00     0.166 HD
HETATM    7  C8  UNL     1      33.083 101.266  36.920  1.00  0.00     0.180 A
HETATM    8  N3  UNL     1      33.284 100.366  35.968  1.00  0.00    -0.353 N
ATOM      9  H3  UNL     1      33.690 100.567  35.054  1.00  0.00     0.166 HD
HETATM   10  C9  UNL     1      32.876  99.151  36.380  1.00  0.00     0.048 A
HETATM   11  C10 UNL     1      33.000  97.987  35.491  1.00  0.00     0.153 C
HETATM   12  C18 UNL     1      32.573  96.716  36.112  1.00  0.00     0.232 C
HETATM   13  O2  UNL     1      32.002  95.860  35.355  1.00  0.00    -0.272 OA
ENDROOT
BRANCH  11  14
HETATM   14  C11 UNL     1      32.238  98.277  34.223  1.00  0.00     0.188 C
BRANCH  14  15
HETATM   15  O1  UNL     1      32.910  99.094  33.351  1.00  0.00    -0.385 OA
BRANCH  15  16
HETATM   16  C12 UNL     1      31.966  99.768  32.578  1.00  0.00     0.121 C
HETATM   17  C13 UNL     1      31.761 101.189  33.113  1.00  0.00     0.032 C
HETATM   18  C14 UNL     1      30.318 101.384  33.501  1.00  0.00     0.002 C
HETATM   19  C15 UNL     1      29.483 101.222  32.263  1.00  0.00     0.000 C
HETATM   20  C16 UNL     1      29.661  99.819  31.745  1.00  0.00     0.002 C
HETATM   21  C17 UNL     1      30.646  99.018  32.542  1.00  0.00     0.032 C
ENDBRANCH  15  16
ENDBRANCH  14  15
ENDBRANCH  11  14
BRANCH   1  22
HETATM   22  C4  UNL     1      32.695  94.867  37.640  1.00  0.00     0.129 C
BRANCH  22  23
HETATM   23  C2  UNL     1      34.006  94.270  38.003  1.00  0.00    -0.005 C
HETATM   24  C1  UNL     1      34.820  93.812  36.810  1.00  0.00     0.011 C
HETATM   25  C3  UNL     1      33.708  92.999  38.812  1.00  0.00     0.011 C
ENDBRANCH  22  23
ENDBRANCH   1  22
TORSDOF 5
ENDMDL