MODEL 2
REMARK VINA RESULT: -5.671478415      1.926      3.946
REMARK  7 active torsions:
REMARK  status: ('A' for Active; 'I' for Inactive)
REMARK    1  A    between atoms: C2_2  and  C3_3
REMARK    2  A    between atoms: C3_3  and  C4_4
REMARK    3  A    between atoms: C3_3  and  N1_7
REMARK    4  A    between atoms: C4_4  and  O1_5
REMARK    5  A    between atoms: N1_7  and  C5_9
REMARK    6  A    between atoms: C5_9  and  C6_10
REMARK    7  A    between atoms: C5_9  and  C14_21
ROOT
HETATM    1  C5  UNL     1      -8.916  14.034  28.735  1.00  0.00     0.041 C
ENDROOT
BRANCH   1   2
HETATM    2  N1  UNL     1      -9.874  14.854  29.358  1.00  0.00    -0.383 N
ATOM      3  H1  UNL     1     -10.660  15.159  28.784  1.00  0.00     0.160 HD
BRANCH   2   4
HETATM    4  C3  UNL     1      -9.855  15.284  30.656  1.00  0.00     0.105 C
BRANCH   4   5
HETATM    5  C2  UNL     1      -8.564  14.690  31.308  1.00  0.00     0.023 C
HETATM    6  C1  UNL     1      -8.952  13.823  32.458  1.00  0.00     0.007 C
ENDBRANCH   4   5
BRANCH   4   7
HETATM    7  C4  UNL     1     -10.947  14.726  31.574  1.00  0.00     0.189 C
BRANCH   7   8
HETATM    8  O1  UNL     1     -12.117  14.433  30.920  1.00  0.00    -0.399 OA
ATOM      9  H1  UNL     1     -12.544  13.647  31.240  1.00  0.00     0.209 HD
ENDBRANCH   7   8
ENDBRANCH   4   7
ENDBRANCH   2   4
ENDBRANCH   1   2
BRANCH   1  10
HETATM   10  C6  UNL     1      -8.219  14.730  27.633  1.00  0.00     0.002 A
HETATM   11  C7  UNL     1      -8.789  15.136  26.495  1.00  0.00     0.023 A
HETATM   12  C8  UNL     1      -7.848  15.791  25.589  1.00  0.00     0.138 A
HETATM   13  C9  UNL     1      -8.226  17.216  25.348  1.00  0.00     0.050 C
HETATM   14  C10 UNL     1      -7.808  15.030  24.280  1.00  0.00     0.050 C
HETATM   15  N2  UNL     1      -6.569  15.740  26.267  1.00  0.00    -0.051 N
HETATM   16  C11 UNL     1      -6.772  15.125  27.533  1.00  0.00     0.148 A
ATOM     17  H22 UNL     1      -5.847  15.279  25.714  1.00  0.00     0.279 HD
ATOM     18  H21 UNL     1      -6.122  16.654  26.338  1.00  0.00     0.279 HD
HETATM   19  C12 UNL     1      -6.491  16.179  28.637  1.00  0.00     0.051 C
HETATM   20  C13 UNL     1      -5.778  14.060  27.759  1.00  0.00     0.051 C
ENDBRANCH   1  10
BRANCH   1  21
HETATM   21  C14 UNL     1      -9.034  12.577  28.746  1.00  0.00    -0.023 C
HETATM   22  C15 UNL     1     -10.464  12.055  28.988  1.00  0.00     0.068 C
HETATM   23  C16 UNL     1     -10.270  11.127  30.177  1.00  0.00     0.276 C
HETATM   24  N3  UNL     1      -8.897  10.712  30.189  1.00  0.00     0.088 N
HETATM   25  C17 UNL     1      -8.740   9.347  29.720  1.00  0.00     0.310 C
HETATM   26  C18 UNL     1      -8.120  11.665  29.409  1.00  0.00     0.308 C
ENDBRANCH   1  21
TORSDOF 7
ENDMDL