MODEL 4
REMARK VINA RESULT: -5.538518456      4.575      6.276
REMARK  8 active torsions:
REMARK  status: ('A' for Active; 'I' for Inactive)
REMARK    1  A    between atoms: C2_2  and  C3_3
REMARK    2  A    between atoms: C6_8  and  C7_9
REMARK    3  A    between atoms: C7_9  and  N2_10
REMARK    4  A    between atoms: C10_13  and  O1_14
REMARK    5  A    between atoms: O1_14  and  C11_15
REMARK    6  A    between atoms: C11_15  and  C12_16
REMARK    7  A    between atoms: C12_16  and  N3_18
REMARK    8  A    between atoms: C15_23  and  O2_24
ROOT
HETATM    1  N2  UNL     1      -7.442  15.581  26.155  1.00  0.00    -0.360 N
HETATM    2  C8  UNL     1      -7.875  14.443  25.330  1.00  0.00     0.127 C
HETATM    3  C9  UNL     1      -8.041  14.849  23.906  1.00  0.00     0.052 C
HETATM    4  C10 UNL     1      -8.947  15.993  23.754  1.00  0.00     0.130 C
HETATM    5  C14 UNL     1      -8.434  17.213  24.671  1.00  0.00     0.115 C
HETATM    6  C15 UNL     1      -8.380  16.580  26.055  1.00  0.00     0.116 C
ENDROOT
BRANCH   1   7
HETATM    7  C7  UNL     1      -6.029  15.734  26.090  1.00  0.00     0.182 C
BRANCH   7   8
HETATM    8  C6  UNL     1      -5.444  14.764  27.091  1.00  0.00     0.034 A
HETATM    9  N1  UNL     1      -6.028  13.870  27.847  1.00  0.00    -0.361 N
HETATM   10  C4  UNL     1      -5.117  13.170  28.576  1.00  0.00     0.012 A
ATOM     11  H1  UNL     1      -7.036  13.718  27.885  1.00  0.00     0.165 HD
HETATM   12  C3  UNL     1      -3.888  13.656  28.284  1.00  0.00    -0.028 A
HETATM   13  C5  UNL     1      -5.453  12.017  29.457  1.00  0.00     0.068 C
HETATM   14  C16 UNL     1      -4.079  14.654  27.358  1.00  0.00    -0.030 A
HETATM   15  C17 UNL     1      -3.096  15.457  26.582  1.00  0.00     0.051 C
BRANCH  12  16
HETATM   16  C2  UNL     1      -2.559  13.177  28.728  1.00  0.00     0.036 C
HETATM   17  C1  UNL     1      -2.018  12.094  27.834  1.00  0.00     0.010 C
ENDBRANCH  12  16
ENDBRANCH   7   8
ENDBRANCH   1   7
BRANCH   6  18
HETATM   18  O2  UNL     1      -8.502  17.520  27.033  1.00  0.00    -0.349 OA
ATOM     19  H2  UNL     1      -8.738  18.415  26.818  1.00  0.00     0.219 HD
ENDBRANCH   6  18
BRANCH   4  20
HETATM   20  O1  UNL     1      -8.938  16.550  22.515  1.00  0.00    -0.383 OA
BRANCH  20  21
HETATM   21  C11 UNL     1      -8.552  15.665  21.546  1.00  0.00     0.200 C
BRANCH  21  22
HETATM   22  C12 UNL     1      -9.277  15.894  20.253  1.00  0.00     0.203 C
HETATM   23  C13 UNL     1      -8.436  16.987  19.518  1.00  0.00     0.042 C
BRANCH  22  24
HETATM   24  N3  UNL     1      -9.117  14.688  19.417  1.00  0.00    -0.073 N
ATOM     25  H33 UNL     1      -8.726  14.894  18.499  1.00  0.00     0.274 HD
ATOM     26  H32 UNL     1      -8.372  14.075  19.749  1.00  0.00     0.274 HD
ATOM     27  H31 UNL     1     -10.020  14.217  19.364  1.00  0.00     0.274 HD
ENDBRANCH  22  24
ENDBRANCH  21  22
ENDBRANCH  20  21
ENDBRANCH   4  20
TORSDOF 8
ENDMDL