MODEL 3
REMARK VINA RESULT: -5.283859951      2.752      4.874
REMARK  8 active torsions:
REMARK  status: ('A' for Active; 'I' for Inactive)
REMARK    1  A    between atoms: C2_2  and  N1_5
REMARK    2  A    between atoms: N1_5  and  C5_7
REMARK    3  A    between atoms: C5_7  and  C6_8
REMARK    4  A    between atoms: C6_8  and  O1_9
REMARK    5  A    between atoms: C6_8  and  C7_11
REMARK    6  A    between atoms: C7_11  and  N2_12
REMARK    7  A    between atoms: C12_17  and  C13_18
REMARK       I    between atoms: C13_18  and  N3_20
REMARK    8  A    between atoms: N3_20  and  C14_22
ROOT
HETATM    1  N2  UNL     1      -7.537  14.721  25.671  1.00  0.00    -0.276 NA
HETATM    2  C8  UNL     1      -7.861  15.023  24.245  1.00  0.00     0.096 C
HETATM    3  C9  UNL     1      -8.710  16.238  24.105  1.00  0.00     0.015 C
HETATM    4  C10 UNL     1      -8.342  17.422  24.920  1.00  0.00     0.007 C
HETATM    5  C11 UNL     1      -7.861  17.062  26.310  1.00  0.00     0.057 C
HETATM    6  C12 UNL     1      -6.894  15.912  26.123  1.00  0.00     0.056 C
ENDROOT
BRANCH   1   7
HETATM    7  C7  UNL     1      -8.872  14.495  26.232  1.00  0.00     0.161 C
BRANCH   7   8
HETATM    8  C6  UNL     1      -8.982  13.449  27.250  1.00  0.00     0.071 C
BRANCH   8   9
HETATM    9  C5  UNL     1      -8.974  13.895  28.662  1.00  0.00     0.117 C
BRANCH   9  10
HETATM   10  N1  UNL     1      -8.919  15.194  29.085  1.00  0.00    -0.389 N
ATOM     11  H1  UNL     1      -8.485  15.824  28.411  1.00  0.00     0.159 HD
BRANCH  10  12
HETATM   12  C2  UNL     1      -9.327  15.817  30.228  1.00  0.00     0.018 C
HETATM   13  C1  UNL     1     -10.712  15.488  30.688  1.00  0.00     0.037 C
HETATM   14  C3  UNL     1      -9.184  17.343  30.221  1.00  0.00     0.037 C
HETATM   15  C4  UNL     1      -8.369  15.387  31.377  1.00  0.00     0.037 C
ENDBRANCH  10  12
ENDBRANCH   9  10
ENDBRANCH   8   9
BRANCH   8  16
HETATM   16  O1  UNL     1      -9.857  12.404  27.050  1.00  0.00    -0.362 OA
ATOM     17  H1  UNL     1     -10.340  12.193  27.840  1.00  0.00     0.217 HD
ENDBRANCH   8  16
ENDBRANCH   7   8
ENDBRANCH   1   7
BRANCH   6  18
HETATM   18  C13 UNL     1      -5.867  15.783  27.145  1.00  0.00     0.259 C
HETATM   19  O2  UNL     1      -6.164  16.083  28.329  1.00  0.00    -0.267 OA
HETATM   20  N3  UNL     1      -4.555  15.342  26.870  1.00  0.00    -0.352 N
ATOM     21  H3  UNL     1      -4.305  15.097  25.912  1.00  0.00     0.163 HD
BRANCH  20  22
HETATM   22  C14 UNL     1      -3.567  15.229  27.896  1.00  0.00     0.084 C
HETATM   23  C15 UNL     1      -2.179  15.614  27.424  1.00  0.00     0.025 C
HETATM   24  C16 UNL     1      -1.625  14.316  27.996  1.00  0.00     0.004 C
HETATM   25  C17 UNL     1      -3.059  13.805  27.996  1.00  0.00     0.025 C
ENDBRANCH  20  22
ENDBRANCH   6  18
TORSDOF 8
ENDMDL