MODEL 3
REMARK VINA RESULT: -5.055311062      5.557      8.199
REMARK  7 active torsions:
REMARK  status: ('A' for Active; 'I' for Inactive)
REMARK    1  A    between atoms: C5_5  and  N1_6
REMARK       I    between atoms: N1_6  and  C6_8
REMARK    2  A    between atoms: C6_8  and  C7_10
REMARK    3  A    between atoms: C7_10  and  N2_11
REMARK    4  A    between atoms: N2_11  and  C8_13
REMARK    5  A    between atoms: C8_13  and  C9_14
REMARK    6  A    between atoms: C9_14  and  C10_15
REMARK    7  A    between atoms: C10_15  and  N3_16
ROOT
HETATM    1  N1  UNL     1      -4.181  20.468  28.787  1.00  0.00    -0.352 N
ATOM      2  H1  UNL     1      -4.756  20.144  29.565  1.00  0.00     0.163 HD
HETATM    3  C6  UNL     1      -3.890  19.555  27.758  1.00  0.00     0.257 C
HETATM    4  O1  UNL     1      -3.150  20.039  26.816  1.00  0.00    -0.267 OA
ENDROOT
BRANCH   1   5
HETATM    5  C5  UNL     1      -3.714  21.839  28.812  1.00  0.00     0.089 C
HETATM    6  C4  UNL     1      -4.594  22.613  29.764  1.00  0.00     0.055 C
HETATM    7  C2  UNL     1      -4.109  23.994  30.040  1.00  0.00     0.021 C
HETATM    8  C1  UNL     1      -4.677  24.429  31.377  1.00  0.00     0.037 C
HETATM    9  C3  UNL     1      -4.711  24.959  29.008  1.00  0.00     0.037 C
HETATM   10  N4  UNL     1      -2.724  24.198  30.061  1.00  0.00    -0.405 N
HETATM   11  C15 UNL     1      -1.852  23.236  29.538  1.00  0.00     0.021 C
ATOM     12  H4  UNL     1      -2.346  25.056  30.462  1.00  0.00     0.154 HD
HETATM   13  C14 UNL     1      -2.336  21.838  29.396  1.00  0.00     0.055 C
HETATM   14  C16 UNL     1      -0.631  23.171  30.474  1.00  0.00     0.037 C
HETATM   15  C17 UNL     1      -1.253  23.651  28.187  1.00  0.00     0.037 C
ENDBRANCH   1   5
BRANCH   3  16
HETATM   16  C7  UNL     1      -4.331  18.153  27.664  1.00  0.00     0.162 C
BRANCH  16  17
HETATM   17  N2  UNL     1      -5.705  17.944  27.736  1.00  0.00    -0.374 N
ATOM     18  H2  UNL     1      -6.299  18.698  28.081  1.00  0.00     0.164 HD
BRANCH  17  19
HETATM   19  C8  UNL     1      -6.299  16.741  27.354  1.00  0.00     0.062 C
BRANCH  19  20
HETATM   20  C9  UNL     1      -7.786  16.634  27.586  1.00  0.00     0.074 C
BRANCH  20  21
HETATM   21  C10 UNL     1      -8.546  16.165  26.383  1.00  0.00     0.277 C
BRANCH  21  22
HETATM   22  N3  UNL     1      -7.824  16.284  25.156  1.00  0.00     0.088 N
HETATM   23  C11 UNL     1      -8.528  17.142  24.222  1.00  0.00     0.274 C
HETATM   24  C12 UNL     1      -9.079  15.942  23.479  1.00  0.00     0.060 C
HETATM   25  C13 UNL     1      -7.964  15.205  24.198  1.00  0.00     0.274 C
ENDBRANCH  21  22
ENDBRANCH  20  21
ENDBRANCH  19  20
ENDBRANCH  17  19
ENDBRANCH  16  17
ENDBRANCH   3  16
TORSDOF 7
ENDMDL