MODEL 5
REMARK VINA RESULT: -5.695870946      2.013      3.344
REMARK  9 active torsions:
REMARK  status: ('A' for Active; 'I' for Inactive)
REMARK    1  A    between atoms: C5_5  and  C6_6
REMARK    2  A    between atoms: C6_6  and  C7_7
REMARK    3  A    between atoms: C8_8  and  N1_9
REMARK    4  A    between atoms: C12_16  and  C13_17
REMARK    5  A    between atoms: C13_17  and  O2_18
REMARK    6  A    between atoms: C13_17  and  C14_20
REMARK    7  A    between atoms: C14_20  and  O3_21
REMARK    8  A    between atoms: C14_20  and  C15_23
REMARK    9  A    between atoms: C15_23  and  C17_25
ROOT
HETATM    1  C1  UNL     1      -7.837  14.305  24.680  1.00  0.00     0.017 C
HETATM    2  C2  UNL     1      -8.007  15.337  25.297  1.00  0.00    -0.083 C
HETATM    3  C3  UNL     1      -8.201  16.568  26.000  1.00  0.00    -0.013 C
HETATM    4  C4  UNL     1      -8.282  17.830  25.223  1.00  0.00     0.057 C
HETATM    5  C5  UNL     1      -8.309  16.602  27.309  1.00  0.00    -0.011 C
ENDROOT
BRANCH   5   6
HETATM    6  C6  UNL     1      -8.230  15.376  28.080  1.00  0.00     0.036 C
BRANCH   6   7
HETATM    7  C7  UNL     1      -9.347  15.016  28.979  1.00  0.00     0.034 C
HETATM    8  C8  UNL     1      -9.534  15.693  30.253  1.00  0.00     0.259 C
HETATM    9  C10 UNL     1      -9.142  14.719  31.347  1.00  0.00     0.158 C
HETATM   10  O1  UNL     1      -8.610  14.926  32.411  1.00  0.00    -0.296 OA
HETATM   11  C11 UNL     1      -9.573  13.399  30.800  1.00  0.00     0.088 C
HETATM   12  C12 UNL     1      -9.277  13.558  29.338  1.00  0.00     0.031 C
BRANCH   8  13
HETATM   13  N1  UNL     1      -8.873  16.907  30.543  1.00  0.00    -0.068 N
HETATM   14  C9  UNL     1      -9.784  18.039  30.657  1.00  0.00     0.267 C
ATOM     15  H12 UNL     1      -8.298  16.816  31.381  1.00  0.00     0.277 HD
ATOM     16  H11 UNL     1      -8.141  17.095  29.858  1.00  0.00     0.277 HD
ENDBRANCH   8  13
BRANCH  12  17
HETATM   17  C13 UNL     1      -9.965  12.600  28.451  1.00  0.00     0.152 C
BRANCH  17  18
HETATM   18  O2  UNL     1     -11.188  12.194  28.912  1.00  0.00    -0.393 OA
ATOM     19  H2  UNL     1     -11.918  12.690  28.559  1.00  0.00     0.210 HD
ENDBRANCH  17  18
BRANCH  17  20
HETATM   20  C14 UNL     1      -9.186  11.454  27.909  1.00  0.00     0.151 C
BRANCH  20  21
HETATM   21  O3  UNL     1      -8.862  11.617  26.562  1.00  0.00    -0.393 OA
ATOM     22  H3  UNL     1      -8.301  12.368  26.410  1.00  0.00     0.210 HD
ENDBRANCH  20  21
BRANCH  20  23
HETATM   23  C15 UNL     1      -8.008  11.067  28.752  1.00  0.00     0.016 C
HETATM   24  C16 UNL     1      -8.303   9.710  29.419  1.00  0.00     0.013 C
BRANCH  23  25
HETATM   25  C17 UNL     1      -6.682  11.032  28.067  1.00  0.00    -0.016 C
HETATM   26  C18 UNL     1      -6.007  12.376  28.432  1.00  0.00     0.010 C
HETATM   27  C19 UNL     1      -5.713  10.006  28.569  1.00  0.00     0.010 C
ENDBRANCH  23  25
ENDBRANCH  20  23
ENDBRANCH  17  20
ENDBRANCH  12  17
ENDBRANCH   6   7
ENDBRANCH   5   6
TORSDOF 9
ENDMDL