MODEL 2
REMARK VINA RESULT: -5.703619334      1.023      1.239
REMARK  6 active torsions:
REMARK  status: ('A' for Active; 'I' for Inactive)
REMARK    1  A    between atoms: C7_11  and  C8_12
REMARK    2  A    between atoms: C8_12  and  N3_13
REMARK    3  A    between atoms: C13_21  and  C14_22
REMARK    4  A    between atoms: C14_22  and  C15_23
REMARK    5  A    between atoms: C15_23  and  N5_24
REMARK    6  A    between atoms: N5_24  and  C16_27
ROOT
HETATM    1  C1  UNL     1      -8.251  17.476  24.828  1.00  0.00     0.045 C
HETATM    2  C2  UNL     1      -8.198  16.474  25.689  1.00  0.00     0.050 A
HETATM    3  N1  UNL     1      -7.972  15.099  25.407  1.00  0.00    -0.358 N
ATOM      4  H1  UNL     1      -7.817  14.699  24.482  1.00  0.00     0.166 HD
HETATM    5  C3  UNL     1      -7.994  14.444  26.517  1.00  0.00     0.019 A
HETATM    6  C4  UNL     1      -7.798  12.983  26.641  1.00  0.00     0.069 C
HETATM    7  C5  UNL     1      -8.241  15.333  27.651  1.00  0.00     0.023 A
HETATM    8  C6  UNL     1      -8.365  16.593  27.111  1.00  0.00     0.071 A
HETATM    9  N2  UNL     1      -8.595  17.450  28.141  1.00  0.00    -0.355 N
ATOM     10  H2  UNL     1      -8.728  18.456  28.031  1.00  0.00     0.166 HD
HETATM   11  C7  UNL     1      -8.626  16.814  29.313  1.00  0.00     0.045 A
HETATM   12  C13 UNL     1      -8.402  15.466  29.013  1.00  0.00    -0.018 A
ENDROOT
BRANCH  11  13
HETATM   13  C8  UNL     1      -8.864  17.386  30.653  1.00  0.00     0.330 C
BRANCH  13  14
HETATM   14  N3  UNL     1     -10.259  17.207  31.011  1.00  0.00     0.097 N
HETATM   15  C9  UNL     1     -10.250  16.687  32.383  1.00  0.00     0.300 C
HETATM   16  C10 UNL     1     -11.610  16.733  33.016  1.00  0.00     0.262 C
HETATM   17  N4  UNL     1     -12.170  18.072  33.018  1.00  0.00    -0.072 N
HETATM   18  C11 UNL     1     -11.247  19.004  32.392  1.00  0.00     0.262 C
ATOM     19  H42 UNL     1     -13.092  18.100  32.584  1.00  0.00     0.277 HD
ATOM     20  H41 UNL     1     -12.436  18.371  33.956  1.00  0.00     0.277 HD
HETATM   21  C12 UNL     1     -10.956  18.495  30.998  1.00  0.00     0.300 C
ENDBRANCH  13  14
ENDBRANCH  11  13
BRANCH  12  22
HETATM   22  C14 UNL     1      -8.342  14.363  29.971  1.00  0.00     0.069 C
BRANCH  22  23
HETATM   23  C15 UNL     1      -9.671  13.673  30.209  1.00  0.00     0.237 C
BRANCH  23  24
HETATM   24  N5  UNL     1      -9.433  12.326  30.687  1.00  0.00    -0.071 N
ATOM     25  H52 UNL     1      -8.437  12.169  30.848  1.00  0.00     0.277 HD
ATOM     26  H51 UNL     1      -9.777  12.213  31.640  1.00  0.00     0.277 HD
BRANCH  24  27
HETATM   27  C16 UNL     1      -9.974  11.321  29.830  1.00  0.00     0.177 C
HETATM   28  C17 UNL     1      -8.861  10.497  29.223  1.00  0.00     0.039 C
HETATM   29  C18 UNL     1     -10.694  12.022  28.680  1.00  0.00     0.039 C
ENDBRANCH  24  27
ENDBRANCH  23  24
ENDBRANCH  22  23
ENDBRANCH  12  22
TORSDOF 6
ENDMDL