MODEL 2
REMARK VINA RESULT: -6.236286919      4.874      6.987
REMARK  6 active torsions:
REMARK  status: ('A' for Active; 'I' for Inactive)
REMARK    1  A    between atoms: C2_2  and  N1_4
REMARK       I    between atoms: C4_6  and  N2_7
REMARK       I    between atoms: C4_6  and  N4_18
REMARK    2  A    between atoms: N2_7  and  C5_9
REMARK    3  A    between atoms: C5_9  and  C6_10
REMARK    4  A    between atoms: C6_10  and  C7_11
REMARK    5  A    between atoms: C7_11  and  N3_12
REMARK    6  A    between atoms: N4_18  and  C12_20
ROOT
HETATM    1  N1  UNL     1      -4.991  14.624  27.428  1.00  0.00    -0.223 N
ATOM      2  H1  UNL     1      -5.355  13.674  27.496  1.00  0.00     0.178 HD
HETATM    3  C4  UNL     1      -5.838  15.554  27.449  1.00  0.00     0.670 C
HETATM    4  N2  UNL     1      -5.507  16.926  27.365  1.00  0.00    -0.227 N
ATOM      5  H2  UNL     1      -5.192  17.328  26.483  1.00  0.00     0.177 HD
HETATM    6  N4  UNL     1      -7.243  15.261  27.558  1.00  0.00    -0.222 N
ATOM      7  H4  UNL     1      -7.632  14.810  28.387  1.00  0.00     0.178 HD
ENDROOT
BRANCH   1   8
HETATM    8  C2  UNL     1      -3.572  14.756  27.319  1.00  0.00     0.091 C
HETATM    9  C1  UNL     1      -2.945  13.397  27.581  1.00  0.00     0.032 C
HETATM   10  C3  UNL     1      -3.163  15.190  25.902  1.00  0.00     0.032 C
ENDBRANCH   1   8
BRANCH   4  11
HETATM   11  C5  UNL     1      -5.622  17.755  28.548  1.00  0.00     0.140 C
BRANCH  11  12
HETATM   12  C6  UNL     1      -4.427  18.635  28.785  1.00  0.00     0.050 C
BRANCH  12  13
HETATM   13  C7  UNL     1      -4.298  19.634  27.698  1.00  0.00     0.274 C
BRANCH  13  14
HETATM   14  N3  UNL     1      -3.146  20.465  27.766  1.00  0.00     0.092 N
HETATM   15  C8  UNL     1      -1.910  19.888  28.118  1.00  0.00     0.298 C
HETATM   16  C9  UNL     1      -0.916  21.049  28.300  1.00  0.00     0.198 C
HETATM   17  O1  UNL     1      -0.765  21.656  27.082  1.00  0.00    -0.388 OA
HETATM   18  C10 UNL     1      -1.929  22.239  26.588  1.00  0.00     0.198 C
HETATM   19  C11 UNL     1      -3.088  21.271  26.597  1.00  0.00     0.298 C
ENDBRANCH  13  14
ENDBRANCH  12  13
ENDBRANCH  11  12
ENDBRANCH   4  11
BRANCH   6  20
HETATM   20  C12 UNL     1      -8.071  15.633  26.443  1.00  0.00     0.099 C
HETATM   21  C13 UNL     1      -8.471  17.091  26.440  1.00  0.00     0.026 C
HETATM   22  C14 UNL     1      -8.129  17.767  25.133  1.00  0.00     0.002 C
HETATM   23  C15 UNL     1      -8.544  17.014  23.921  1.00  0.00     0.000 C
HETATM   24  C16 UNL     1      -8.572  15.512  24.086  1.00  0.00     0.002 C
HETATM   25  C17 UNL     1      -7.513  15.165  25.122  1.00  0.00     0.026 C
ENDBRANCH   6  20
TORSDOF 6
ENDMDL