MODEL 3
REMARK VINA RESULT: -5.558425761      3.997      7.694
REMARK  5 active torsions:
REMARK  status: ('A' for Active; 'I' for Inactive)
REMARK    1  A    between atoms: C2_2  and  C3_3
REMARK    2  A    between atoms: C3_3  and  N1_4
REMARK    3  A    between atoms: C5_6  and  N2_7
REMARK    4  A    between atoms: C14_19  and  C15_20
REMARK    5  A    between atoms: C15_20  and  N4_21
REMARK       I    between atoms: N4_21  and  C16_23
ROOT
HETATM    1  N1  UNL     1      -7.544  15.559  26.646  1.00  0.00    -0.385 N
HETATM    2  C4  UNL     1      -6.220  16.102  26.614  1.00  0.00     0.147 C
HETATM    3  C5  UNL     1      -5.690  16.499  27.954  1.00  0.00     0.099 C
HETATM    4  C12 UNL     1      -6.121  15.579  29.089  1.00  0.00     0.029 C
HETATM    5  C13 UNL     1      -7.553  15.138  28.965  1.00  0.00     0.029 C
HETATM    6  C14 UNL     1      -7.687  14.511  27.580  1.00  0.00     0.101 C
ENDROOT
BRANCH   3   7
HETATM    7  N2  UNL     1      -5.802  17.817  28.377  1.00  0.00    -0.389 N
HETATM    8  C6  UNL     1      -4.839  18.763  28.473  1.00  0.00    -0.006 C
HETATM    9  C7  UNL     1      -4.075  19.267  27.279  1.00  0.00     0.054 C
HETATM   10  C11 UNL     1      -3.881  18.579  29.718  1.00  0.00     0.156 C
HETATM   11  C8  UNL     1      -3.457  20.600  27.325  1.00  0.00     0.026 C
HETATM   12  C9  UNL     1      -2.061  20.820  27.824  1.00  0.00     0.129 C
HETATM   13  N3  UNL     1      -1.865  20.375  29.240  1.00  0.00    -0.360 N
HETATM   14  C10 UNL     1      -2.832  19.478  29.532  1.00  0.00    -0.070 C
ATOM     15  H3  UNL     1      -1.130  20.692  29.872  1.00  0.00     0.168 HD
ATOM     16  H2  UNL     1      -6.738  18.113  28.653  1.00  0.00     0.159 HD
ENDBRANCH   3   7
BRANCH   1  17
HETATM   17  C3  UNL     1      -8.589  16.432  26.365  1.00  0.00     0.058 C
BRANCH  17  18
HETATM   18  C2  UNL     1      -8.135  17.460  25.346  1.00  0.00     0.040 C
HETATM   19  C1  UNL     1      -8.589  17.083  23.947  1.00  0.00     0.010 C
ENDBRANCH  17  18
ENDBRANCH   1  17
BRANCH   6  20
HETATM   20  C15 UNL     1      -8.888  13.658  27.457  1.00  0.00     0.147 C
BRANCH  20  21
HETATM   21  N4  UNL     1      -8.949  12.728  28.560  1.00  0.00    -0.359 N
HETATM   22  C16 UNL     1     -10.098  12.034  28.990  1.00  0.00     0.213 C
HETATM   23  C17 UNL     1     -10.089  11.085  30.131  1.00  0.00     0.117 C
HETATM   24  O1  UNL     1     -11.187  12.210  28.404  1.00  0.00    -0.274 OA
ATOM     25  H4  UNL     1      -8.084  12.559  29.073  1.00  0.00     0.162 HD
ENDBRANCH  20  21
ENDBRANCH   6  20
TORSDOF 5
ENDMDL