MODEL 5
REMARK VINA RESULT: -5.698521297      2.914      4.597
REMARK  6 active torsions:
REMARK  status: ('A' for Active; 'I' for Inactive)
REMARK    1  A    between atoms: C2_2  and  C3_3
REMARK    2  A    between atoms: C6_10  and  C7_11
REMARK    3  A    between atoms: C7_11  and  N3_12
REMARK    4  A    between atoms: N4_17  and  C11_18
REMARK    5  A    between atoms: C11_18  and  C12_19
REMARK    6  A    between atoms: C12_19  and  C13_20
ROOT
HETATM    1  N3  UNL     1      -9.689  13.807  29.477  1.00  0.00    -0.331 N
HETATM    2  C8  UNL     1     -10.186  12.508  29.097  1.00  0.00     0.137 C
HETATM    3  C9  UNL     1      -9.031  11.753  28.422  1.00  0.00     0.123 C
HETATM    4  C10 UNL     1      -8.633  12.495  27.220  1.00  0.00     0.229 C
HETATM    5  O1  UNL     1      -8.427  11.888  26.145  1.00  0.00    -0.273 OA
HETATM    6  N4  UNL     1      -8.490  13.904  27.302  1.00  0.00    -0.270 N
HETATM    7  C16 UNL     1      -9.025  14.559  28.443  1.00  0.00     0.327 C
HETATM    8  O2  UNL     1      -8.949  15.807  28.610  1.00  0.00    -0.247 OA
ENDROOT
BRANCH   1   9
HETATM    9  C7  UNL     1      -9.790  14.322  30.806  1.00  0.00     0.157 C
BRANCH   9  10
HETATM   10  C6  UNL     1     -11.098  14.766  31.307  1.00  0.00     0.131 C
HETATM   11  C3  UNL     1     -11.408  14.775  32.749  1.00  0.00    -0.041 C
HETATM   12  C4  UNL     1     -10.397  15.530  33.550  1.00  0.00     0.093 C
HETATM   13  N1  UNL     1      -9.874  16.652  32.893  1.00  0.00    -0.362 N
HETATM   14  C5  UNL     1     -10.192  16.946  31.561  1.00  0.00     0.176 C
ATOM     15  H1  UNL     1      -9.244  17.273  33.400  1.00  0.00     0.165 HD
HETATM   16  N2  UNL     1     -11.211  16.196  30.907  1.00  0.00    -0.376 N
ATOM     17  H2  UNL     1     -11.907  16.577  30.267  1.00  0.00     0.161 HD
BRANCH  11  18
HETATM   18  C2  UNL     1     -11.907  13.517  33.361  1.00  0.00     0.033 C
HETATM   19  C1  UNL     1     -12.780  13.941  34.560  1.00  0.00     0.010 C
ENDBRANCH  11  18
ENDBRANCH   9  10
ENDBRANCH   1   9
BRANCH   6  20
HETATM   20  C11 UNL     1      -7.842  14.685  26.305  1.00  0.00     0.137 C
BRANCH  20  21
HETATM   21  C12 UNL     1      -8.751  15.161  25.205  1.00  0.00     0.024 C
BRANCH  21  22
HETATM   22  C13 UNL     1      -8.173  16.409  24.575  1.00  0.00    -0.021 C
HETATM   23  C14 UNL     1      -8.877  16.767  23.281  1.00  0.00     0.009 C
HETATM   24  C15 UNL     1      -8.294  17.596  25.501  1.00  0.00     0.009 C
ENDBRANCH  21  22
ENDBRANCH  20  21
ENDBRANCH   6  20
TORSDOF 6
ENDMDL