MODEL 2
REMARK VINA RESULT: -6.215436595      2.457      7.150
REMARK  7 active torsions:
REMARK  status: ('A' for Active; 'I' for Inactive)
REMARK    1  A    between atoms: O1_2  and  C2_3
REMARK    2  A    between atoms: C2_3  and  C3_4
REMARK    3  A    between atoms: C3_4  and  N1_5
REMARK    4  A    between atoms: C3_4  and  C11_21
REMARK       I    between atoms: N1_5  and  C4_7
REMARK    5  A    between atoms: C4_7  and  O3_9
REMARK    6  A    between atoms: O3_9  and  C5_10
REMARK       I    between atoms: N2_13  and  C8_14
REMARK    7  A    between atoms: C11_21  and  C13_23
ROOT
HETATM    1  N1  UNL     1      -7.031  15.812  27.332  1.00  0.00    -0.330 N
ATOM      2  H1  UNL     1      -7.481  16.367  28.059  1.00  0.00     0.165 HD
HETATM    3  C4  UNL     1      -5.610  15.718  27.299  1.00  0.00     0.361 C
HETATM    4  O2  UNL     1      -5.033  15.034  26.401  1.00  0.00    -0.238 OA
ENDROOT
BRANCH   3   5
HETATM    5  O3  UNL     1      -4.789  16.346  28.211  1.00  0.00    -0.298 OA
BRANCH   5   6
HETATM    6  C5  UNL     1      -4.020  17.513  27.893  1.00  0.00     0.136 C
HETATM    7  C6  UNL     1      -4.894  18.690  27.590  1.00  0.00     0.052 C
HETATM    8  C7  UNL     1      -4.298  19.957  28.150  1.00  0.00     0.128 C
HETATM    9  N2  UNL     1      -2.876  20.035  28.021  1.00  0.00    -0.356 N
HETATM   10  C8  UNL     1      -2.229  21.201  27.564  1.00  0.00     0.183 C
HETATM   11  C9  UNL     1      -2.061  18.870  28.371  1.00  0.00     0.128 C
HETATM   12  N3  UNL     1      -0.961  21.327  27.497  1.00  0.00    -0.374 N
HETATM   13  N4  UNL     1      -3.021  22.316  27.150  1.00  0.00    -0.064 NA
ATOM     14  H32 UNL     1      -0.396  20.531  27.792  1.00  0.00     0.158 HD
ATOM     15  H31 UNL     1      -0.493  22.170  27.167  1.00  0.00     0.158 HD
HETATM   16  C10 UNL     1      -3.062  17.874  28.977  1.00  0.00     0.052 C
ENDBRANCH   5   6
ENDBRANCH   3   5
BRANCH   1  17
HETATM   17  C3  UNL     1      -7.844  15.134  26.352  1.00  0.00     0.114 C
BRANCH  17  18
HETATM   18  C2  UNL     1      -8.572  13.999  26.978  1.00  0.00     0.192 C
BRANCH  18  19
HETATM   19  O1  UNL     1      -8.306  12.806  26.305  1.00  0.00    -0.394 OA
HETATM   20  C1  UNL     1      -7.889  11.816  27.192  1.00  0.00     0.201 C
ENDBRANCH  18  19
ENDBRANCH  17  18
BRANCH  17  21
HETATM   21  C11 UNL     1      -8.585  16.019  25.441  1.00  0.00     0.010 C
HETATM   22  C12 UNL     1      -8.100  17.473  25.560  1.00  0.00     0.012 C
BRANCH  21  23
HETATM   23  C13 UNL     1      -8.675  15.714  23.992  1.00  0.00    -0.017 C
HETATM   24  C14 UNL     1      -7.639  14.776  23.454  1.00  0.00     0.010 C
HETATM   25  C15 UNL     1      -8.893  16.919  23.110  1.00  0.00     0.010 C
ENDBRANCH  21  23
ENDBRANCH  17  21
ENDBRANCH   1  17
TORSDOF 7
ENDMDL