MODEL 4
REMARK VINA RESULT: -6.224245141      2.512      4.839
REMARK  19 active torsions:
REMARK  status: ('A' for Active; 'I' for Inactive)
REMARK    1  A    between atoms: O1_1  and  C1_3
REMARK    2  A    between atoms: C1_3  and  N1_4
REMARK    3  A    between atoms: N1_4  and  C2_6
REMARK    4  A    between atoms: C3_7  and  C4_8
REMARK    5  A    between atoms: C4_8  and  O2_9
REMARK    6  A    between atoms: C6_12  and  C7_13
REMARK    7  A    between atoms: C7_13  and  O3_14
REMARK    8  A    between atoms: O3_14  and  C8_15
REMARK    9  A    between atoms: C9_18  and  O6_19
REMARK   10  A    between atoms: C9_18  and  C10_21
REMARK   11  A    between atoms: C10_21  and  O7_22
REMARK   12  A    between atoms: O7_22  and  C11_23
REMARK   13  A    between atoms: C13_26  and  O9_27
REMARK   14  A    between atoms: C14_29  and  O10_30
REMARK   15  A    between atoms: C15_32  and  O11_33
REMARK   16  A    between atoms: C17_36  and  O12_37
REMARK   17  A    between atoms: C18_39  and  O13_40
REMARK   18  A    between atoms: C19_42  and  O14_43
REMARK   19  A    between atoms: C20_45  and  O15_46
ROOT
HETATM    1  C8  UNL     1      32.821  29.856  27.463  1.00  0.00     0.330 C
HETATM    2  O4  UNL     1      32.108  28.855  28.178  1.00  0.00    -0.202 OA
HETATM    3  O5  UNL     1      32.116  27.721  27.475  1.00  0.00    -0.196 OA
HETATM    4  C9  UNL     1      33.418  27.282  27.260  1.00  0.00     0.219 C
HETATM    5  C16 UNL     1      34.310  28.070  28.197  1.00  0.00     0.110 C
HETATM    6  C17 UNL     1      34.286  29.514  27.747  1.00  0.00     0.181 C
ENDROOT
BRANCH   1   7
HETATM    7  O3  UNL     1      32.445  31.042  27.963  1.00  0.00    -0.326 OA
BRANCH   7   8
HETATM    8  C7  UNL     1      31.239  31.583  27.780  1.00  0.00     0.143 C
BRANCH   8   9
HETATM    9  C6  UNL     1      30.692  31.884  26.457  1.00  0.00    -0.024 C
HETATM   10  C5  UNL     1      29.945  30.748  25.772  1.00  0.00     0.083 C
HETATM   11  C4  UNL     1      29.067  31.394  24.715  1.00  0.00     0.109 C
HETATM   12  C20 UNL     1      29.909  32.186  23.777  1.00  0.00     0.188 C
HETATM   13  C19 UNL     1      30.540  33.348  24.520  1.00  0.00     0.183 C
HETATM   14  C18 UNL     1      31.535  32.646  25.502  1.00  0.00     0.180 C
BRANCH  11  15
HETATM   15  C3  UNL     1      28.333  30.332  23.975  1.00  0.00     0.030 C
HETATM   16  C2  UNL     1      27.113  30.484  23.505  1.00  0.00     0.084 C
BRANCH  16  17
HETATM   17  N1  UNL     1      26.389  31.679  23.661  1.00  0.00    -0.378 N
ATOM     18  H1  UNL     1      26.351  32.112  24.584  1.00  0.00     0.161 HD
BRANCH  17  19
HETATM   19  C1  UNL     1      25.690  32.323  22.554  1.00  0.00     0.286 C
BRANCH  19  20
HETATM   20  O1  UNL     1      26.396  33.428  22.114  1.00  0.00    -0.382 OA
ATOM     21  H1  UNL     1      26.023  33.761  21.307  1.00  0.00     0.211 HD
ENDBRANCH  19  20
ENDBRANCH  17  19
ENDBRANCH  16  17
ENDBRANCH  11  15
BRANCH  11  22
HETATM   22  O2  UNL     1      28.120  32.218  25.315  1.00  0.00    -0.383 OA
ATOM     23  H2  UNL     1      27.879  32.884  24.683  1.00  0.00     0.211 HD
ENDBRANCH  11  22
BRANCH  12  24
HETATM   24  O15 UNL     1      29.206  32.626  22.654  1.00  0.00    -0.390 OA
ATOM     25  H15 UNL     1      28.603  33.333  22.848  1.00  0.00     0.210 HD
ENDBRANCH  12  24
BRANCH  13  26
HETATM   26  O14 UNL     1      29.651  34.143  25.189  1.00  0.00    -0.390 OA
ATOM     27  H14 UNL     1      28.900  33.648  25.493  1.00  0.00     0.210 HD
ENDBRANCH  13  26
BRANCH  14  28
HETATM   28  O13 UNL     1      32.288  31.856  24.624  1.00  0.00    -0.388 OA
ATOM     29  H13 UNL     1      33.054  31.449  25.012  1.00  0.00     0.210 HD
ENDBRANCH  14  28
ENDBRANCH   8   9
ENDBRANCH   7   8
ENDBRANCH   1   7
BRANCH   6  30
HETATM   30  O12 UNL     1      34.844  30.371  28.679  1.00  0.00    -0.390 OA
ATOM     31  H12 UNL     1      35.185  31.160  28.275  1.00  0.00     0.210 HD
ENDBRANCH   6  30
BRANCH   4  32
HETATM   32  O6  UNL     1      33.842  27.528  25.953  1.00  0.00    -0.362 OA
ATOM     33  H6  UNL     1      34.635  27.050  25.742  1.00  0.00     0.213 HD
ENDBRANCH   4  32
BRANCH   4  34
HETATM   34  C10 UNL     1      33.542  25.792  27.517  1.00  0.00     0.242 C
BRANCH  34  35
HETATM   35  O7  UNL     1      34.032  25.541  28.796  1.00  0.00    -0.353 OA
BRANCH  35  36
HETATM   36  C11 UNL     1      34.170  24.178  29.036  1.00  0.00     0.291 C
HETATM   37  O8  UNL     1      35.349  23.774  28.403  1.00  0.00    -0.356 OA
HETATM   38  C12 UNL     1      35.748  22.530  28.890  1.00  0.00     0.205 C
HETATM   39  C13 UNL     1      34.655  21.497  28.743  1.00  0.00     0.173 C
HETATM   40  C14 UNL     1      33.459  22.033  28.006  1.00  0.00     0.182 C
HETATM   41  C15 UNL     1      33.018  23.383  28.472  1.00  0.00     0.204 C
BRANCH  39  42
HETATM   42  O9  UNL     1      34.330  20.965  29.988  1.00  0.00    -0.391 OA
ATOM     43  H9  UNL     1      34.993  20.342  30.260  1.00  0.00     0.210 HD
ENDBRANCH  39  42
BRANCH  40  44
HETATM   44  O10 UNL     1      32.423  21.108  28.171  1.00  0.00    -0.390 OA
ATOM     45  H10 UNL     1      32.536  20.440  27.506  1.00  0.00     0.210 HD
ENDBRANCH  40  44
BRANCH  41  46
HETATM   46  O11 UNL     1      32.000  23.228  29.420  1.00  0.00    -0.388 OA
ATOM     47  H11 UNL     1      31.676  22.335  29.432  1.00  0.00     0.210 HD
ENDBRANCH  41  46
ENDBRANCH  35  36
ENDBRANCH  34  35
ENDBRANCH   4  34
TORSDOF 19
ENDMDL