MODEL 2
REMARK VINA RESULT: -6.770820305      1.746      2.849
REMARK  17 active torsions:
REMARK  status: ('A' for Active; 'I' for Inactive)
REMARK    1  A    between atoms: C1_4  and  C2_5
REMARK    2  A    between atoms: C3_7  and  O2_8
REMARK    3  A    between atoms: O2_8  and  C4_9
REMARK    4  A    between atoms: C5_11  and  O4_12
REMARK    5  A    between atoms: O4_12  and  C6_13
REMARK    6  A    between atoms: C7_14  and  O5_15
REMARK    7  A    between atoms: C8_17  and  N2_18
REMARK    8  A    between atoms: C10_23  and  N3_24
REMARK    9  A    between atoms: C11_28  and  O6_29
REMARK   10  A    between atoms: O6_29  and  C12_30
REMARK   11  A    between atoms: C12_30  and  C13_31
REMARK   12  A    between atoms: C14_33  and  C15_34
REMARK   13  A    between atoms: C15_34  and  O8_35
REMARK   14  A    between atoms: C17_41  and  O9_42
REMARK   15  A    between atoms: C18_44  and  O10_45
REMARK   16  A    between atoms: C19_47  and  N5_48
REMARK   17  A    between atoms: C21_53  and  O11_54
ROOT
HETATM    1  C6  UNL     1      32.712  30.792  25.738  1.00  0.00     0.186 C
HETATM    2  C7  UNL     1      32.753  31.711  26.935  1.00  0.00     0.180 C
HETATM    3  C8  UNL     1      31.669  31.329  27.937  1.00  0.00     0.216 C
HETATM    4  C9  UNL     1      30.331  31.533  27.239  1.00  0.00     0.071 C
HETATM    5  C10 UNL     1      30.326  30.618  26.034  1.00  0.00     0.217 C
HETATM    6  C11 UNL     1      31.373  31.077  25.025  1.00  0.00     0.183 C
ENDROOT
BRANCH   1   7
HETATM    7  O4  UNL     1      32.776  29.481  26.199  1.00  0.00    -0.348 OA
BRANCH   7   8
HETATM    8  C5  UNL     1      33.964  28.861  25.893  1.00  0.00     0.297 C
HETATM    9  O3  UNL     1      33.729  27.601  25.347  1.00  0.00    -0.326 OA
HETATM   10  C4  UNL     1      33.715  27.092  26.639  1.00  0.00     0.299 C
HETATM   11  C18 UNL     1      34.698  28.183  27.024  1.00  0.00     0.228 C
BRANCH  10  12
HETATM   12  O2  UNL     1      34.275  25.819  26.654  1.00  0.00    -0.327 OA
BRANCH  12  13
HETATM   13  C3  UNL     1      33.321  24.822  26.977  1.00  0.00     0.294 C
HETATM   14  O1  UNL     1      32.335  25.445  27.656  1.00  0.00    -0.346 OA
HETATM   15  C2  UNL     1      32.201  25.237  28.992  1.00  0.00     0.191 C
HETATM   16  C21 UNL     1      33.606  25.220  29.590  1.00  0.00     0.154 C
HETATM   17  C20 UNL     1      34.194  23.898  29.141  1.00  0.00     0.072 C
HETATM   18  C19 UNL     1      34.065  23.718  27.651  1.00  0.00     0.240 C
BRANCH  15  19
HETATM   19  C1  UNL     1      31.426  26.386  29.560  1.00  0.00     0.087 C
HETATM   20  N1  UNL     1      30.646  27.116  28.857  1.00  0.00    -0.409 N
ATOM     21  H12 UNL     1      30.560  26.892  27.865  1.00  0.00     0.155 HD
ATOM     22  H11 UNL     1      30.119  27.898  29.244  1.00  0.00     0.155 HD
ENDBRANCH  15  19
BRANCH  16  23
HETATM   23  O11 UNL     1      33.607  25.257  30.964  1.00  0.00    -0.393 OA
ATOM     24  H11 UNL     1      32.852  24.828  31.349  1.00  0.00     0.210 HD
ENDBRANCH  16  23
BRANCH  18  25
HETATM   25  N5  UNL     1      35.390  23.554  27.096  1.00  0.00    -0.070 N
ATOM     26  H53 UNL     1      35.386  22.916  26.302  1.00  0.00     0.274 HD
ATOM     27  H52 UNL     1      35.702  24.399  26.618  1.00  0.00     0.274 HD
ATOM     28  H51 UNL     1      36.060  23.260  27.808  1.00  0.00     0.274 HD
ENDBRANCH  18  25
ENDBRANCH  12  13
ENDBRANCH  10  12
BRANCH  11  29
HETATM   29  O10 UNL     1      34.533  28.719  28.274  1.00  0.00    -0.386 OA
ATOM     30  H10 UNL     1      33.669  29.066  28.462  1.00  0.00     0.210 HD
ENDBRANCH  11  29
ENDBRANCH   7   8
ENDBRANCH   1   7
BRANCH   2  31
HETATM   31  O5  UNL     1      33.955  31.708  27.602  1.00  0.00    -0.391 OA
ATOM     32  H5  UNL     1      33.879  31.542  28.534  1.00  0.00     0.210 HD
ENDBRANCH   2  31
BRANCH   6  33
HETATM   33  O6  UNL     1      31.350  32.401  24.788  1.00  0.00    -0.378 OA
BRANCH  33  34
HETATM   34  C12 UNL     1      31.103  32.925  23.582  1.00  0.00     0.204 C
BRANCH  34  35
HETATM   35  C13 UNL     1      30.129  32.218  22.675  1.00  0.00     0.202 C
HETATM   36  O7  UNL     1      28.857  32.563  22.965  1.00  0.00    -0.370 OA
HETATM   37  C14 UNL     1      27.916  32.379  22.003  1.00  0.00     0.171 C
HETATM   38  C16 UNL     1      28.386  31.648  20.785  1.00  0.00     0.269 C
HETATM   39  N4  UNL     1      29.627  32.173  20.257  1.00  0.00    -0.044 N
HETATM   40  C17 UNL     1      30.558  32.556  21.260  1.00  0.00     0.350 C
ATOM     41  H42 UNL     1      30.050  31.511  19.607  1.00  0.00     0.280 HD
ATOM     42  H41 UNL     1      29.446  32.948  19.618  1.00  0.00     0.280 HD
BRANCH  37  43
HETATM   43  C15 UNL     1      26.656  31.696  22.500  1.00  0.00     0.197 C
BRANCH  43  44
HETATM   44  O8  UNL     1      26.610  31.675  23.907  1.00  0.00    -0.398 OA
ATOM     45  H8  UNL     1      27.257  31.077  24.262  1.00  0.00     0.209 HD
ENDBRANCH  43  44
ENDBRANCH  37  43
BRANCH  40  46
HETATM   46  O9  UNL     1      30.853  33.901  21.136  1.00  0.00    -0.368 OA
ATOM     47  H9  UNL     1      30.778  34.187  20.233  1.00  0.00     0.212 HD
ENDBRANCH  40  46
ENDBRANCH  34  35
ENDBRANCH  33  34
ENDBRANCH   6  33
BRANCH   3  48
HETATM   48  N2  UNL     1      31.821  32.155  29.093  1.00  0.00    -0.072 N
ATOM     49  H23 UNL     1      32.311  31.682  29.853  1.00  0.00     0.274 HD
ATOM     50  H22 UNL     1      32.489  32.912  28.950  1.00  0.00     0.274 HD
ATOM     51  H21 UNL     1      30.898  32.491  29.367  1.00  0.00     0.274 HD
ENDBRANCH   3  48
BRANCH   5  52
HETATM   52  N3  UNL     1      29.033  30.449  25.460  1.00  0.00    -0.072 N
ATOM     53  H33 UNL     1      29.089  30.412  24.442  1.00  0.00     0.274 HD
ATOM     54  H32 UNL     1      28.675  29.511  25.642  1.00  0.00     0.274 HD
ATOM     55  H31 UNL     1      28.362  31.157  25.760  1.00  0.00     0.274 HD
ENDBRANCH   5  52
TORSDOF 17
ENDMDL