MODEL 5
REMARK VINA RESULT: -6.589442476      2.869      8.089
REMARK  15 active torsions:
REMARK  status: ('A' for Active; 'I' for Inactive)
REMARK    1  A    between atoms: N1_1  and  C1_4
REMARK    2  A    between atoms: C1_4  and  N2_5
REMARK    3  A    between atoms: C1_4  and  C9_24
REMARK    4  A    between atoms: N2_5  and  C2_7
REMARK    5  A    between atoms: C4_9  and  N3_10
REMARK    6  A    between atoms: C5_14  and  N4_15
REMARK    7  A    between atoms: C7_20  and  C8_21
REMARK    8  A    between atoms: C8_21  and  O1_22
REMARK    9  A    between atoms: C9_24  and  C10_25
REMARK   10  A    between atoms: C9_24  and  N10_45
REMARK   11  A    between atoms: C11_31  and  O2_32
REMARK   12  A    between atoms: O2_32  and  C12_33
REMARK   13  A    between atoms: C15_38  and  N8_39
REMARK   14  A    between atoms: C17_49  and  C18_50
REMARK   15  A    between atoms: C19_53  and  O8_54
ROOT
HETATM    1  C9  UNL     1      30.949  29.572  25.525  1.00  0.00     0.206 C
ENDROOT
BRANCH   1   2
HETATM    2  C1  UNL     1      31.777  28.412  25.196  1.00  0.00     0.099 C
BRANCH   2   3
HETATM    3  N1  UNL     1      32.502  28.396  24.155  1.00  0.00    -0.387 N
ATOM      4  H12 UNL     1      33.152  27.630  23.976  1.00  0.00     0.157 HD
ATOM      5  H11 UNL     1      32.424  29.173  23.500  1.00  0.00     0.157 HD
ENDBRANCH   2   3
BRANCH   2   6
HETATM    6  N2  UNL     1      31.780  27.267  26.038  1.00  0.00    -0.373 N
ATOM      7  H2  UNL     1      31.036  26.578  25.933  1.00  0.00     0.161 HD
BRANCH   6   8
HETATM    8  C2  UNL     1      32.798  27.040  27.037  1.00  0.00     0.091 C
HETATM    9  C3  UNL     1      33.846  26.053  26.542  1.00  0.00     0.060 C
HETATM   10  C4  UNL     1      34.306  25.120  27.643  1.00  0.00     0.215 C
HETATM   11  C5  UNL     1      33.225  24.271  28.222  1.00  0.00     0.214 C
HETATM   12  C6  UNL     1      31.921  25.003  28.173  1.00  0.00     0.043 C
HETATM   13  C7  UNL     1      32.235  26.498  28.300  1.00  0.00     0.034 C
BRANCH  10  14
HETATM   14  N3  UNL     1      35.358  24.266  27.094  1.00  0.00    -0.073 N
ATOM     15  H33 UNL     1      35.258  24.109  26.091  1.00  0.00     0.274 HD
ATOM     16  H32 UNL     1      36.268  24.726  27.068  1.00  0.00     0.274 HD
ATOM     17  H31 UNL     1      35.368  23.400  27.632  1.00  0.00     0.274 HD
ENDBRANCH  10  14
BRANCH  11  18
HETATM   18  N4  UNL     1      33.571  24.013  29.629  1.00  0.00    -0.073 N
ATOM     19  H43 UNL     1      34.192  23.213  29.746  1.00  0.00     0.274 HD
ATOM     20  H42 UNL     1      34.191  24.721  30.022  1.00  0.00     0.274 HD
ATOM     21  H41 UNL     1      32.698  23.918  30.147  1.00  0.00     0.274 HD
ENDBRANCH  11  18
BRANCH  13  22
HETATM   22  C8  UNL     1      31.025  27.179  28.836  1.00  0.00     0.170 C
BRANCH  22  23
HETATM   23  O1  UNL     1      29.923  26.634  28.132  1.00  0.00    -0.400 OA
ATOM     24  H1  UNL     1      29.191  27.218  28.293  1.00  0.00     0.209 HD
ENDBRANCH  22  23
ENDBRANCH  13  22
ENDBRANCH   6   8
ENDBRANCH   2   6
ENDBRANCH   1   2
BRANCH   1  25
HETATM   25  C10 UNL     1      29.491  29.259  25.780  1.00  0.00     0.277 C
HETATM   26  N5  UNL     1      28.603  30.120  25.050  1.00  0.00    -0.090 NA
HETATM   27  N6  UNL     1      27.476  29.418  24.586  1.00  0.00    -0.241 N
HETATM   28  N7  UNL     1      26.965  28.306  25.166  1.00  0.00    -0.247 N
ATOM     29  H6  UNL     1      27.009  29.772  23.752  1.00  0.00     0.204 HD
HETATM   30  C11 UNL     1      27.884  27.469  25.764  1.00  0.00     0.289 C
ATOM     31  H7  UNL     1      25.966  28.101  25.161  1.00  0.00     0.192 HD
HETATM   32  O5  UNL     1      29.169  27.901  25.670  1.00  0.00    -0.288 OA
BRANCH  30  33
HETATM   33  O2  UNL     1      27.216  26.503  26.240  1.00  0.00    -0.255 OA
BRANCH  33  34
HETATM   34  C12 UNL     1      26.561  25.554  26.708  1.00  0.00     0.160 A
HETATM   35  C13 UNL     1      26.494  24.276  26.111  1.00  0.00     0.139 A
HETATM   36  C14 UNL     1      25.750  23.305  26.681  1.00  0.00     0.294 A
HETATM   37  O3  UNL     1      25.648  22.129  26.190  1.00  0.00    -0.260 OA
HETATM   38  O4  UNL     1      25.077  23.502  27.786  1.00  0.00    -0.242 OA
HETATM   39  C15 UNL     1      25.106  24.651  28.372  1.00  0.00     0.226 A
HETATM   40  N9  UNL     1      25.810  25.659  27.881  1.00  0.00    -0.302 N
ATOM     41  H9  UNL     1      25.803  26.549  28.380  1.00  0.00     0.171 HD
BRANCH  39  42
HETATM   42  N8  UNL     1      24.431  24.838  29.478  1.00  0.00    -0.365 N
ATOM     43  H82 UNL     1      23.416  24.741  29.453  1.00  0.00     0.159 HD
ATOM     44  H81 UNL     1      24.921  25.075  30.340  1.00  0.00     0.159 HD
ENDBRANCH  39  42
ENDBRANCH  33  34
ENDBRANCH  30  33
ENDBRANCH   1  25
BRANCH   1  45
HETATM   45  N10 UNL     1      31.421  30.381  26.617  1.00  0.00    -0.306 N
HETATM   46  C16 UNL     1      30.839  30.589  27.819  1.00  0.00     0.186 A
HETATM   47  N11 UNL     1      31.589  31.415  28.557  1.00  0.00    -0.343 N
HETATM   48  C17 UNL     1      32.681  31.762  27.840  1.00  0.00     0.162 A
ATOM     49  H11 UNL     1      31.373  31.729  29.503  1.00  0.00     0.167 HD
HETATM   50  C19 UNL     1      32.554  31.111  26.647  1.00  0.00     0.178 A
BRANCH  48  51
HETATM   51  C18 UNL     1      33.769  32.626  28.214  1.00  0.00     0.231 C
HETATM   52  O6  UNL     1      34.268  32.548  29.355  1.00  0.00    -0.643 OA
HETATM   53  O7  UNL     1      34.268  33.544  27.318  1.00  0.00    -0.643 OA
ENDBRANCH  48  51
BRANCH  50  54
HETATM   54  O8  UNL     1      33.448  31.169  25.588  1.00  0.00    -0.344 OA
ATOM     55  H8  UNL     1      34.353  30.887  25.655  1.00  0.00     0.219 HD
ENDBRANCH  50  54
ENDBRANCH   1  45
TORSDOF 15
ENDMDL