MODEL 4
REMARK VINA RESULT: -6.266220280      2.797      7.977
REMARK  18 active torsions:
REMARK  status: ('A' for Active; 'I' for Inactive)
REMARK    1  A    between atoms: C2_2  and  O1_3
REMARK    2  A    between atoms: O1_3  and  C3_4
REMARK    3  A    between atoms: C3_4  and  C4_6
REMARK    4  A    between atoms: C4_6  and  N1_7
REMARK    5  A    between atoms: C4_6  and  C15_33
REMARK    6  A    between atoms: N1_7  and  C5_9
REMARK    7  A    between atoms: C6_10  and  N2_11
REMARK    8  A    between atoms: N2_11  and  C7_13
REMARK    9  A    between atoms: C7_13  and  O3_15
REMARK   10  A    between atoms: C9_17  and  O4_18
REMARK   11  A    between atoms: C11_21  and  O5_23
REMARK   12  A    between atoms: C13_25  and  C14_26
REMARK   13  A    between atoms: C14_26  and  N3_27
REMARK   14  A    between atoms: C14_26  and  O6_31
REMARK   15  A    between atoms: C17_35  and  N4_36
REMARK   16  A    between atoms: C18_40  and  N5_41
REMARK   17  A    between atoms: C20_45  and  N7_46
REMARK   18  A    between atoms: C21_49  and  O7_50
ROOT
HETATM    1  C4  UNL     1      31.463  30.274  27.076  1.00  0.00     0.208 C
ENDROOT
BRANCH   1   2
HETATM    2  C3  UNL     1      32.894  30.776  27.222  1.00  0.00     0.283 C
HETATM    3  O2  UNL     1      33.583  30.892  26.191  1.00  0.00    -0.263 OA
BRANCH   2   4
HETATM    4  O1  UNL     1      33.440  31.101  28.438  1.00  0.00    -0.320 OA
BRANCH   4   5
HETATM    5  C2  UNL     1      33.869  32.437  28.720  1.00  0.00     0.174 C
HETATM    6  C1  UNL     1      32.781  33.223  29.390  1.00  0.00     0.034 C
ENDBRANCH   4   5
ENDBRANCH   2   4
ENDBRANCH   1   2
BRANCH   1   7
HETATM    7  N1  UNL     1      31.524  28.934  26.744  1.00  0.00    -0.400 N
ATOM      8  H1  UNL     1      31.679  28.688  25.767  1.00  0.00     0.154 HD
BRANCH   7   9
HETATM    9  C5  UNL     1      31.385  27.892  27.677  1.00  0.00     0.113 C
HETATM   10  C6  UNL     1      30.597  26.743  27.092  1.00  0.00     0.130 C
HETATM   11  C9  UNL     1      31.142  25.389  27.203  1.00  0.00     0.145 C
HETATM   12  C10 UNL     1      32.073  25.110  28.351  1.00  0.00     0.071 C
HETATM   13  C11 UNL     1      32.274  26.288  29.245  1.00  0.00     0.066 C
HETATM   14  C12 UNL     1      33.299  25.928  30.286  1.00  0.00     0.046 C
HETATM   15  C13 UNL     1      32.617  27.535  28.444  1.00  0.00     0.100 C
BRANCH  10  16
HETATM   16  N2  UNL     1      30.345  27.036  25.680  1.00  0.00    -0.388 N
ATOM     17  H2  UNL     1      31.099  27.130  24.998  1.00  0.00     0.156 HD
BRANCH  16  18
HETATM   18  C7  UNL     1      28.977  27.180  25.326  1.00  0.00     0.209 C
HETATM   19  C8  UNL     1      28.062  26.579  26.400  1.00  0.00     0.062 C
BRANCH  18  20
HETATM   20  O3  UNL     1      28.706  28.575  25.388  1.00  0.00    -0.378 OA
ATOM     21  H3  UNL     1      28.319  28.802  24.550  1.00  0.00     0.212 HD
ENDBRANCH  18  20
ENDBRANCH  16  18
ENDBRANCH  10  16
BRANCH  11  22
HETATM   22  O4  UNL     1      31.692  24.866  26.006  1.00  0.00    -0.393 OA
ATOM     23  H4  UNL     1      32.575  24.524  26.087  1.00  0.00     0.210 HD
ENDBRANCH  11  22
BRANCH  13  24
HETATM   24  O5  UNL     1      31.049  26.484  29.920  1.00  0.00    -0.390 OA
ATOM     25  H5  UNL     1      30.375  26.498  29.251  1.00  0.00     0.210 HD
ENDBRANCH  13  24
BRANCH  15  26
HETATM   26  C14 UNL     1      33.860  27.342  27.694  1.00  0.00     0.325 C
BRANCH  26  27
HETATM   27  N3  UNL     1      34.844  28.375  27.972  1.00  0.00    -0.052 N
ATOM     28  H33 UNL     1      34.895  29.049  27.209  1.00  0.00     0.277 HD
ATOM     29  H32 UNL     1      34.525  28.994  28.717  1.00  0.00     0.277 HD
ATOM     30  H31 UNL     1      35.765  27.990  28.184  1.00  0.00     0.277 HD
ENDBRANCH  26  27
BRANCH  26  31
HETATM   31  O6  UNL     1      33.792  27.233  26.329  1.00  0.00    -0.369 OA
ATOM     32  H6  UNL     1      34.433  27.697  25.803  1.00  0.00     0.212 HD
ENDBRANCH  26  31
ENDBRANCH  15  26
ENDBRANCH   7   9
ENDBRANCH   1   7
BRANCH   1  33
HETATM   33  C15 UNL     1      30.807  31.271  26.221  1.00  0.00     0.222 C
HETATM   34  C16 UNL     1      31.310  32.672  26.231  1.00  0.00     0.072 C
HETATM   35  C17 UNL     1      30.595  33.261  24.993  1.00  0.00     0.237 C
HETATM   36  C18 UNL     1      29.741  32.135  24.508  1.00  0.00     0.338 C
HETATM   37  N9  UNL     1      30.621  30.975  24.827  1.00  0.00    -0.044 N
ATOM     38  H92 UNL     1      31.463  30.862  24.261  1.00  0.00     0.280 HD
ATOM     39  H91 UNL     1      30.268  30.047  24.592  1.00  0.00     0.280 HD
BRANCH  35  40
HETATM   40  N4  UNL     1      29.741  34.347  25.455  1.00  0.00    -0.071 N
ATOM     41  H43 UNL     1      30.036  35.258  25.107  1.00  0.00     0.274 HD
ATOM     42  H42 UNL     1      28.815  34.333  25.029  1.00  0.00     0.274 HD
ATOM     43  H41 UNL     1      29.711  34.301  26.474  1.00  0.00     0.274 HD
ENDBRANCH  35  40
BRANCH  36  44
HETATM   44  N5  UNL     1      29.321  32.160  23.156  1.00  0.00    -0.252 N
HETATM   45  C19 UNL     1      29.833  31.364  22.237  1.00  0.00     0.204 A
HETATM   46  N6  UNL     1      29.444  31.396  20.927  1.00  0.00    -0.334 N
HETATM   47  C20 UNL     1      28.499  32.264  20.531  1.00  0.00     0.153 A
ATOM     48  H6  UNL     1      29.870  30.761  20.253  1.00  0.00     0.168 HD
HETATM   49  C21 UNL     1      27.964  33.093  21.495  1.00  0.00     0.200 A
HETATM   50  N8  UNL     1      28.375  33.030  22.775  1.00  0.00    -0.272 N
ATOM     51  H8  UNL     1      27.961  33.656  23.467  1.00  0.00     0.189 HD
BRANCH  47  52
HETATM   52  N7  UNL     1      28.106  32.325  19.302  1.00  0.00    -0.382 N
ATOM     53  H72 UNL     1      28.688  32.753  18.582  1.00  0.00     0.157 HD
ATOM     54  H71 UNL     1      27.204  31.949  19.008  1.00  0.00     0.157 HD
ENDBRANCH  47  52
BRANCH  49  55
HETATM   55  O7  UNL     1      26.984  33.990  21.078  1.00  0.00    -0.342 OA
ATOM     56  H7  UNL     1      26.097  33.656  21.012  1.00  0.00     0.219 HD
ENDBRANCH  49  55
ENDBRANCH  36  44
ENDBRANCH   1  33
TORSDOF 18
ENDMDL