MODEL 3
REMARK VINA RESULT: -6.220520702      2.180      2.997
REMARK  17 active torsions:
REMARK  status: ('A' for Active; 'I' for Inactive)
REMARK    1  A    between atoms: N5_12  and  C4_13
REMARK    2  A    between atoms: C5_14  and  N6_15
REMARK    3  A    between atoms: C7_20  and  N7_21
REMARK    4  A    between atoms: C8_25  and  O1_26
REMARK    5  A    between atoms: C9_28  and  O2_29
REMARK    6  A    between atoms: O2_29  and  C10_30
REMARK    7  A    between atoms: C11_31  and  O3_32
REMARK    8  A    between atoms: C12_34  and  N8_35
REMARK    9  A    between atoms: C14_40  and  N9_41
REMARK   10  A    between atoms: C15_45  and  O4_46
REMARK   11  A    between atoms: O4_46  and  C16_47
REMARK   12  A    between atoms: C16_47  and  C17_48
REMARK   13  A    between atoms: C17_48  and  N10_49
REMARK   14  A    between atoms: C17_48  and  C18_53
REMARK   15  A    between atoms: C18_53  and  O5_54
REMARK   16  A    between atoms: C18_53  and  O6_56
REMARK   17  A    between atoms: N11_59  and  O7_60
ROOT
HETATM    1  C4  UNL     1      30.589  26.124  26.949  1.00  0.00     0.173 C
HETATM    2  C5  UNL     1      29.660  24.996  26.686  1.00  0.00     0.212 C
HETATM    3  C6  UNL     1      28.918  25.115  25.340  1.00  0.00     0.070 C
HETATM    4  C7  UNL     1      28.117  26.404  25.596  1.00  0.00     0.216 C
HETATM    5  C8  UNL     1      29.142  27.479  25.644  1.00  0.00     0.179 C
HETATM    6  C9  UNL     1      30.018  27.532  26.877  1.00  0.00     0.179 C
ENDROOT
BRANCH   6   7
HETATM    7  O2  UNL     1      31.074  28.359  26.696  1.00  0.00    -0.370 OA
BRANCH   7   8
HETATM    8  C10 UNL     1      31.601  28.933  25.676  1.00  0.00     0.183 C
HETATM    9  C11 UNL     1      33.076  28.760  25.352  1.00  0.00     0.180 C
HETATM   10  C12 UNL     1      33.285  29.198  23.898  1.00  0.00     0.216 C
HETATM   11  C13 UNL     1      32.746  30.518  23.544  1.00  0.00     0.071 C
HETATM   12  C14 UNL     1      31.394  30.838  24.069  1.00  0.00     0.217 C
HETATM   13  C15 UNL     1      31.464  30.469  25.586  1.00  0.00     0.183 C
BRANCH   9  14
HETATM   14  O3  UNL     1      33.544  27.480  25.338  1.00  0.00    -0.391 OA
ATOM     15  H3  UNL     1      32.889  26.793  25.369  1.00  0.00     0.210 HD
ENDBRANCH   9  14
BRANCH  10  16
HETATM   16  N8  UNL     1      32.843  28.132  22.995  1.00  0.00    -0.072 N
ATOM     17  H83 UNL     1      32.046  28.416  22.426  1.00  0.00     0.274 HD
ATOM     18  H82 UNL     1      33.510  27.966  22.241  1.00  0.00     0.274 HD
ATOM     19  H81 UNL     1      32.651  27.286  23.532  1.00  0.00     0.274 HD
ENDBRANCH  10  16
BRANCH  12  20
HETATM   20  N9  UNL     1      30.308  30.237  23.404  1.00  0.00    -0.072 N
ATOM     21  H93 UNL     1      30.517  29.256  23.219  1.00  0.00     0.274 HD
ATOM     22  H92 UNL     1      29.522  30.141  24.046  1.00  0.00     0.274 HD
ATOM     23  H91 UNL     1      29.998  30.690  22.544  1.00  0.00     0.274 HD
ENDBRANCH  12  20
BRANCH  13  24
HETATM   24  O4  UNL     1      32.619  31.029  25.955  1.00  0.00    -0.379 OA
BRANCH  24  25
HETATM   25  C16 UNL     1      32.827  32.069  26.730  1.00  0.00     0.206 C
BRANCH  25  26
HETATM   26  C17 UNL     1      32.524  31.819  28.178  1.00  0.00     0.261 C
BRANCH  26  27
HETATM   27  N10 UNL     1      31.938  32.962  28.810  1.00  0.00    -0.068 N
ATOM     28 3H10 UNL     1      31.990  32.890  29.827  1.00  0.00     0.275 HD
ATOM     29 2H10 UNL     1      32.514  33.794  28.678  1.00  0.00     0.275 HD
ATOM     30 1H10 UNL     1      30.980  33.124  28.500  1.00  0.00     0.275 HD
ENDBRANCH  26  27
BRANCH  26  31
HETATM   31  C18 UNL     1      33.776  31.474  28.966  1.00  0.00     0.286 C
BRANCH  31  32
HETATM   32  O5  UNL     1      34.505  32.649  29.115  1.00  0.00    -0.369 OA
ATOM     33  H5  UNL     1      35.390  32.401  29.353  1.00  0.00     0.212 HD
ENDBRANCH  31  32
BRANCH  31  34
HETATM   34  O6  UNL     1      34.510  30.476  28.320  1.00  0.00    -0.369 OA
ATOM     35  H6  UNL     1      35.429  30.712  28.268  1.00  0.00     0.212 HD
ENDBRANCH  31  34
ENDBRANCH  26  31
ENDBRANCH  25  26
ENDBRANCH  24  25
ENDBRANCH  13  24
ENDBRANCH   7   8
ENDBRANCH   6   7
BRANCH   1  36
HETATM   36  N5  UNL     1      31.396  25.799  28.056  1.00  0.00    -0.252 N
HETATM   37  N4  UNL     1      31.147  26.316  29.284  1.00  0.00    -0.237 N
HETATM   38  N3  UNL     1      31.998  25.900  30.160  1.00  0.00    -0.267 N
ATOM     39  H4  UNL     1      30.381  26.955  29.490  1.00  0.00     0.208 HD
HETATM   40  C3  UNL     1      32.871  25.068  29.533  1.00  0.00     0.178 A
ATOM     41  H3  UNL     1      32.013  26.151  31.149  1.00  0.00     0.190 HD
HETATM   42  N2  UNL     1      34.006  24.342  29.969  1.00  0.00    -0.284 N
HETATM   43  C19 UNL     1      32.470  25.022  28.211  1.00  0.00     0.174 A
HETATM   44  N1  UNL     1      34.692  23.641  29.190  1.00  0.00    -0.314 N
ATOM     45  H2  UNL     1      34.275  24.392  30.952  1.00  0.00     0.188 HD
HETATM   46  C2  UNL     1      34.368  23.539  27.816  1.00  0.00     0.202 A
ATOM     47  H1  UNL     1      35.500  23.134  29.553  1.00  0.00     0.182 HD
HETATM   48  C1  UNL     1      34.458  22.098  27.308  1.00  0.00     0.053 C
HETATM   49  N11 UNL     1      33.199  24.202  27.327  1.00  0.00    -0.119 NA
BRANCH  49  50
HETATM   50  O7  UNL     1      33.645  24.930  26.235  1.00  0.00    -0.305 OA
ATOM     51  H7  UNL     1      33.739  25.817  26.563  1.00  0.00     0.237 HD
ENDBRANCH  49  50
ENDBRANCH   1  36
BRANCH   5  52
HETATM   52  O1  UNL     1      28.487  28.637  25.325  1.00  0.00    -0.391 OA
ATOM     53  H1  UNL     1      28.837  28.912  24.486  1.00  0.00     0.210 HD
ENDBRANCH   5  52
BRANCH   2  54
HETATM   54  N6  UNL     1      30.487  23.803  26.545  1.00  0.00    -0.073 N
ATOM     55  H63 UNL     1      31.169  23.872  25.789  1.00  0.00     0.274 HD
ATOM     56  H62 UNL     1      31.154  23.681  27.307  1.00  0.00     0.274 HD
ATOM     57  H61 UNL     1      29.846  23.017  26.440  1.00  0.00     0.274 HD
ENDBRANCH   2  54
BRANCH   4  58
HETATM   58  N7  UNL     1      27.423  26.252  26.829  1.00  0.00    -0.072 N
ATOM     59  H73 UNL     1      26.611  26.865  26.902  1.00  0.00     0.274 HD
ATOM     60  H72 UNL     1      26.930  25.362  26.897  1.00  0.00     0.274 HD
ATOM     61  H71 UNL     1      28.093  26.392  27.586  1.00  0.00     0.274 HD
ENDBRANCH   4  58
TORSDOF 17
ENDMDL