MODEL 3
REMARK VINA RESULT: -6.300021939      3.903      9.194
REMARK  15 active torsions:
REMARK  status: ('A' for Active; 'I' for Inactive)
REMARK    1  A    between atoms: N1_1  and  N2_4
REMARK    2  A    between atoms: N2_4  and  C1_5
REMARK    3  A    between atoms: C1_5  and  N3_6
REMARK    4  A    between atoms: C1_5  and  C2_10
REMARK    5  A    between atoms: N4_12  and  C4_13
REMARK    6  A    between atoms: C6_15  and  C7_16
REMARK    7  A    between atoms: C6_15  and  C8_19
REMARK    8  A    between atoms: C7_16  and  O1_17
REMARK    9  A    between atoms: C8_19  and  N5_20
REMARK   10  A    between atoms: N5_20  and  C9_22
REMARK   11  A    between atoms: C13_33  and  C14_34
REMARK   12  A    between atoms: C15_38  and  C16_39
REMARK   13  A    between atoms: C16_39  and  N10_40
REMARK   14  A    between atoms: C16_39  and  C17_44
REMARK   15  A    between atoms: C18_49  and  O6_50
ROOT
HETATM    1  C9  UNL     1      32.977  28.402  26.417  1.00  0.00     0.131 C
HETATM    2  N6  UNL     1      32.406  28.651  25.297  1.00  0.00    -0.337 N
ATOM      3  H6  UNL     1      31.996  27.807  24.895  1.00  0.00     0.167 HD
HETATM    4  C10 UNL     1      32.187  29.772  24.465  1.00  0.00     0.108 A
HETATM    5  C11 UNL     1      32.126  31.139  24.698  1.00  0.00     0.140 A
HETATM    6  N7  UNL     1      31.908  31.986  23.702  1.00  0.00    -0.292 N
ATOM      7  H7  UNL     1      31.863  32.990  23.873  1.00  0.00     0.172 HD
HETATM    8  C12 UNL     1      31.745  31.488  22.444  1.00  0.00     0.326 A
HETATM    9  O2  UNL     1      31.537  32.284  21.486  1.00  0.00    -0.247 OA
HETATM   10  N8  UNL     1      31.800  30.169  22.189  1.00  0.00    -0.304 N
ATOM     11  H8  UNL     1      31.674  29.835  21.233  1.00  0.00     0.171 HD
HETATM   12  C13 UNL     1      32.019  29.283  23.180  1.00  0.00     0.105 A
HETATM   13  N9  UNL     1      32.261  31.889  25.913  1.00  0.00    -0.328 N
ATOM     14  H9  UNL     1      31.840  32.817  25.861  1.00  0.00     0.169 HD
HETATM   15  C15 UNL     1      32.796  31.644  27.044  1.00  0.00     0.122 C
HETATM   16  N11 UNL     1      33.480  30.525  27.569  1.00  0.00    -0.345 N
ATOM     17  H11 UNL     1      34.018  30.849  28.372  1.00  0.00     0.163 HD
HETATM   18  C18 UNL     1      33.724  29.131  27.436  1.00  0.00     0.288 C
ENDROOT
BRANCH   1  19
HETATM   19  N5  UNL     1      32.848  26.999  26.738  1.00  0.00    -0.353 N
ATOM     20  H5  UNL     1      33.243  26.339  26.067  1.00  0.00     0.166 HD
BRANCH  19  21
HETATM   21  C8  UNL     1      32.234  26.447  27.879  1.00  0.00     0.102 C
BRANCH  21  22
HETATM   22  C6  UNL     1      33.134  25.634  28.787  1.00  0.00     0.120 C
HETATM   23  C5  UNL     1      32.789  24.157  28.573  1.00  0.00     0.100 C
HETATM   24  C4  UNL     1      34.267  24.052  28.649  1.00  0.00     0.233 C
HETATM   25  O7  UNL     1      34.384  25.375  28.266  1.00  0.00    -0.347 OA
BRANCH  24  26
HETATM   26  N4  UNL     1      34.857  23.120  27.685  1.00  0.00    -0.324 N
HETATM   27  C3  UNL     1      34.848  23.270  26.375  1.00  0.00     0.123 A
HETATM   28  C2  UNL     1      35.488  22.185  25.762  1.00  0.00     0.074 A
HETATM   29  N12 UNL     1      35.869  21.397  26.793  1.00  0.00    -0.352 N
HETATM   30  C19 UNL     1      35.483  21.969  27.968  1.00  0.00     0.185 A
ATOM     31  H12 UNL     1      36.368  20.512  26.704  1.00  0.00     0.166 HD
BRANCH  28  32
HETATM   32  C1  UNL     1      35.716  21.917  24.324  1.00  0.00     0.345 C
BRANCH  32  33
HETATM   33  N2  UNL     1      36.328  23.047  23.653  1.00  0.00    -0.108 NA
BRANCH  33  34
HETATM   34  N1  UNL     1      37.704  23.069  23.903  1.00  0.00    -0.346 N
ATOM     35  H12 UNL     1      38.134  22.731  24.764  1.00  0.00     0.172 HD
ATOM     36  H11 UNL     1      38.201  23.468  23.106  1.00  0.00     0.172 HD
ENDBRANCH  33  34
ENDBRANCH  32  33
BRANCH  32  37
HETATM   37  N3  UNL     1      36.671  20.808  24.173  1.00  0.00    -0.054 N
ATOM     38  H33 UNL     1      36.795  20.502  23.208  1.00  0.00     0.276 HD
ATOM     39  H32 UNL     1      37.640  21.076  24.341  1.00  0.00     0.276 HD
ATOM     40  H31 UNL     1      36.335  20.073  24.796  1.00  0.00     0.276 HD
ENDBRANCH  32  37
ENDBRANCH  28  32
ENDBRANCH  24  26
BRANCH  22  41
HETATM   41  C7  UNL     1      33.105  26.020  30.250  1.00  0.00     0.208 C
BRANCH  41  42
HETATM   42  O1  UNL     1      31.799  26.126  30.721  1.00  0.00    -0.398 OA
ATOM     43  H1  UNL     1      31.468  27.012  30.623  1.00  0.00     0.209 HD
ENDBRANCH  41  42
ENDBRANCH  22  41
ENDBRANCH  21  22
ENDBRANCH  19  21
ENDBRANCH   1  19
BRANCH  18  44
HETATM   44  O6  UNL     1      35.092  28.835  27.306  1.00  0.00    -0.369 OA
ATOM     45  H6  UNL     1      35.438  29.289  26.546  1.00  0.00     0.212 HD
ENDBRANCH  18  44
BRANCH  12  46
HETATM   46  C14 UNL     1      32.079  27.857  22.913  1.00  0.00     0.290 C
HETATM   47  O3  UNL     1      33.186  27.281  22.786  1.00  0.00    -0.300 OA
ENDBRANCH  12  46
BRANCH  15  48
HETATM   48  C16 UNL     1      32.648  32.790  27.965  1.00  0.00     0.349 C
BRANCH  48  49
HETATM   49  N10 UNL     1      31.840  32.416  29.114  1.00  0.00    -0.058 N
ATOM     50 3H10 UNL     1      31.051  31.827  28.847  1.00  0.00     0.275 HD
ATOM     51 2H10 UNL     1      32.325  31.754  29.720  1.00  0.00     0.275 HD
ATOM     52 1H10 UNL     1      31.538  33.247  29.622  1.00  0.00     0.275 HD
ENDBRANCH  48  49
BRANCH  48  53
HETATM   53  C17 UNL     1      34.009  33.218  28.389  1.00  0.00     0.212 C
HETATM   54  O4  UNL     1      34.430  32.755  29.499  1.00  0.00    -0.646 OA
HETATM   55  O5  UNL     1      34.764  34.064  27.621  1.00  0.00    -0.646 OA
ENDBRANCH  48  53
ENDBRANCH  15  48
TORSDOF 15
ENDMDL