MODEL 5
REMARK VINA RESULT: -6.444478066      2.907     10.194
REMARK  17 active torsions:
REMARK  status: ('A' for Active; 'I' for Inactive)
REMARK    1  A    between atoms: C3_3  and  N1_4
REMARK    2  A    between atoms: N1_4  and  O1_5
REMARK    3  A    between atoms: C5_8  and  O2_9
REMARK    4  A    between atoms: O2_9  and  C6_10
REMARK    5  A    between atoms: C8_12  and  N2_13
REMARK    6  A    between atoms: C9_17  and  O3_18
REMARK    7  A    between atoms: O3_18  and  C10_19
REMARK    8  A    between atoms: C11_20  and  O4_21
REMARK    9  A    between atoms: C12_23  and  N3_24
REMARK   10  A    between atoms: C13_28  and  O5_29
REMARK   11  A    between atoms: O5_29  and  C14_30
REMARK   12  A    between atoms: C14_30  and  C15_31
REMARK   13  A    between atoms: C16_34  and  N5_35
REMARK   14  A    between atoms: C17_44  and  O7_45
REMARK   15  A    between atoms: C18_47  and  O8_48
REMARK   16  A    between atoms: C19_50  and  O9_51
REMARK   17  A    between atoms: C20_53  and  O10_54
ROOT
HETATM    1  C10 UNL     1      31.605  32.412  24.865  1.00  0.00     0.184 C
HETATM    2  C11 UNL     1      31.825  31.382  23.805  1.00  0.00     0.182 C
HETATM    3  C12 UNL     1      31.973  32.003  22.431  1.00  0.00     0.246 C
HETATM    4  C13 UNL     1      30.692  32.692  22.085  1.00  0.00     0.186 C
HETATM    5  C17 UNL     1      29.752  32.917  23.224  1.00  0.00     0.180 C
HETATM    6  C18 UNL     1      30.395  33.257  24.545  1.00  0.00     0.181 C
ENDROOT
BRANCH   1   7
HETATM    7  O3  UNL     1      31.471  31.941  26.146  1.00  0.00    -0.370 OA
BRANCH   7   8
HETATM    8  C9  UNL     1      32.515  31.201  26.612  1.00  0.00     0.183 C
HETATM    9  C8  UNL     1      33.234  31.698  27.815  1.00  0.00     0.217 C
HETATM   10  C7  UNL     1      33.721  30.425  28.532  1.00  0.00     0.070 C
HETATM   11  C6  UNL     1      33.284  29.304  27.636  1.00  0.00     0.155 C
HETATM   12  C19 UNL     1      31.955  29.870  27.128  1.00  0.00     0.178 C
BRANCH   9  13
HETATM   13  N2  UNL     1      32.462  32.519  28.699  1.00  0.00    -0.072 N
ATOM     14  H23 UNL     1      32.884  32.576  29.626  1.00  0.00     0.274 HD
ATOM     15  H22 UNL     1      32.518  33.505  28.444  1.00  0.00     0.274 HD
ATOM     16  H21 UNL     1      31.496  32.196  28.745  1.00  0.00     0.274 HD
ENDBRANCH   9  13
BRANCH  11  17
HETATM   17  O2  UNL     1      33.231  28.083  28.171  1.00  0.00    -0.375 OA
BRANCH  17  18
HETATM   18  C5  UNL     1      32.609  27.086  27.476  1.00  0.00     0.152 C
HETATM   19  C4  UNL     1      33.716  26.109  27.046  1.00  0.00     0.058 C
HETATM   20  C3  UNL     1      34.084  25.364  28.310  1.00  0.00     0.115 C
HETATM   21  C2  UNL     1      32.886  25.432  29.213  1.00  0.00     0.034 C
HETATM   22  C1  UNL     1      33.245  26.062  30.538  1.00  0.00     0.014 C
HETATM   23  C20 UNL     1      31.855  26.214  28.455  1.00  0.00     0.152 C
BRANCH  20  24
HETATM   24  N1  UNL     1      34.441  24.005  27.977  1.00  0.00    -0.098 NA
BRANCH  24  25
HETATM   25  O1  UNL     1      35.756  23.820  27.856  1.00  0.00    -0.296 OA
ATOM     26  H1  UNL     1      36.139  23.352  28.589  1.00  0.00     0.238 HD
ENDBRANCH  24  25
ENDBRANCH  20  24
BRANCH  23  27
HETATM   27  O10 UNL     1      30.937  25.385  27.825  1.00  0.00    -0.393 OA
ATOM     28  H10 UNL     1      30.091  25.807  27.722  1.00  0.00     0.210 HD
ENDBRANCH  23  27
ENDBRANCH  17  18
ENDBRANCH  11  17
BRANCH  12  29
HETATM   29  O9  UNL     1      31.120  30.200  28.197  1.00  0.00    -0.390 OA
ATOM     30  H9  UNL     1      30.818  29.415  28.639  1.00  0.00     0.210 HD
ENDBRANCH  12  29
ENDBRANCH   7   8
ENDBRANCH   1   7
BRANCH   2  31
HETATM   31  O4  UNL     1      30.821  30.429  23.701  1.00  0.00    -0.391 OA
ATOM     32  H4  UNL     1      31.118  29.529  23.762  1.00  0.00     0.210 HD
ENDBRANCH   2  31
BRANCH   6  33
HETATM   33  O8  UNL     1      29.386  33.041  25.522  1.00  0.00    -0.390 OA
ATOM     34  H8  UNL     1      29.785  32.937  26.378  1.00  0.00     0.210 HD
ENDBRANCH   6  33
BRANCH   3  35
HETATM   35  N3  UNL     1      33.125  32.870  22.358  1.00  0.00    -0.070 N
ATOM     36  H33 UNL     1      33.334  33.288  23.265  1.00  0.00     0.274 HD
ATOM     37  H32 UNL     1      33.984  32.337  22.227  1.00  0.00     0.274 HD
ATOM     38  H31 UNL     1      33.016  33.583  21.637  1.00  0.00     0.274 HD
ENDBRANCH   3  35
BRANCH   5  39
HETATM   39  O7  UNL     1      28.861  33.973  22.966  1.00  0.00    -0.390 OA
ATOM     40  H7  UNL     1      27.963  33.670  22.901  1.00  0.00     0.210 HD
ENDBRANCH   5  39
BRANCH   4  41
HETATM   41  O5  UNL     1      30.864  33.800  21.277  1.00  0.00    -0.373 OA
BRANCH  41  42
HETATM   42  C14 UNL     1      30.695  33.627  19.954  1.00  0.00     0.254 C
BRANCH  42  43
HETATM   43  C15 UNL     1      31.485  34.617  19.185  1.00  0.00     0.171 A
HETATM   44  N4  UNL     1      32.782  34.521  19.044  1.00  0.00    -0.326 N
HETATM   45  C16 UNL     1      33.596  35.446  18.313  1.00  0.00     0.404 A
ATOM     46  H4  UNL     1      33.248  33.729  19.487  1.00  0.00     0.165 HD
HETATM   47  N6  UNL     1      32.872  36.524  17.724  1.00  0.00    -0.270 N
HETATM   48  N7  UNL     1      31.629  36.645  17.842  1.00  0.00    -0.201 N
ATOM     49  H6  UNL     1      33.384  37.223  17.186  1.00  0.00     0.186 HD
HETATM   50  O6  UNL     1      30.913  35.718  18.558  1.00  0.00    -0.207 OA
ATOM     51  H7  UNL     1      31.150  37.432  17.405  1.00  0.00     0.216 HD
BRANCH  45  52
HETATM   52  N5  UNL     1      34.639  36.016  19.169  1.00  0.00    -0.039 N
ATOM     53  H53 UNL     1      34.990  35.334  19.840  1.00  0.00     0.279 HD
ATOM     54  H52 UNL     1      35.503  36.181  18.651  1.00  0.00     0.279 HD
ATOM     55  H51 UNL     1      34.310  36.863  19.631  1.00  0.00     0.279 HD
ENDBRANCH  45  52
ENDBRANCH  42  43
ENDBRANCH  41  42
ENDBRANCH   4  41
TORSDOF 17
ENDMDL