MODEL 2
REMARK VINA RESULT: -6.939126221      3.324      8.606
REMARK  15 active torsions:
REMARK  status: ('A' for Active; 'I' for Inactive)
REMARK    1  A    between atoms: N1_1  and  C1_4
REMARK    2  A    between atoms: C2_7  and  N3_8
REMARK    3  A    between atoms: N6_16  and  C4_17
REMARK    4  A    between atoms: C7_20  and  C8_21
REMARK    5  A    between atoms: C9_24  and  N8_25
REMARK    6  A    between atoms: N8_25  and  C10_27
REMARK    7  A    between atoms: C10_27  and  C11_28
REMARK    8  A    between atoms: C10_27  and  C12_31
REMARK    9  A    between atoms: C12_31  and  O2_32
REMARK   10  A    between atoms: C12_31  and  O3_34
REMARK   11  A    between atoms: C14_38  and  S1_39
REMARK   12  A    between atoms: S1_39  and  N10_42
REMARK   13  A    between atoms: N10_42  and  O7_43
REMARK   14  A    between atoms: N10_42  and  N11_45
REMARK   15  A    between atoms: N11_45  and  O8_46
ROOT
HETATM    1  C4  UNL     1      32.159  27.333  28.029  1.00  0.00     0.131 A
HETATM    2  C5  UNL     1      31.028  27.150  27.277  1.00  0.00     0.051 A
HETATM    3  C6  UNL     1      30.468  28.266  26.712  1.00  0.00     0.022 A
HETATM    4  C7  UNL     1      30.996  29.538  26.874  1.00  0.00     0.055 A
HETATM    5  C14 UNL     1      32.124  29.681  27.632  1.00  0.00     0.163 A
HETATM    6  N12 UNL     1      32.667  28.557  28.186  1.00  0.00    -0.330 N
ATOM      7  H12 UNL     1      33.510  28.659  28.752  1.00  0.00     0.168 HD
ENDROOT
BRANCH   1   8
HETATM    8  N6  UNL     1      32.782  26.201  28.637  1.00  0.00    -0.206 N
HETATM    9  N5  UNL     1      32.907  26.026  29.938  1.00  0.00    -0.232 N
HETATM   10  N4  UNL     1      33.522  24.894  30.197  1.00  0.00    -0.279 N
ATOM     11  H5  UNL     1      32.573  26.679  30.646  1.00  0.00     0.209 HD
HETATM   12  C3  UNL     1      33.811  24.305  29.028  1.00  0.00     0.140 A
ATOM     13  H4  UNL     1      33.742  24.528  31.124  1.00  0.00     0.189 HD
HETATM   14  C2  UNL     1      34.436  23.129  28.674  1.00  0.00     0.147 A
HETATM   15  C15 UNL     1      33.340  25.137  28.039  1.00  0.00     0.177 A
HETATM   16  N2  UNL     1      34.559  22.842  27.371  1.00  0.00    -0.175 N
HETATM   17  C1  UNL     1      34.105  23.642  26.404  1.00  0.00     0.679 A
ATOM     18  H2  UNL     1      35.021  21.973  27.106  1.00  0.00     0.186 HD
HETATM   19  N13 UNL     1      33.490  24.802  26.752  1.00  0.00    -0.172 N
ATOM     20  H13 UNL     1      33.139  25.424  26.025  1.00  0.00     0.186 HD
BRANCH  14  21
HETATM   21  N3  UNL     1      34.881  22.343  29.588  1.00  0.00    -0.383 N
ATOM     22  H32 UNL     1      35.639  21.696  29.374  1.00  0.00     0.157 HD
ATOM     23  H31 UNL     1      34.498  22.344  30.533  1.00  0.00     0.157 HD
ENDBRANCH  14  21
BRANCH  17  24
HETATM   24  N1  UNL     1      34.250  23.320  25.171  1.00  0.00    -0.234 N
ATOM     25  H12 UNL     1      34.922  23.809  24.579  1.00  0.00     0.174 HD
ATOM     26  H11 UNL     1      33.693  22.569  24.764  1.00  0.00     0.174 HD
ENDBRANCH  17  24
ENDBRANCH   1   8
BRANCH   5  27
HETATM   27  S1  UNL     1      32.850  31.231  27.977  1.00  0.00     0.299 S
HETATM   28  O5  UNL     1      32.188  31.917  29.116  1.00  0.00    -0.201 OA
HETATM   29  O6  UNL     1      34.278  30.925  28.499  1.00  0.00    -0.201 OA
BRANCH  27  30
HETATM   30  N10 UNL     1      33.099  32.191  26.585  1.00  0.00     0.040 NA
BRANCH  30  31
HETATM   31  O7  UNL     1      33.617  31.452  25.557  1.00  0.00    -0.281 OA
ATOM     32  H7  UNL     1      33.816  30.565  25.834  1.00  0.00     0.240 HD
ENDBRANCH  30  31
BRANCH  30  33
HETATM   33  N11 UNL     1      34.084  33.188  26.820  1.00  0.00     0.034 NA
BRANCH  33  34
HETATM   34  O8  UNL     1      34.072  33.609  28.096  1.00  0.00    -0.279 OA
ATOM     35  H8  UNL     1      34.844  33.321  28.569  1.00  0.00     0.240 HD
ENDBRANCH  33  34
ENDBRANCH  30  33
ENDBRANCH  27  30
ENDBRANCH   5  27
BRANCH   4  36
HETATM   36  C8  UNL     1      30.337  30.668  26.196  1.00  0.00     0.162 A
HETATM   37  N7  UNL     1      30.693  31.183  25.002  1.00  0.00    -0.321 N
HETATM   38  C9  UNL     1      29.878  32.222  24.657  1.00  0.00     0.130 A
ATOM     39  H7  UNL     1      31.468  30.843  24.433  1.00  0.00     0.169 HD
HETATM   40  C13 UNL     1      29.006  32.309  25.710  1.00  0.00     0.192 A
HETATM   41  O4  UNL     1      29.324  31.372  26.582  1.00  0.00    -0.301 OA
BRANCH  38  42
HETATM   42  N8  UNL     1      29.995  32.970  23.459  1.00  0.00    -0.336 N
ATOM     43  H8  UNL     1      29.361  33.762  23.348  1.00  0.00     0.167 HD
BRANCH  42  44
HETATM   44  C10 UNL     1      30.903  32.729  22.402  1.00  0.00     0.131 C
BRANCH  44  45
HETATM   45  C11 UNL     1      30.535  33.300  21.083  1.00  0.00     0.282 C
HETATM   46  N9  UNL     1      31.523  33.962  20.337  1.00  0.00    -0.056 NA
HETATM   47  O1  UNL     1      29.361  33.177  20.677  1.00  0.00    -0.270 OA
ENDBRANCH  44  45
BRANCH  44  48
HETATM   48  C12 UNL     1      32.362  32.857  22.740  1.00  0.00     0.310 C
BRANCH  48  49
HETATM   49  O2  UNL     1      32.967  31.583  22.832  1.00  0.00    -0.366 OA
ATOM     50  H2  UNL     1      33.206  31.389  23.731  1.00  0.00     0.213 HD
ENDBRANCH  48  49
BRANCH  48  51
HETATM   51  O3  UNL     1      32.625  33.617  23.863  1.00  0.00    -0.366 OA
ATOM     52  H3  UNL     1      32.395  34.535  23.779  1.00  0.00     0.213 HD
ENDBRANCH  48  51
ENDBRANCH  44  48
ENDBRANCH  42  44
ENDBRANCH  38  42
ENDBRANCH   4  36
TORSDOF 15
ENDMDL