MODEL 1
REMARK VINA RESULT: -6.979660181      0.000      0.000
REMARK  17 active torsions:
REMARK  status: ('A' for Active; 'I' for Inactive)
REMARK    1  A    between atoms: C2_2  and  O1_3
REMARK    2  A    between atoms: C3_5  and  O2_6
REMARK    3  A    between atoms: C4_8  and  S1_9
REMARK    4  A    between atoms: S1_9  and  C5_10
REMARK    5  A    between atoms: C7_12  and  N1_13
REMARK    6  A    between atoms: C8_18  and  N3_19
REMARK    7  A    between atoms: C9_24  and  O3_25
REMARK    8  A    between atoms: C11_29  and  O4_30
REMARK    9  A    between atoms: C12_32  and  N6_33
REMARK   10  A    between atoms: N6_33  and  C13_36
REMARK   11  A    between atoms: C13_36  and  O5_37
REMARK   12  A    between atoms: C13_36  and  C14_39
REMARK   13  A    between atoms: C14_39  and  O6_40
REMARK   14  A    between atoms: C14_39  and  C15_42
REMARK   15  A    between atoms: C15_42  and  O7_43
REMARK   16  A    between atoms: C15_42  and  C16_45
REMARK   17  A    between atoms: C16_45  and  N7_46
ROOT
HETATM    1  C1  UNL     1      34.405  27.163  27.130  1.00  0.00     0.051 C
HETATM    2  C2  UNL     1      33.229  27.702  26.294  1.00  0.00     0.112 C
HETATM    3  C3  UNL     1      32.476  26.583  25.674  1.00  0.00     0.172 C
HETATM    4  C4  UNL     1      31.049  26.436  25.955  1.00  0.00     0.137 C
HETATM    5  C9  UNL     1      30.302  27.534  26.617  1.00  0.00     0.189 C
HETATM    6  C10 UNL     1      29.151  27.972  25.765  1.00  0.00     0.102 C
HETATM    7  N5  UNL     1      28.274  28.315  25.084  1.00  0.00    -0.194 NA
HETATM    8  C11 UNL     1      31.025  28.752  26.998  1.00  0.00     0.202 C
HETATM    9  C12 UNL     1      32.499  28.712  27.068  1.00  0.00     0.257 C
ENDROOT
BRANCH   5  10
HETATM   10  O3  UNL     1      29.636  27.041  27.776  1.00  0.00    -0.372 OA
ATOM     11  H3  UNL     1      29.505  27.746  28.401  1.00  0.00     0.212 HD
ENDBRANCH   5  10
BRANCH   4  12
HETATM   12  S1  UNL     1      30.632  24.897  26.839  1.00  0.00    -0.100 SA
BRANCH  12  13
HETATM   13  C5  UNL     1      31.786  24.474  28.117  1.00  0.00     0.090 A
HETATM   14  C6  UNL     1      32.442  23.277  28.239  1.00  0.00     0.086 A
HETATM   15  C7  UNL     1      33.331  23.060  29.260  1.00  0.00     0.117 A
HETATM   16  N2  UNL     1      33.592  24.022  30.185  1.00  0.00    -0.177 N
HETATM   17  C8  UNL     1      32.934  25.172  30.035  1.00  0.00     0.678 A
ATOM     18  H2  UNL     1      34.252  23.873  30.949  1.00  0.00     0.185 HD
HETATM   19  N4  UNL     1      32.061  25.430  29.058  1.00  0.00    -0.186 N
ATOM     20  H4  UNL     1      31.599  26.339  29.013  1.00  0.00     0.185 HD
BRANCH  15  21
HETATM   21  N1  UNL     1      33.949  21.932  29.372  1.00  0.00    -0.385 N
ATOM     22  H12 UNL     1      34.552  21.640  28.603  1.00  0.00     0.157 HD
ATOM     23  H11 UNL     1      33.834  21.353  30.204  1.00  0.00     0.157 HD
ENDBRANCH  15  21
BRANCH  17  24
HETATM   24  N3  UNL     1      33.162  26.116  30.907  1.00  0.00    -0.234 N
ATOM     25  H32 UNL     1      33.690  25.868  31.744  1.00  0.00     0.174 HD
ATOM     26  H31 UNL     1      32.797  27.046  30.701  1.00  0.00     0.174 HD
ENDBRANCH  17  24
ENDBRANCH  12  13
ENDBRANCH   4  12
BRANCH   8  27
HETATM   27  O4  UNL     1      30.550  29.145  28.279  1.00  0.00    -0.389 OA
ATOM     28  H4  UNL     1      30.288  30.056  28.219  1.00  0.00     0.210 HD
ENDBRANCH   8  27
BRANCH   3  29
HETATM   29  O2  UNL     1      32.705  26.541  24.289  1.00  0.00    -0.391 OA
ATOM     30  H2  UNL     1      32.052  26.002  23.859  1.00  0.00     0.210 HD
ENDBRANCH   3  29
BRANCH   9  31
HETATM   31  N6  UNL     1      32.945  30.091  26.847  1.00  0.00    -0.037 N
ATOM     32  H62 UNL     1      33.774  30.113  26.253  1.00  0.00     0.281 HD
ATOM     33  H61 UNL     1      32.292  30.591  26.244  1.00  0.00     0.281 HD
BRANCH  31  34
HETATM   34  C13 UNL     1      33.174  30.824  28.076  1.00  0.00     0.350 C
BRANCH  34  35
HETATM   35  O5  UNL     1      34.491  30.758  28.445  1.00  0.00    -0.368 OA
ATOM     36  H5  UNL     1      34.599  30.216  29.219  1.00  0.00     0.212 HD
ENDBRANCH  34  35
BRANCH  34  37
HETATM   37  C14 UNL     1      32.806  32.287  27.746  1.00  0.00     0.204 C
BRANCH  37  38
HETATM   38  O6  UNL     1      34.074  32.996  27.855  1.00  0.00    -0.389 OA
ATOM     39  H6  UNL     1      33.827  33.851  28.190  1.00  0.00     0.210 HD
ENDBRANCH  37  38
BRANCH  37  40
HETATM   40  C15 UNL     1      32.401  32.348  26.300  1.00  0.00     0.171 C
BRANCH  40  41
HETATM   41  O7  UNL     1      33.426  33.049  25.574  1.00  0.00    -0.391 OA
ATOM     42  H7  UNL     1      33.333  33.978  25.750  1.00  0.00     0.210 HD
ENDBRANCH  40  41
BRANCH  40  43
HETATM   43  C16 UNL     1      31.130  33.132  26.118  1.00  0.00     0.184 C
BRANCH  43  44
HETATM   44  N7  UNL     1      30.138  32.487  25.297  1.00  0.00    -0.284 N
HETATM   45  C17 UNL     1      30.249  31.986  24.037  1.00  0.00     0.154 A
HETATM   46  C18 UNL     1      29.001  31.497  23.737  1.00  0.00     0.146 A
HETATM   47  C19 UNL     1      28.574  30.858  22.512  1.00  0.00     0.120 C
HETATM   48  N9  UNL     1      28.190  31.708  24.797  1.00  0.00    -0.275 N
HETATM   49  N8  UNL     1      28.205  30.329  21.524  1.00  0.00    -0.190 NA
HETATM   50  N10 UNL     1      28.893  32.299  25.716  1.00  0.00    -0.240 N
ATOM     51  H9  UNL     1      27.206  31.450  24.863  1.00  0.00     0.189 HD
ATOM     52  H10 UNL     1      28.538  32.579  26.631  1.00  0.00     0.208 HD
ENDBRANCH  43  44
ENDBRANCH  40  43
ENDBRANCH  37  40
ENDBRANCH  34  37
ENDBRANCH  31  34
ENDBRANCH   9  31
BRANCH   2  53
HETATM   53  O1  UNL     1      33.910  28.385  25.251  1.00  0.00    -0.385 OA
ATOM     54  H1  UNL     1      33.189  28.805  24.796  1.00  0.00     0.210 HD
ENDBRANCH   2  53
TORSDOF 17
ENDMDL