MODEL 2
REMARK VINA RESULT: -6.573654572      2.353      7.413
REMARK  16 active torsions:
REMARK  status: ('A' for Active; 'I' for Inactive)
REMARK       I    between atoms: N2_3  and  C2_5
REMARK    1  A    between atoms: C2_5  and  C3_7
REMARK    2  A    between atoms: C4_10  and  C5_11
REMARK    3  A    between atoms: C5_11  and  C6_12
REMARK    4  A    between atoms: C5_11  and  C12_28
REMARK    5  A    between atoms: C5_11  and  C16_37
REMARK    6  A    between atoms: C6_12  and  C7_14
REMARK    7  A    between atoms: C7_14  and  O3_15
REMARK    8  A    between atoms: C7_14  and  N4_17
REMARK    9  A    between atoms: C10_22  and  C11_23
REMARK   10  A    between atoms: C11_23  and  O6_24
REMARK   11  A    between atoms: C11_23  and  O7_26
REMARK   12  A    between atoms: C16_37  and  O9_38
REMARK   13  A    between atoms: C16_37  and  O10_40
REMARK   14  A    between atoms: C17_42  and  N7_43
REMARK   15  A    between atoms: N7_43  and  N8_45
REMARK   16  A    between atoms: C18_50  and  O11_51
ROOT
HETATM    1  N1  UNL     1      36.376  35.479  23.430  1.00  0.00    -0.172 NA
HETATM    2  C1  UNL     1      35.388  34.885  23.503  1.00  0.00     0.184 C
HETATM    3  N2  UNL     1      34.175  34.146  23.614  1.00  0.00    -0.258 N
ATOM      4  H2  UNL     1      33.628  33.949  22.776  1.00  0.00     0.181 HD
HETATM    5  C2  UNL     1      33.729  33.691  24.842  1.00  0.00     0.285 C
HETATM    6  O1  UNL     1      34.475  33.979  25.851  1.00  0.00    -0.265 OA
ENDROOT
BRANCH   5   7
HETATM    7  C3  UNL     1      32.537  32.942  25.094  1.00  0.00     0.153 A
HETATM    8  N3  UNL     1      32.678  31.754  25.757  1.00  0.00    -0.347 N
HETATM    9  C4  UNL     1      31.650  30.928  26.076  1.00  0.00     0.085 A
ATOM     10  H3  UNL     1      33.618  31.471  26.031  1.00  0.00     0.166 HD
HETATM   11  C17 UNL     1      30.416  31.355  25.689  1.00  0.00     0.146 A
HETATM   12  N9  UNL     1      30.242  32.525  25.031  1.00  0.00    -0.319 N
HETATM   13  C18 UNL     1      31.276  33.319  24.729  1.00  0.00     0.174 A
ATOM     14  H9  UNL     1      29.300  32.808  24.759  1.00  0.00     0.169 HD
BRANCH   9  15
HETATM   15  C5  UNL     1      31.852  29.655  26.760  1.00  0.00     0.178 C
BRANCH  15  16
HETATM   16  C6  UNL     1      33.192  29.509  27.398  1.00  0.00     0.204 C
HETATM   17  O2  UNL     1      33.609  30.353  28.171  1.00  0.00    -0.291 OA
BRANCH  16  18
HETATM   18  C7  UNL     1      34.079  28.342  27.131  1.00  0.00     0.320 C
BRANCH  18  19
HETATM   19  O3  UNL     1      35.411  28.758  27.064  1.00  0.00    -0.368 OA
ATOM     20  H3  UNL     1      35.642  29.242  27.847  1.00  0.00     0.212 HD
ENDBRANCH  18  19
BRANCH  18  21
HETATM   21  N4  UNL     1      33.864  27.271  28.099  1.00  0.00    -0.211 N
HETATM   22  O4  UNL     1      33.563  27.416  29.358  1.00  0.00    -0.190 OA
HETATM   23  C8  UNL     1      33.428  26.296  29.991  1.00  0.00     0.307 A
HETATM   24  O5  UNL     1      33.138  26.104  31.221  1.00  0.00    -0.258 OA
HETATM   25  C9  UNL     1      33.663  25.314  29.062  1.00  0.00     0.116 A
HETATM   26  C10 UNL     1      33.937  25.966  27.869  1.00  0.00     0.099 A
BRANCH  26  27
HETATM   27  C11 UNL     1      34.226  25.255  26.620  1.00  0.00     0.307 C
BRANCH  27  28
HETATM   28  O6  UNL     1      35.597  24.883  26.683  1.00  0.00    -0.366 OA
ATOM     29  H6  UNL     1      36.064  25.491  26.122  1.00  0.00     0.213 HD
ENDBRANCH  27  28
BRANCH  27  30
HETATM   30  O7  UNL     1      33.557  24.039  26.476  1.00  0.00    -0.366 OA
ATOM     31  H7  UNL     1      34.032  23.285  26.806  1.00  0.00     0.213 HD
ENDBRANCH  27  30
ENDBRANCH  26  27
ENDBRANCH  18  21
ENDBRANCH  16  18
ENDBRANCH  15  16
BRANCH  15  32
HETATM   32  C12 UNL     1      31.756  28.503  25.761  1.00  0.00     0.111 A
HETATM   33  N5  UNL     1      32.463  28.415  24.656  1.00  0.00    -0.311 N
HETATM   34  C13 UNL     1      32.356  27.411  23.761  1.00  0.00     0.247 A
ATOM     35  H5  UNL     1      33.138  29.154  24.463  1.00  0.00     0.170 HD
HETATM   36  O8  UNL     1      33.086  27.437  22.743  1.00  0.00    -0.268 OA
HETATM   37  C14 UNL     1      31.438  26.403  24.021  1.00  0.00     0.091 A
HETATM   38  C15 UNL     1      30.695  26.487  25.171  1.00  0.00     0.095 A
HETATM   39  N6  UNL     1      30.870  27.533  26.013  1.00  0.00    -0.354 N
ATOM     40  H6  UNL     1      30.309  27.582  26.864  1.00  0.00     0.166 HD
ENDBRANCH  15  32
BRANCH  15  41
HETATM   41  C16 UNL     1      30.760  29.318  27.722  1.00  0.00     0.283 C
BRANCH  41  42
HETATM   42  O9  UNL     1      30.796  28.195  28.451  1.00  0.00    -0.369 OA
ATOM     43  H9  UNL     1      31.621  27.820  28.739  1.00  0.00     0.212 HD
ENDBRANCH  41  42
BRANCH  41  44
HETATM   44  O10 UNL     1      30.513  30.439  28.558  1.00  0.00    -0.369 OA
ATOM     45  H10 UNL     1      29.897  30.191  29.239  1.00  0.00     0.212 HD
ENDBRANCH  41  44
ENDBRANCH  15  41
ENDBRANCH   9  15
BRANCH  11  46
HETATM   46  N7  UNL     1      29.357  30.702  25.951  1.00  0.00    -0.290 N
ATOM     47  H7  UNL     1      29.109  30.521  26.924  1.00  0.00     0.188 HD
BRANCH  46  48
HETATM   48  N8  UNL     1      28.536  30.233  24.942  1.00  0.00    -0.344 N
ATOM     49  H82 UNL     1      27.595  30.619  24.864  1.00  0.00     0.176 HD
ATOM     50  H81 UNL     1      28.857  29.518  24.289  1.00  0.00     0.176 HD
ENDBRANCH  46  48
ENDBRANCH  11  46
BRANCH  13  51
HETATM   51  O11 UNL     1      31.043  34.497  24.059  1.00  0.00    -0.344 OA
ATOM     52  H11 UNL     1      30.719  34.504  23.165  1.00  0.00     0.219 HD
ENDBRANCH  13  51
ENDBRANCH   5   7
TORSDOF 16
ENDMDL