MODEL 2
REMARK VINA RESULT: -5.314956910      1.638      1.806
REMARK  10 active torsions:
REMARK  status: ('A' for Active; 'I' for Inactive)
REMARK    1  A    between atoms: N1_1  and  N2_4
REMARK    2  A    between atoms: C1_6  and  C2_7
REMARK    3  A    between atoms: C2_7  and  N3_9
REMARK    4  A    between atoms: N3_9  and  C3_12
REMARK    5  A    between atoms: C3_12  and  C4_13
REMARK    6  A    between atoms: C4_13  and  N4_14
REMARK       I    between atoms: N4_14  and  C5_16
REMARK    7  A    between atoms: C5_16  and  C6_18
REMARK    8  A    between atoms: C6_18  and  N5_19
REMARK    9  A    between atoms: N5_19  and  C7_21
REMARK   10  A    between atoms: C7_21  and  C8_22
ROOT
HETATM    1  C3  UNL     1      81.017 188.561 135.525  1.00  0.00     0.254 C
ENDROOT
BRANCH   1   2
HETATM    2  N3  UNL     1      81.990 188.080 136.506  1.00  0.00    -0.052 N
ATOM      3  H32 UNL     1      81.979 187.061 136.553  1.00  0.00     0.279 HD
ATOM      4  H31 UNL     1      81.682 188.298 137.453  1.00  0.00     0.279 HD
BRANCH   2   5
HETATM    5  C2  UNL     1      83.308 188.555 136.288  1.00  0.00     0.321 C
HETATM    6 CL1  UNL     1      83.277 190.229 135.600  1.00  0.00    -0.089 Cl
BRANCH   5   7
HETATM    7  C1  UNL     1      84.172 188.505 137.453  1.00  0.00     0.128 C
HETATM    8  N2  UNL     1      84.713 189.576 137.908  1.00  0.00    -0.319 N
ATOM      9  H2  UNL     1      84.534 190.468 137.446  1.00  0.00     0.185 HD
BRANCH   8  10
HETATM   10  N1  UNL     1      85.542 189.533 139.027  1.00  0.00    -0.346 N
ATOM     11  H12 UNL     1      86.323 188.877 139.032  1.00  0.00     0.176 HD
ATOM     12  H11 UNL     1      85.371 190.145 139.825  1.00  0.00     0.176 HD
ENDBRANCH   8  10
ENDBRANCH   5   7
ENDBRANCH   2   5
ENDBRANCH   1   2
BRANCH   1  13
HETATM   13  C4  UNL     1      81.121 187.655 134.336  1.00  0.00     0.150 C
BRANCH  13  14
HETATM   14  N4  UNL     1      79.852 187.319 133.719  1.00  0.00    -0.358 N
HETATM   15  C5  UNL     1      79.399 188.024 132.586  1.00  0.00     0.234 C
HETATM   16  O1  UNL     1      80.119 188.970 132.107  1.00  0.00    -0.272 OA
ATOM     17  H4  UNL     1      79.283 186.567 134.108  1.00  0.00     0.162 HD
BRANCH  15  18
HETATM   18  C6  UNL     1      78.104 187.724 131.896  1.00  0.00     0.217 C
BRANCH  18  19
HETATM   19  N5  UNL     1      78.003 186.328 131.570  1.00  0.00    -0.408 N
ATOM     20  H5  UNL     1      77.317 185.714 132.008  1.00  0.00     0.153 HD
BRANCH  19  21
HETATM   21  C7  UNL     1      78.935 185.859 130.585  1.00  0.00     0.185 C
BRANCH  21  22
HETATM   22  C8  UNL     1      79.345 184.429 131.005  1.00  0.00     0.370 C
HETATM   23  F1  UNL     1      79.876 183.778 129.879  1.00  0.00    -0.213 F
HETATM   24  F2  UNL     1      80.410 184.454 131.897  1.00  0.00    -0.213 F
ENDBRANCH  21  22
ENDBRANCH  19  21
ENDBRANCH  18  19
ENDBRANCH  15  18
ENDBRANCH  13  14
ENDBRANCH   1  13
TORSDOF 10
ENDMDL