MODEL 5
REMARK VINA RESULT: -6.043463676      2.082      2.172
REMARK  8 active torsions:
REMARK  status: ('A' for Active; 'I' for Inactive)
REMARK    1  A    between atoms: C1_2  and  N1_3
REMARK    2  A    between atoms: N1_3  and  C2_5
REMARK    3  A    between atoms: C2_5  and  C3_6
REMARK    4  A    between atoms: C3_6  and  N2_7
REMARK       I    between atoms: N2_7  and  C4_9
REMARK       I    between atoms: C4_9  and  N3_11
REMARK    5  A    between atoms: N3_11  and  C5_13
REMARK    6  A    between atoms: C5_13  and  C6_14
REMARK    7  A    between atoms: C6_14  and  N4_15
REMARK       I    between atoms: N4_15  and  C7_17
REMARK    8  A    between atoms: C7_17  and  C8_19
ROOT
HETATM    1  N2  UNL     1      80.618 188.838 133.340  1.00  0.00    -0.342 N
ATOM      2  H2  UNL     1      80.859 189.809 133.144  1.00  0.00     0.164 HD
HETATM    3  C4  UNL     1      81.116 188.238 134.519  1.00  0.00     0.316 C
HETATM    4  O2  UNL     1      80.841 187.051 134.791  1.00  0.00    -0.247 OA
HETATM    5  N3  UNL     1      81.930 188.987 135.398  1.00  0.00    -0.342 N
ATOM      6  H3  UNL     1      82.159 189.958 135.185  1.00  0.00     0.164 HD
ENDROOT
BRANCH   5   7
HETATM    7  C5  UNL     1      82.442 188.357 136.620  1.00  0.00     0.144 C
BRANCH   7   8
HETATM    8  C6  UNL     1      83.937 188.346 136.599  1.00  0.00     0.142 C
BRANCH   8   9
HETATM    9  N4  UNL     1      84.473 188.911 137.796  1.00  0.00    -0.355 N
HETATM   10  C7  UNL     1      85.552 188.317 138.523  1.00  0.00     0.282 C
HETATM   11  O3  UNL     1      86.085 187.245 138.129  1.00  0.00    -0.267 OA
ATOM     12  H4  UNL     1      84.068 189.779 138.149  1.00  0.00     0.162 HD
BRANCH  10  13
HETATM   13  C8  UNL     1      86.061 188.947 139.749  1.00  0.00     0.444 C
HETATM   14  F1  UNL     1      86.373 190.253 139.504  1.00  0.00    -0.204 F
HETATM   15  F2  UNL     1      87.128 188.233 140.284  1.00  0.00    -0.204 F
ENDBRANCH  10  13
ENDBRANCH   8   9
ENDBRANCH   7   8
ENDBRANCH   5   7
BRANCH   1  16
HETATM   16  C3  UNL     1      79.776 188.120 132.395  1.00  0.00     0.144 C
BRANCH  16  17
HETATM   17  C2  UNL     1      78.347 188.474 132.677  1.00  0.00     0.141 C
BRANCH  17  18
HETATM   18  N1  UNL     1      77.899 187.989 133.951  1.00  0.00    -0.367 N
ATOM     19  H1  UNL     1      77.907 186.989 134.146  1.00  0.00     0.161 HD
BRANCH  18  20
HETATM   20  C1  UNL     1      77.447 188.898 134.939  1.00  0.00     0.348 C
HETATM   21  O1  UNL     1      78.225 189.584 135.666  1.00  0.00    -0.284 OA
ENDBRANCH  18  20
ENDBRANCH  17  18
ENDBRANCH  16  17
ENDBRANCH   1  16
TORSDOF 8
ENDMDL