MODEL 1
REMARK VINA RESULT: -5.926754863      0.000      0.000
REMARK  9 active torsions:
REMARK  status: ('A' for Active; 'I' for Inactive)
REMARK    1  A    between atoms: C2_2  and  C3_3
REMARK    2  A    between atoms: N2_7  and  C5_8
REMARK    3  A    between atoms: C5_8  and  N3_9
REMARK    4  A    between atoms: N3_9  and  C6_11
REMARK    5  A    between atoms: C6_11  and  N4_12
REMARK    6  A    between atoms: C6_11  and  C7_16
REMARK    7  A    between atoms: C7_16  and  N5_17
REMARK    8  A    between atoms: N5_17  and  C8_20
REMARK    9  A    between atoms: C8_20  and  C9_21
ROOT
HETATM    1  C6  UNL     1      82.680 188.809 135.960  1.00  0.00     0.304 C
ENDROOT
BRANCH   1   2
HETATM    2  N3  UNL     1      81.983 188.052 135.004  1.00  0.00    -0.378 N
ATOM      3  H3  UNL     1      82.447 187.368 134.406  1.00  0.00     0.157 HD
BRANCH   2   4
HETATM    4  C5  UNL     1      80.550 188.313 134.928  1.00  0.00     0.251 C
BRANCH   4   5
HETATM    5  N2  UNL     1      80.038 187.498 133.765  1.00  0.00    -0.301 N
HETATM    6  C4  UNL     1      79.875 188.055 132.551  1.00  0.00     0.187 A
HETATM    7  N1  UNL     1      79.473 187.134 131.696  1.00  0.00    -0.348 N
HETATM    8  C3  UNL     1      79.374 185.948 132.368  1.00  0.00     0.089 A
ATOM      9  H1  UNL     1      79.272 187.282 130.706  1.00  0.00     0.167 HD
HETATM   10  C10 UNL     1      79.738 186.220 133.672  1.00  0.00     0.219 A
HETATM   11  F3  UNL     1      79.785 185.300 134.662  1.00  0.00    -0.183 F
BRANCH   8  12
HETATM   12  C2  UNL     1      79.006 184.673 131.709  1.00  0.00     0.024 C
HETATM   13  C1  UNL     1      79.459 184.337 130.543  1.00  0.00     0.013 C
ENDBRANCH   8  12
ENDBRANCH   4   5
ENDBRANCH   2   4
ENDBRANCH   1   2
BRANCH   1  14
HETATM   14  N4  UNL     1      82.852 190.153 135.287  1.00  0.00    -0.057 N
ATOM     15  H43 UNL     1      83.816 190.484 135.245  1.00  0.00     0.276 HD
ATOM     16  H42 UNL     1      82.698 190.143 134.280  1.00  0.00     0.276 HD
ATOM     17  H41 UNL     1      82.218 190.761 135.806  1.00  0.00     0.276 HD
ENDBRANCH   1  14
BRANCH   1  18
HETATM   18  C7  UNL     1      83.942 188.428 136.604  1.00  0.00     0.286 C
BRANCH  18  19
HETATM   19  N5  UNL     1      84.067 188.449 138.003  1.00  0.00    -0.067 N
ATOM     20  H52 UNL     1      83.810 189.362 138.378  1.00  0.00     0.277 HD
ATOM     21  H51 UNL     1      83.343 187.880 138.442  1.00  0.00     0.277 HD
BRANCH  19  22
HETATM   22  C8  UNL     1      85.363 188.060 138.453  1.00  0.00     0.303 C
BRANCH  22  23
HETATM   23  C9  UNL     1      86.173 189.108 139.181  1.00  0.00     0.378 C
HETATM   24  F1  UNL     1      86.799 188.500 140.286  1.00  0.00    -0.213 F
HETATM   25  F2  UNL     1      85.574 190.236 139.550  1.00  0.00    -0.213 F
ENDBRANCH  22  23
ENDBRANCH  19  22
ENDBRANCH  18  19
ENDBRANCH   1  18
TORSDOF 9
ENDMDL