MODEL 1
REMARK VINA RESULT: -5.771611263      0.000      0.000
REMARK  9 active torsions:
REMARK  status: ('A' for Active; 'I' for Inactive)
REMARK    1  A    between atoms: C2_2  and  C3_3
REMARK    2  A    between atoms: C3_3  and  C4_5
REMARK    3  A    between atoms: C4_5  and  N1_6
REMARK    4  A    between atoms: C4_5  and  N2_10
REMARK    5  A    between atoms: N2_10  and  C5_12
REMARK    6  A    between atoms: C5_12  and  C6_13
REMARK    7  A    between atoms: C6_13  and  N3_14
REMARK       I    between atoms: N3_14  and  C7_16
REMARK       I    between atoms: C7_16  and  N4_18
REMARK    8  A    between atoms: N4_18  and  C8_20
REMARK    9  A    between atoms: C8_20  and  C9_21
ROOT
HETATM    1  C5  UNL     1      82.162 190.001 134.566  1.00  0.00     0.135 C
ENDROOT
BRANCH   1   2
HETATM    2  N2  UNL     1      80.900 190.451 134.109  1.00  0.00    -0.392 N
ATOM      3  H2  UNL     1      80.516 191.349 134.405  1.00  0.00     0.155 HD
BRANCH   2   4
HETATM    4  C4  UNL     1      80.188 189.598 133.218  1.00  0.00     0.315 C
BRANCH   4   5
HETATM    5  C3  UNL     1      78.819 189.224 133.617  1.00  0.00     0.241 C
HETATM    6  F1  UNL     1      78.861 187.951 134.195  1.00  0.00    -0.241 F
BRANCH   5   7
HETATM    7  C2  UNL     1      78.335 190.136 134.679  1.00  0.00     0.003 C
HETATM    8  C1  UNL     1      77.752 189.774 135.804  1.00  0.00     0.010 C
ENDBRANCH   5   7
ENDBRANCH   4   5
BRANCH   4   9
HETATM    9  N1  UNL     1      80.107 190.294 131.939  1.00  0.00    -0.056 N
ATOM     10  H13 UNL     1      79.825 189.682 131.173  1.00  0.00     0.276 HD
ATOM     11  H12 UNL     1      79.322 190.943 131.890  1.00  0.00     0.276 HD
ATOM     12  H11 UNL     1      81.006 190.747 131.771  1.00  0.00     0.276 HD
ENDBRANCH   4   9
ENDBRANCH   2   4
ENDBRANCH   1   2
BRANCH   1  13
HETATM   13  C6  UNL     1      81.970 188.687 135.298  1.00  0.00     0.143 C
BRANCH  13  14
HETATM   14  N3  UNL     1      82.411 188.753 136.660  1.00  0.00    -0.342 N
HETATM   15  C7  UNL     1      83.753 188.339 136.965  1.00  0.00     0.316 C
HETATM   16  O1  UNL     1      84.481 187.941 136.051  1.00  0.00    -0.247 OA
HETATM   17  N4  UNL     1      84.220 188.390 138.296  1.00  0.00    -0.338 N
ATOM     18  H4  UNL     1      83.595 188.716 139.033  1.00  0.00     0.164 HD
ATOM     19  H3  UNL     1      81.788 189.085 137.396  1.00  0.00     0.164 HD
BRANCH  17  20
HETATM   20  C8  UNL     1      85.551 187.995 138.631  1.00  0.00     0.195 C
BRANCH  20  21
HETATM   21  C9  UNL     1      86.368 189.086 139.227  1.00  0.00     0.370 C
HETATM   22  F2  UNL     1      85.499 190.161 139.462  1.00  0.00    -0.213 F
HETATM   23  F3  UNL     1      86.878 188.701 140.460  1.00  0.00    -0.213 F
ENDBRANCH  20  21
ENDBRANCH  17  20
ENDBRANCH  13  14
ENDBRANCH   1  13
TORSDOF 9
ENDMDL