MODEL 5
REMARK VINA RESULT: -5.360828108      2.132      3.105
REMARK  8 active torsions:
REMARK  status: ('A' for Active; 'I' for Inactive)
REMARK    1  A    between atoms: N1_2  and  C2_5
REMARK    2  A    between atoms: C2_5  and  C3_7
REMARK    3  A    between atoms: C3_7  and  C4_8
REMARK    4  A    between atoms: C3_7  and  N4_19
REMARK    5  A    between atoms: C4_8  and  N2_9
REMARK       I    between atoms: N2_9  and  C5_11
REMARK       I    between atoms: C5_11  and  N3_13
REMARK    6  A    between atoms: N3_13  and  C6_15
REMARK    7  A    between atoms: C6_15  and  C7_16
REMARK    8  A    between atoms: N4_19  and  C8_21
ROOT
HETATM    1  C3  UNL     1      81.127 188.900 133.921  1.00  0.00     0.163 C
ENDROOT
BRANCH   1   2
HETATM    2  C2  UNL     1      80.051 187.956 133.564  1.00  0.00     0.391 C
HETATM    3  F1  UNL     1      80.135 187.748 132.174  1.00  0.00    -0.217 F
BRANCH   2   4
HETATM    4  N1  UNL     1      79.988 186.705 134.224  1.00  0.00    -0.046 N
HETATM    5  C1  UNL     1      79.791 185.580 133.323  1.00  0.00     0.270 C
ATOM      6  H12 UNL     1      79.272 186.716 134.949  1.00  0.00     0.280 HD
ATOM      7  H11 UNL     1      80.815 186.562 134.804  1.00  0.00     0.280 HD
ENDBRANCH   2   4
ENDBRANCH   1   2
BRANCH   1   8
HETATM    8  C4  UNL     1      81.508 189.055 135.334  1.00  0.00     0.154 C
BRANCH   8   9
HETATM    9  N2  UNL     1      82.864 189.203 135.705  1.00  0.00    -0.341 N
HETATM   10  C5  UNL     1      83.266 188.588 136.959  1.00  0.00     0.316 C
HETATM   11  O1  UNL     1      82.440 187.972 137.649  1.00  0.00    -0.247 OA
HETATM   12  N3  UNL     1      84.601 188.717 137.354  1.00  0.00    -0.338 N
ATOM     13  H3  UNL     1      85.214 189.218 136.712  1.00  0.00     0.164 HD
ATOM     14  H2  UNL     1      83.527 189.715 135.122  1.00  0.00     0.164 HD
BRANCH  12  15
HETATM   15  C6  UNL     1      85.199 188.233 138.540  1.00  0.00     0.195 C
BRANCH  15  16
HETATM   16  C7  UNL     1      86.202 189.140 139.167  1.00  0.00     0.370 C
HETATM   17  F2  UNL     1      86.771 188.497 140.301  1.00  0.00    -0.213 F
HETATM   18  F3  UNL     1      85.643 190.265 139.682  1.00  0.00    -0.213 F
ENDBRANCH  15  16
ENDBRANCH  12  15
ENDBRANCH   8   9
ENDBRANCH   1   8
BRANCH   1  19
HETATM   19  N4  UNL     1      80.687 190.230 133.465  1.00  0.00    -0.357 N
ATOM     20  H4  UNL     1      81.283 190.738 132.812  1.00  0.00     0.162 HD
BRANCH  19  21
HETATM   21  C8  UNL     1      79.486 190.838 133.883  1.00  0.00     0.349 C
HETATM   22  O2  UNL     1      79.331 192.086 133.886  1.00  0.00    -0.284 OA
ENDBRANCH  19  21
ENDBRANCH   1  19
TORSDOF 8
ENDMDL