MODEL 1
REMARK VINA RESULT: -6.248228517      0.000      0.000
REMARK  8 active torsions:
REMARK  status: ('A' for Active; 'I' for Inactive)
REMARK    1  A    between atoms: C1_2  and  N1_3
REMARK    2  A    between atoms: N1_3  and  C2_5
REMARK    3  A    between atoms: C2_5  and  C3_7
REMARK       I    between atoms: C3_7  and  N2_9
REMARK    4  A    between atoms: N2_9  and  C4_11
REMARK    5  A    between atoms: C4_11  and  C5_12
REMARK    6  A    between atoms: C5_12  and  N3_13
REMARK       I    between atoms: N3_13  and  C6_15
REMARK       I    between atoms: C6_15  and  N4_17
REMARK    7  A    between atoms: N4_17  and  C7_19
REMARK    8  A    between atoms: C7_19  and  C8_20
ROOT
HETATM    1  C4  UNL     1      81.284 189.020 134.651  1.00  0.00     0.142 C
ENDROOT
BRANCH   1   2
HETATM    2  N2  UNL     1      82.128 188.409 135.654  1.00  0.00    -0.356 N
HETATM    3  C3  UNL     1      83.218 189.086 136.231  1.00  0.00     0.271 C
HETATM    4  O2  UNL     1      83.492 190.257 135.881  1.00  0.00    -0.268 OA
ATOM      5  H2  UNL     1      81.927 187.455 135.953  1.00  0.00     0.162 HD
BRANCH   3   6
HETATM    6  C2  UNL     1      84.031 188.387 137.257  1.00  0.00     0.364 C
HETATM    7  F1  UNL     1      83.232 187.599 138.074  1.00  0.00    -0.216 F
BRANCH   6   8
HETATM    8  N1  UNL     1      84.782 189.277 138.082  1.00  0.00    -0.330 N
ATOM      9  H1  UNL     1      84.570 190.275 138.098  1.00  0.00     0.165 HD
BRANCH   8  10
HETATM   10  C1  UNL     1      85.829 188.746 138.881  1.00  0.00     0.351 C
HETATM   11  O1  UNL     1      86.314 187.587 138.666  1.00  0.00    -0.284 OA
ENDBRANCH   8  10
ENDBRANCH   6   8
ENDBRANCH   3   6
ENDBRANCH   1   2
BRANCH   1  12
HETATM   12  C5  UNL     1      79.830 189.079 135.025  1.00  0.00     0.144 C
BRANCH  12  13
HETATM   13  N3  UNL     1      78.975 188.329 134.143  1.00  0.00    -0.342 N
HETATM   14  C6  UNL     1      79.141 186.943 133.905  1.00  0.00     0.316 C
HETATM   15  O3  UNL     1      80.061 186.272 134.467  1.00  0.00    -0.247 OA
HETATM   16  N4  UNL     1      78.251 186.267 133.006  1.00  0.00    -0.338 N
ATOM     17  H4  UNL     1      77.518 186.818 132.559  1.00  0.00     0.164 HD
ATOM     18  H3  UNL     1      78.216 188.818 133.669  1.00  0.00     0.164 HD
BRANCH  16  19
HETATM   19  C7  UNL     1      78.324 184.874 132.695  1.00  0.00     0.195 C
BRANCH  19  20
HETATM   20  C8  UNL     1      79.121 184.570 131.443  1.00  0.00     0.370 C
HETATM   21  F2  UNL     1      78.543 183.423 130.894  1.00  0.00    -0.213 F
HETATM   22  F3  UNL     1      80.432 184.353 131.733  1.00  0.00    -0.213 F
ENDBRANCH  19  20
ENDBRANCH  16  19
ENDBRANCH  12  13
ENDBRANCH   1  12
TORSDOF 8
ENDMDL