MODEL 3
REMARK VINA RESULT: -5.890750716      1.906      2.461
REMARK  8 active torsions:
REMARK  status: ('A' for Active; 'I' for Inactive)
REMARK    1  A    between atoms: C1_2  and  N1_3
REMARK    2  A    between atoms: N1_3  and  C2_5
REMARK    3  A    between atoms: C2_5  and  C3_6
REMARK       I    between atoms: N2_7  and  C4_9
REMARK       I    between atoms: C4_9  and  N3_11
REMARK    4  A    between atoms: N3_11  and  C5_13
REMARK    5  A    between atoms: C5_13  and  C6_14
REMARK    6  A    between atoms: C6_14  and  N4_15
REMARK    7  A    between atoms: N4_15  and  C7_17
REMARK    8  A    between atoms: C7_17  and  C8_19
ROOT
HETATM    1  C3  UNL     1      84.056 188.408 136.841  1.00  0.00     0.085 C
HETATM    2  N2  UNL     1      82.765 188.356 136.751  1.00  0.00    -0.321 N
ATOM      3  H2  UNL     1      82.205 188.195 137.588  1.00  0.00     0.169 HD
HETATM    4  C4  UNL     1      82.127 188.522 135.500  1.00  0.00     0.319 C
HETATM    5  O2  UNL     1      81.745 187.504 134.887  1.00  0.00    -0.247 OA
HETATM    6  N3  UNL     1      81.931 189.801 134.966  1.00  0.00    -0.341 N
ATOM      7  H3  UNL     1      82.270 190.588 135.519  1.00  0.00     0.164 HD
ENDROOT
BRANCH   6   8
HETATM    8  C5  UNL     1      81.298 190.111 133.714  1.00  0.00     0.143 C
BRANCH   8   9
HETATM    9  C6  UNL     1      79.839 190.511 133.896  1.00  0.00     0.136 C
BRANCH   9  10
HETATM   10  N4  UNL     1      78.961 189.681 133.162  1.00  0.00    -0.387 N
ATOM     11  H4  UNL     1      78.748 189.903 132.189  1.00  0.00     0.156 HD
BRANCH  10  12
HETATM   12  C7  UNL     1      78.381 188.556 133.763  1.00  0.00     0.330 C
HETATM   13  F1  UNL     1      78.610 188.480 135.136  1.00  0.00    -0.221 F
BRANCH  12  14
HETATM   14  C8  UNL     1      78.732 187.219 133.182  1.00  0.00     0.406 C
HETATM   15  F2  UNL     1      78.928 186.212 134.071  1.00  0.00    -0.209 F
HETATM   16  F3  UNL     1      79.850 187.420 132.368  1.00  0.00    -0.209 F
ENDBRANCH  12  14
ENDBRANCH  10  12
ENDBRANCH   9  10
ENDBRANCH   8   9
ENDBRANCH   6   8
BRANCH   1  17
HETATM   17  C2  UNL     1      84.692 188.234 138.145  1.00  0.00     0.166 C
BRANCH  17  18
HETATM   18  N1  UNL     1      85.325 189.456 138.624  1.00  0.00    -0.363 N
ATOM     19  H1  UNL     1      84.979 190.373 138.343  1.00  0.00     0.162 HD
BRANCH  18  20
HETATM   20  C1  UNL     1      86.430 189.330 139.488  1.00  0.00     0.348 C
HETATM   21  O1  UNL     1      86.729 188.227 139.972  1.00  0.00    -0.284 OA
ENDBRANCH  18  20
ENDBRANCH  17  18
ENDBRANCH   1  17
TORSDOF 8
ENDMDL