MODEL 1
REMARK VINA RESULT: -6.947857406      0.000      0.000
REMARK  11 active torsions:
REMARK  status: ('A' for Active; 'I' for Inactive)
REMARK    1  A    between atoms: C2_2  and  N1_5
REMARK       I    between atoms: N1_5  and  C5_7
REMARK    2  A    between atoms: C5_7  and  C6_9
REMARK    3  A    between atoms: C6_9  and  C7_10
REMARK    4  A    between atoms: N2_12  and  C8_14
REMARK    5  A    between atoms: N3_17  and  C11_18
REMARK    6  A    between atoms: C11_18  and  N4_20
REMARK    7  A    between atoms: N4_20  and  C12_22
REMARK    8  A    between atoms: C15_25  and  O2_26
REMARK    9  A    between atoms: O2_26  and  C16_27
REMARK   10  A    between atoms: C16_27  and  O4_29
REMARK   11  A    between atoms: O4_29  and  C17_30
ROOT
HETATM    1  C8  UNL     1     -11.819 -38.368 -12.966  1.00  0.00     0.155 C
HETATM    2  C9  UNL     1     -10.565 -38.594 -12.115  1.00  0.00     0.057 C
HETATM    3  C10 UNL     1      -9.526 -37.560 -12.395  1.00  0.00     0.138 C
HETATM    4  N3  UNL     1      -8.974 -37.671 -13.752  1.00  0.00    -0.285 N
HETATM    5  C23 UNL     1      -9.519 -38.607 -14.669  1.00  0.00     0.290 C
HETATM    6  O5  UNL     1      -8.816 -39.250 -15.468  1.00  0.00    -0.260 OA
HETATM    7  S2  UNL     1     -11.317 -38.874 -14.666  1.00  0.00    -0.043 SA
ENDROOT
BRANCH   4   8
HETATM    8  C11 UNL     1      -7.910 -36.818 -14.116  1.00  0.00     0.177 C
HETATM    9  S1  UNL     1      -7.465 -35.668 -13.017  1.00  0.00    -0.041 SA
BRANCH   8  10
HETATM   10  N4  UNL     1      -7.246 -36.855 -15.367  1.00  0.00    -0.362 N
ATOM     11  H4  UNL     1      -7.746 -36.604 -16.220  1.00  0.00     0.162 HD
BRANCH  10  12
HETATM   12  C12 UNL     1      -5.858 -37.246 -15.431  1.00  0.00     0.084 C
HETATM   13  C13 UNL     1      -5.296 -37.034 -16.828  1.00  0.00     0.028 C
HETATM   14  C14 UNL     1      -4.472 -38.184 -17.322  1.00  0.00     0.034 C
HETATM   15  C15 UNL     1      -3.464 -38.680 -16.307  1.00  0.00     0.134 C
HETATM   16  C21 UNL     1      -4.161 -38.929 -15.015  1.00  0.00     0.034 C
HETATM   17  C22 UNL     1      -5.671 -38.729 -15.104  1.00  0.00     0.028 C
BRANCH  15  18
HETATM   18  O2  UNL     1      -2.892 -39.850 -16.863  1.00  0.00    -0.293 OA
BRANCH  18  19
HETATM   19  C16 UNL     1      -3.221 -41.090 -16.343  1.00  0.00     0.407 C
HETATM   20  O3  UNL     1      -2.323 -41.778 -15.837  1.00  0.00    -0.229 OA
BRANCH  19  21
HETATM   21  O4  UNL     1      -4.511 -41.598 -16.363  1.00  0.00    -0.288 OA
BRANCH  21  22
HETATM   22  C17 UNL     1      -5.187 -42.052 -17.491  1.00  0.00     0.062 C
HETATM   23  C18 UNL     1      -6.594 -41.487 -17.483  1.00  0.00     0.046 C
HETATM   24  C19 UNL     1      -4.535 -41.678 -18.795  1.00  0.00     0.046 C
HETATM   25  C20 UNL     1      -5.280 -43.565 -17.395  1.00  0.00     0.046 C
ENDBRANCH  21  22
ENDBRANCH  19  21
ENDBRANCH  18  19
ENDBRANCH  15  18
ENDBRANCH  10  12
ENDBRANCH   8  10
ENDBRANCH   4   8
BRANCH   1  26
HETATM   26  N2  UNL     1     -12.889 -39.195 -12.508  1.00  0.00    -0.374 N
HETATM   27  C6  UNL     1     -14.129 -38.899 -12.472  1.00  0.00     0.088 C
ATOM     28  H2  UNL     1     -12.633 -40.125 -12.173  1.00  0.00     0.160 HD
BRANCH  27  29
HETATM   29  C5  UNL     1     -15.112 -39.851 -11.975  1.00  0.00     0.265 C
HETATM   30  N1  UNL     1     -14.763 -40.926 -11.128  1.00  0.00    -0.348 N
ATOM     31  H1  UNL     1     -13.795 -41.062 -10.837  1.00  0.00     0.163 HD
HETATM   32  O1  UNL     1     -16.326 -39.684 -12.338  1.00  0.00    -0.266 OA
BRANCH  30  33
HETATM   33  C2  UNL     1     -15.795 -41.828 -10.682  1.00  0.00     0.022 C
HETATM   34  C1  UNL     1     -17.024 -41.090 -10.202  1.00  0.00     0.037 C
HETATM   35  C3  UNL     1     -16.209 -42.807 -11.755  1.00  0.00     0.037 C
HETATM   36  C4  UNL     1     -15.262 -42.612  -9.501  1.00  0.00     0.037 C
ENDBRANCH  30  33
ENDBRANCH  27  29
BRANCH  27  37
HETATM   37  C7  UNL     1     -14.575 -37.580 -12.928  1.00  0.00     0.177 C
HETATM   38 CL1  UNL     1     -14.921 -37.535 -14.690  1.00  0.00    -0.124 Cl
ENDBRANCH  27  37
ENDBRANCH   1  26
TORSDOF 11
ENDMDL