MODEL 4
REMARK VINA RESULT: -8.745637318      6.736     10.647
REMARK  6 active torsions:
REMARK  status: ('A' for Active; 'I' for Inactive)
REMARK    1  A    between atoms: C8_10  and  N2_11
REMARK    2  A    between atoms: C11_14  and  N3_15
REMARK    3  A    between atoms: C14_21  and  N5_22
REMARK    4  A    between atoms: C15_27  and  O1_28
REMARK    5  A    between atoms: O1_28  and  C16_29
REMARK    6  A    between atoms: C16_29  and  C17_30
ROOT
HETATM    1  N3  UNL     1      -9.534 -37.692 -13.043  1.00  0.00    -0.306 N
HETATM    2  C12 UNL     1      -9.163 -36.505 -12.536  1.00  0.00     0.158 A
HETATM    3 BR1  UNL     1      -7.529 -35.572 -12.862  1.00  0.00    -0.010 Br
HETATM    4  N4  UNL     1     -10.120 -36.020 -11.728  1.00  0.00    -0.330 N
ATOM      5  H4  UNL     1     -10.089 -35.137 -11.217  1.00  0.00     0.168 HD
HETATM    6  C13 UNL     1     -11.123 -36.905 -11.715  1.00  0.00     0.123 A
HETATM    7  C14 UNL     1     -12.343 -36.908 -11.057  1.00  0.00     0.133 A
HETATM    8  N6  UNL     1     -13.154 -37.959 -11.247  1.00  0.00    -0.306 N
ATOM      9  H6  UNL     1     -14.057 -37.979 -10.772  1.00  0.00     0.171 HD
HETATM   10  C15 UNL     1     -12.813 -38.981 -12.040  1.00  0.00     0.226 A
HETATM   11  N7  UNL     1     -11.630 -38.955 -12.664  1.00  0.00    -0.306 N
ATOM     12  H7  UNL     1     -11.378 -39.737 -13.267  1.00  0.00     0.171 HD
HETATM   13  C22 UNL     1     -10.761 -37.940 -12.527  1.00  0.00     0.144 A
ENDROOT
BRANCH   1  14
HETATM   14  C11 UNL     1      -8.793 -38.538 -13.950  1.00  0.00     0.097 C
HETATM   15  C10 UNL     1      -7.430 -38.912 -13.480  1.00  0.00     0.045 C
HETATM   16  C9  UNL     1      -6.419 -38.819 -14.628  1.00  0.00     0.125 C
HETATM   17  N2  UNL     1      -6.922 -39.421 -15.844  1.00  0.00    -0.380 N
HETATM   18  C24 UNL     1      -8.270 -39.068 -16.255  1.00  0.00     0.125 C
HETATM   19  C23 UNL     1      -8.716 -37.925 -15.355  1.00  0.00     0.045 C
BRANCH  17  20
HETATM   20  C8  UNL     1      -6.132 -40.319 -16.607  1.00  0.00     0.042 A
HETATM   21  C7  UNL     1      -6.404 -41.668 -16.610  1.00  0.00     0.047 A
HETATM   22  C6  UNL     1      -5.592 -42.490 -17.375  1.00  0.00     0.090 A
HETATM   23  N1  UNL     1      -4.566 -42.017 -18.101  1.00  0.00    -0.368 N
HETATM   24  C5  UNL     1      -4.292 -40.704 -18.106  1.00  0.00     0.022 A
ATOM     25  H1  UNL     1      -3.993 -42.658 -18.650  1.00  0.00     0.165 HD
HETATM   26  C4  UNL     1      -3.158 -40.212 -18.913  1.00  0.00     0.095 C
HETATM   27  C25 UNL     1      -5.077 -39.860 -17.357  1.00  0.00     0.015 A
HETATM   28  C2  UNL     1      -2.826 -38.765 -18.587  1.00  0.00     0.059 C
HETATM   29  C1  UNL     1      -1.949 -38.752 -17.361  1.00  0.00     0.046 C
HETATM   30  C3  UNL     1      -2.035 -38.146 -19.741  1.00  0.00     0.046 C
HETATM   31  O2  UNL     1      -3.991 -38.045 -18.453  1.00  0.00    -0.376 OA
HETATM   32  C26 UNL     1      -4.771 -38.412 -17.370  1.00  0.00     0.211 C
ENDBRANCH  17  20
ENDBRANCH   1  14
BRANCH   7  33
HETATM   33  N5  UNL     1     -12.688 -35.912 -10.276  1.00  0.00    -0.383 N
ATOM     34  H52 UNL     1     -12.679 -36.007  -9.260  1.00  0.00     0.157 HD
ATOM     35  H51 UNL     1     -12.976 -35.015 -10.667  1.00  0.00     0.157 HD
ENDBRANCH   7  33
BRANCH  10  36
HETATM   36  O1  UNL     1     -13.719 -40.023 -12.172  1.00  0.00    -0.321 OA
BRANCH  36  37
HETATM   37  C16 UNL     1     -14.402 -40.657 -11.140  1.00  0.00     0.183 C
BRANCH  37  38
HETATM   38  C17 UNL     1     -15.704 -41.278 -11.522  1.00  0.00     0.010 C
HETATM   39  C18 UNL     1     -15.557 -42.710 -11.987  1.00  0.00     0.007 C
HETATM   40  C19 UNL     1     -15.658 -43.562 -10.739  1.00  0.00     0.000 C
HETATM   41  C20 UNL     1     -16.154 -42.700  -9.627  1.00  0.00     0.000 C
HETATM   42  C21 UNL     1     -16.536 -41.376 -10.237  1.00  0.00     0.007 C
ENDBRANCH  37  38
ENDBRANCH  36  37
ENDBRANCH  10  36
TORSDOF 6
ENDMDL