MODEL 1
REMARK VINA RESULT: -8.587231865      0.000      0.000
REMARK  7 active torsions:
REMARK  status: ('A' for Active; 'I' for Inactive)
REMARK    1  A    between atoms: C4_4  and  C5_5
REMARK    2  A    between atoms: C5_5  and  C6_6
REMARK    3  A    between atoms: C6_6  and  O1_7
REMARK    4  A    between atoms: O1_7  and  C7_8
REMARK    5  A    between atoms: C19_22  and  O2_23
REMARK    6  A    between atoms: C20_25  and  N2_27
REMARK    7  A    between atoms: C27_38  and  O3_40
ROOT
HETATM    1  N2  UNL     1     -14.815 -35.907 -14.941  1.00  0.00    -0.254 N
HETATM    2  N3  UNL     1     -14.039 -35.062 -14.241  1.00  0.00    -0.239 N
ATOM      3  H3  UNL     1     -13.070 -35.262 -13.991  1.00  0.00     0.208 HD
HETATM    4  N4  UNL     1     -14.651 -33.969 -13.918  1.00  0.00    -0.294 N
ATOM      5  H4  UNL     1     -14.261 -33.188 -13.390  1.00  0.00     0.187 HD
HETATM    6  C22 UNL     1     -15.901 -34.057 -14.411  1.00  0.00     0.151 A
HETATM    7  C23 UNL     1     -15.991 -35.283 -15.054  1.00  0.00     0.150 A
HETATM    8  C24 UNL     1     -17.167 -35.748 -15.713  1.00  0.00     0.120 C
HETATM    9  N5  UNL     1     -18.121 -36.142 -16.235  1.00  0.00    -0.190 NA
ENDROOT
BRANCH   1  10
HETATM   10  C20 UNL     1     -14.402 -37.205 -15.445  1.00  0.00     0.084 C
HETATM   11  C19 UNL     1     -14.794 -38.351 -14.579  1.00  0.00     0.095 C
HETATM   12  C18 UNL     1     -15.686 -37.950 -13.446  1.00  0.00     0.042 C
HETATM   13  C29 UNL     1     -13.680 -39.251 -14.103  1.00  0.00     0.025 C
HETATM   14  C17 UNL     1     -16.107 -39.064 -12.525  1.00  0.00     0.011 C
HETATM   15  C16 UNL     1     -14.964 -39.912 -12.092  1.00  0.00     0.036 C
HETATM   16  C15 UNL     1     -14.269 -40.411 -13.377  1.00  0.00     0.011 C
HETATM   17  C31 UNL     1     -15.183 -41.043 -11.230  1.00  0.00     0.134 C
HETATM   18  C14 UNL     1     -15.177 -41.353 -13.984  1.00  0.00     0.033 C
HETATM   19  C13 UNL     1     -15.273 -42.559 -13.108  1.00  0.00    -0.020 C
HETATM   20  C12 UNL     1     -15.281 -42.382 -11.820  1.00  0.00    -0.040 C
HETATM   21  C4  UNL     1     -15.364 -43.266 -10.607  1.00  0.00     0.020 C
HETATM   22  C3  UNL     1     -15.977 -42.381  -9.541  1.00  0.00     0.017 C
HETATM   23  C2  UNL     1     -16.342 -41.077 -10.281  1.00  0.00     0.027 C
HETATM   24  C1  UNL     1     -17.665 -41.328 -10.909  1.00  0.00     0.014 C
HETATM   25  F1  UNL     1     -14.062 -41.155 -10.366  1.00  0.00    -0.237 F
HETATM   26  C27 UNL     1     -12.665 -39.576 -15.139  1.00  0.00     0.065 C
HETATM   27  C30 UNL     1     -12.833 -38.570 -13.004  1.00  0.00     0.022 C
HETATM   28  C26 UNL     1     -12.118 -38.314 -15.730  1.00  0.00     0.041 C
HETATM   29  C28 UNL     1     -12.976 -40.565 -16.191  1.00  0.00     0.047 C
HETATM   30  C25 UNL     1     -12.875 -37.073 -15.582  1.00  0.00     0.039 C
HETATM   31  C21 UNL     1     -14.832 -37.380 -16.914  1.00  0.00     0.044 C
BRANCH  11  32
HETATM   32  O2  UNL     1     -15.594 -39.177 -15.411  1.00  0.00    -0.386 OA
ATOM     33  H2  UNL     1     -14.982 -39.617 -15.990  1.00  0.00     0.210 HD
ENDBRANCH  11  32
BRANCH  21  34
HETATM   34  C5  UNL     1     -16.147 -44.510 -10.864  1.00  0.00     0.036 C
BRANCH  34  35
HETATM   35  C6  UNL     1     -15.298 -45.708 -10.517  1.00  0.00     0.176 C
BRANCH  35  36
HETATM   36  O1  UNL     1     -15.904 -46.427  -9.475  1.00  0.00    -0.350 OA
BRANCH  36  37
HETATM   37  C7  UNL     1     -15.532 -46.219  -8.160  1.00  0.00     0.084 A
HETATM   38  C8  UNL     1     -14.606 -45.279  -7.804  1.00  0.00     0.039 A
HETATM   39  C9  UNL     1     -14.271 -45.113  -6.470  1.00  0.00     0.020 A
HETATM   40  C10 UNL     1     -14.877 -45.899  -5.527  1.00  0.00     0.088 A
HETATM   41  N1  UNL     1     -15.773 -46.807  -5.880  1.00  0.00    -0.373 N
HETATM   42  C11 UNL     1     -16.108 -46.980  -7.167  1.00  0.00     0.124 A
ATOM     43  H1  UNL     1     -16.214 -47.384  -5.164  1.00  0.00     0.164 HD
ENDBRANCH  36  37
ENDBRANCH  35  36
ENDBRANCH  34  35
ENDBRANCH  21  34
BRANCH  26  44
HETATM   44  O3  UNL     1     -11.590 -40.179 -14.415  1.00  0.00    -0.389 OA
ATOM     45  H3  UNL     1     -11.498 -41.060 -14.758  1.00  0.00     0.210 HD
ENDBRANCH  26  44
ENDBRANCH   1  10
TORSDOF 7
ENDMDL