MODEL 3
REMARK VINA RESULT: -6.902428345      4.161      5.498
REMARK  5 active torsions:
REMARK  status: ('A' for Active; 'I' for Inactive)
REMARK    1  A    between atoms: C2_2  and  N1_3
REMARK       I    between atoms: N1_3  and  C3_5
REMARK       I    between atoms: C3_5  and  N2_7
REMARK    2  A    between atoms: N2_7  and  C4_9
REMARK    3  A    between atoms: C5_10  and  S1_11
REMARK    4  A    between atoms: S1_11  and  C6_12
REMARK    5  A    between atoms: C10_16  and  S2_17
ROOT
HETATM    1  C4  UNL     1     -11.527 -36.743 -12.920  1.00  0.00     0.152 A
HETATM    2  C5  UNL     1     -12.712 -37.106 -13.642  1.00  0.00     0.117 A
HETATM    3  N3  UNL     1     -12.329 -37.862 -14.655  1.00  0.00    -0.328 N
ATOM      4  H3  UNL     1     -12.938 -38.282 -15.357  1.00  0.00     0.168 HD
HETATM    5  C17 UNL     1     -10.992 -37.976 -14.594  1.00  0.00     0.159 A
HETATM    6  S3  UNL     1      -9.685 -38.677 -15.426  1.00  0.00    -0.044 SA
HETATM    7  C18 UNL     1      -8.445 -38.104 -14.438  1.00  0.00     0.077 A
HETATM    8 BR1  UNL     1      -6.536 -38.387 -14.582  1.00  0.00    -0.041 Br
HETATM    9  C19 UNL     1      -9.126 -37.374 -13.483  1.00  0.00     0.041 A
HETATM   10  C20 UNL     1      -8.247 -36.627 -12.487  1.00  0.00     0.071 C
HETATM   11  N4  UNL     1     -10.445 -37.315 -13.562  1.00  0.00    -0.277 N
ENDROOT
BRANCH   2  12
HETATM   12  S1  UNL     1     -14.400 -36.631 -13.214  1.00  0.00    -0.103 SA
BRANCH  12  13
HETATM   13  C6  UNL     1     -14.877 -35.264 -14.203  1.00  0.00     0.063 C
HETATM   14  C7  UNL     1     -15.199 -35.394 -15.637  1.00  0.00     0.008 C
HETATM   15  C8  UNL     1     -15.712 -36.663 -16.148  1.00  0.00     0.008 C
HETATM   16  C14 UNL     1     -16.173 -34.259 -15.430  1.00  0.00    -0.038 C
HETATM   17  C9  UNL     1     -16.628 -37.463 -15.334  1.00  0.00     0.020 C
HETATM   18  C10 UNL     1     -17.660 -36.751 -14.553  1.00  0.00     0.108 C
HETATM   19  C12 UNL     1     -17.192 -35.744 -13.589  1.00  0.00     0.026 C
HETATM   20  C13 UNL     1     -16.276 -34.705 -14.008  1.00  0.00     0.009 C
HETATM   21  C15 UNL     1     -15.404 -32.930 -15.477  1.00  0.00     0.015 C
HETATM   22  C16 UNL     1     -17.386 -34.178 -16.249  1.00  0.00     0.015 C
BRANCH  18  23
HETATM   23  S2  UNL     1     -18.516 -37.998 -13.558  1.00  0.00     0.144 S
HETATM   24  C11 UNL     1     -19.932 -37.177 -12.862  1.00  0.00     0.161 C
HETATM   25  O2  UNL     1     -18.902 -39.083 -14.503  1.00  0.00    -0.228 OA
HETATM   26  O3  UNL     1     -17.583 -38.489 -12.485  1.00  0.00    -0.228 OA
ENDBRANCH  18  23
ENDBRANCH  12  13
ENDBRANCH   2  12
BRANCH   1  27
HETATM   27  N2  UNL     1     -11.707 -35.891 -11.827  1.00  0.00    -0.292 N
HETATM   28  C3  UNL     1     -11.309 -35.848 -10.498  1.00  0.00     0.321 C
HETATM   29  N1  UNL     1     -11.678 -34.668  -9.735  1.00  0.00    -0.343 N
HETATM   30  O1  UNL     1     -10.677 -36.680  -9.862  1.00  0.00    -0.247 OA
ATOM     31  H1  UNL     1     -12.207 -33.919 -10.182  1.00  0.00     0.164 HD
ATOM     32  H2  UNL     1     -12.285 -35.086 -12.070  1.00  0.00     0.172 HD
BRANCH  29  33
HETATM   33  C2  UNL     1     -11.300 -34.553  -8.350  1.00  0.00     0.120 C
HETATM   34  C1  UNL     1     -12.319 -33.802  -7.548  1.00  0.00     0.026 C
ENDBRANCH  29  33
ENDBRANCH   1  27
TORSDOF 5
ENDMDL