MODEL 2
REMARK VINA RESULT: -8.183933548      7.966     10.590
REMARK  8 active torsions:
REMARK  status: ('A' for Active; 'I' for Inactive)
REMARK    1  A    between atoms: C2_2  and  C3_3
REMARK    2  A    between atoms: C6_6  and  C7_7
REMARK    3  A    between atoms: C7_7  and  O2_9
REMARK    4  A    between atoms: O2_9  and  C8_10
REMARK    5  A    between atoms: C10_12  and  O3_14
REMARK    6  A    between atoms: C20_24  and  O4_25
REMARK    7  A    between atoms: C22_29  and  O5_30
REMARK    8  A    between atoms: C24_32  and  O6_33
ROOT
HETATM    1  C8  UNL     1     -15.803 -39.734 -12.068  1.00  0.00     0.279 C
HETATM    2  C9  UNL     1     -14.416 -39.407 -11.663  1.00  0.00     0.099 C
HETATM    3  C10 UNL     1     -13.566 -38.945 -12.814  1.00  0.00     0.063 C
HETATM    4  C11 UNL     1     -13.902 -39.533 -14.145  1.00  0.00     0.046 C
HETATM    5  C12 UNL     1     -13.401 -37.503 -12.912  1.00  0.00     0.029 C
HETATM    6  C13 UNL     1     -13.246 -36.828 -11.529  1.00  0.00     0.009 C
HETATM    7  C14 UNL     1     -12.712 -35.522 -12.090  1.00  0.00     0.005 C
HETATM    8  C15 UNL     1     -13.894 -35.236 -13.055  1.00  0.00    -0.010 C
HETATM    9  C16 UNL     1     -14.932 -34.643 -12.163  1.00  0.00     0.010 C
HETATM   10  C17 UNL     1     -14.279 -36.611 -13.634  1.00  0.00     0.035 C
HETATM   11  C18 UNL     1     -15.708 -36.727 -13.628  1.00  0.00     0.019 A
HETATM   12  C19 UNL     1     -16.698 -37.507 -12.991  1.00  0.00     0.116 A
HETATM   13  C20 UNL     1     -18.044 -37.283 -13.171  1.00  0.00     0.120 A
HETATM   14  C21 UNL     1     -18.485 -36.284 -13.989  1.00  0.00     0.083 A
HETATM   15 BR1  UNL     1     -20.366 -35.988 -14.225  1.00  0.00    -0.045 Br
HETATM   16  C22 UNL     1     -17.546 -35.514 -14.623  1.00  0.00     0.122 A
HETATM   17  C24 UNL     1     -16.171 -35.724 -14.454  1.00  0.00     0.112 A
HETATM   18  O7  UNL     1     -16.557 -38.564 -12.138  1.00  0.00    -0.316 OA
ENDROOT
BRANCH   1  19
HETATM   19  O2  UNL     1     -16.395 -40.653 -11.139  1.00  0.00    -0.285 OA
BRANCH  19  20
HETATM   20  C7  UNL     1     -16.578 -41.995 -11.414  1.00  0.00     0.297 C
HETATM   21  O1  UNL     1     -17.218 -42.268 -12.473  1.00  0.00    -0.259 OA
BRANCH  20  22
HETATM   22  C6  UNL     1     -16.074 -43.049 -10.551  1.00  0.00     0.061 A
HETATM   23  C5  UNL     1     -15.786 -42.824  -9.148  1.00  0.00     0.018 A
HETATM   24  C4  UNL     1     -15.328 -43.836  -8.428  1.00  0.00     0.006 A
HETATM   25  C3  UNL     1     -15.094 -45.185  -8.965  1.00  0.00     0.150 A
HETATM   26  O8  UNL     1     -15.397 -45.318 -10.324  1.00  0.00    -0.353 OA
HETATM   27  C26 UNL     1     -15.875 -44.242 -11.061  1.00  0.00     0.153 A
BRANCH  25  28
HETATM   28  C2  UNL     1     -15.874 -46.244  -8.215  1.00  0.00     0.032 C
HETATM   29  C1  UNL     1     -15.503 -46.218  -6.749  1.00  0.00     0.008 C
ENDBRANCH  25  28
ENDBRANCH  20  22
ENDBRANCH  19  20
ENDBRANCH   1  19
BRANCH   3  30
HETATM   30  O3  UNL     1     -12.275 -39.491 -12.513  1.00  0.00    -0.390 OA
ATOM     31  H3  UNL     1     -12.118 -40.092 -13.232  1.00  0.00     0.210 HD
ENDBRANCH   3  30
BRANCH  13  32
HETATM   32  O4  UNL     1     -18.997 -38.066 -12.528  1.00  0.00    -0.357 OA
ATOM     33  H4  UNL     1     -19.827 -38.271 -12.942  1.00  0.00     0.218 HD
ENDBRANCH  13  32
BRANCH  17  34
HETATM   34  O6  UNL     1     -15.391 -34.848 -15.188  1.00  0.00    -0.352 OA
HETATM   35  C25 UNL     1     -14.967 -35.148 -16.494  1.00  0.00     0.210 C
ENDBRANCH  17  34
BRANCH  16  36
HETATM   36  O5  UNL     1     -18.019 -34.514 -15.442  1.00  0.00    -0.352 OA
HETATM   37  C23 UNL     1     -18.440 -34.626 -16.764  1.00  0.00     0.210 C
ENDBRANCH  16  36
TORSDOF 8
ENDMDL