MODEL 4
REMARK VINA RESULT: -7.123604032      3.589      6.937
REMARK  8 active torsions:
REMARK  status: ('A' for Active; 'I' for Inactive)
REMARK    1  A    between atoms: C2_2  and  O1_3
REMARK    2  A    between atoms: O1_3  and  C3_4
REMARK       I    between atoms: C3_4  and  N1_6
REMARK    3  A    between atoms: N1_6  and  C4_8
REMARK    4  A    between atoms: C4_8  and  C5_9
REMARK    5  A    between atoms: C4_8  and  C9_16
REMARK    6  A    between atoms: C8_13  and  O3_14
REMARK    7  A    between atoms: N2_23  and  C15_24
REMARK    8  A    between atoms: C19_28  and  C20_29
ROOT
HETATM    1  C9  UNL     1     -16.676 -37.506 -14.568  1.00  0.00     0.054 C
HETATM    2  C10 UNL     1     -16.873 -37.793 -16.051  1.00  0.00     0.036 C
HETATM    3  C11 UNL     1     -17.240 -39.230 -16.320  1.00  0.00     0.168 C
HETATM    4  O4  UNL     1     -16.510 -40.052 -15.456  1.00  0.00    -0.388 OA
HETATM    5  C12 UNL     1     -15.361 -39.444 -15.000  1.00  0.00     0.208 C
HETATM    6  C13 UNL     1     -15.729 -38.405 -13.875  1.00  0.00     0.110 C
HETATM    7  C14 UNL     1     -16.455 -39.200 -12.843  1.00  0.00     0.168 C
HETATM    8  N2  UNL     1     -15.690 -40.053 -11.953  1.00  0.00    -0.334 N
HETATM    9  C26 UNL     1     -14.422 -39.807 -11.350  1.00  0.00     0.285 C
HETATM   10  O5  UNL     1     -14.231 -40.254 -10.246  1.00  0.00    -0.265 OA
HETATM   11  C27 UNL     1     -13.309 -39.051 -11.942  1.00  0.00     0.205 C
HETATM   12  F1  UNL     1     -12.079 -39.293 -11.375  1.00  0.00    -0.198 F
HETATM   13  C28 UNL     1     -13.353 -38.189 -12.930  1.00  0.00     0.184 C
HETATM   14  O6  UNL     1     -14.534 -37.845 -13.600  1.00  0.00    -0.344 OA
ENDROOT
BRANCH   1  15
HETATM   15  C4  UNL     1     -16.664 -36.025 -14.416  1.00  0.00     0.137 C
BRANCH  15  16
HETATM   16  N1  UNL     1     -15.894 -35.615 -13.291  1.00  0.00    -0.327 N
HETATM   17  C3  UNL     1     -15.502 -34.367 -12.867  1.00  0.00     0.361 C
HETATM   18  O2  UNL     1     -15.772 -33.250 -13.457  1.00  0.00    -0.238 OA
ATOM     19  H1  UNL     1     -15.578 -36.381 -12.695  1.00  0.00     0.165 HD
BRANCH  17  20
HETATM   20  O1  UNL     1     -14.739 -34.163 -11.711  1.00  0.00    -0.304 OA
BRANCH  20  21
HETATM   21  C2  UNL     1     -13.591 -34.903 -11.381  1.00  0.00     0.176 C
HETATM   22  C1  UNL     1     -13.120 -34.547 -10.001  1.00  0.00     0.034 C
ENDBRANCH  20  21
ENDBRANCH  17  20
ENDBRANCH  15  16
BRANCH  15  23
HETATM   23  C5  UNL     1     -16.275 -35.306 -15.703  1.00  0.00     0.039 A
HETATM   24  S1  UNL     1     -17.312 -34.508 -16.794  1.00  0.00    -0.101 SA
HETATM   25  C6  UNL     1     -16.232 -34.132 -18.039  1.00  0.00     0.053 A
HETATM   26  C7  UNL     1     -15.059 -34.641 -17.571  1.00  0.00     0.044 A
HETATM   27  C8  UNL     1     -15.084 -35.248 -16.356  1.00  0.00     0.081 A
BRANCH  27  28
HETATM   28  O3  UNL     1     -13.862 -35.779 -15.825  1.00  0.00    -0.360 OA
ATOM     29  H3  UNL     1     -13.004 -35.582 -16.184  1.00  0.00     0.217 HD
ENDBRANCH  27  28
ENDBRANCH  15  23
ENDBRANCH   1  15
BRANCH   8  30
HETATM   30  C15 UNL     1     -16.263 -41.305 -11.621  1.00  0.00     0.032 C
HETATM   31  C16 UNL     1     -17.618 -41.556 -12.327  1.00  0.00     0.039 C
HETATM   32  C17 UNL     1     -15.370 -42.378 -12.290  1.00  0.00     0.031 C
HETATM   33  C18 UNL     1     -15.956 -43.760 -12.101  1.00  0.00     0.008 C
HETATM   34  C19 UNL     1     -16.179 -44.142 -10.671  1.00  0.00    -0.007 C
HETATM   35  C24 UNL     1     -15.634 -42.965  -9.835  1.00  0.00     0.008 C
HETATM   36  C25 UNL     1     -16.414 -41.727 -10.242  1.00  0.00     0.031 C
BRANCH  34  37
HETATM   37  C20 UNL     1     -15.450 -45.408 -10.282  1.00  0.00    -0.048 C
HETATM   38  C21 UNL     1     -14.844 -45.204  -8.920  1.00  0.00     0.015 C
HETATM   39  C22 UNL     1     -16.352 -46.621 -10.244  1.00  0.00     0.015 C
HETATM   40  C23 UNL     1     -14.356 -45.688 -11.261  1.00  0.00     0.015 C
ENDBRANCH  34  37
ENDBRANCH   8  30
TORSDOF 8
ENDMDL