MODEL 4
REMARK VINA RESULT: -8.396286023      2.578      3.613
REMARK  8 active torsions:
REMARK  status: ('A' for Active; 'I' for Inactive)
REMARK    1  A    between atoms: C10_10  and  O1_11
REMARK    2  A    between atoms: O1_11  and  C11_12
REMARK    3  A    between atoms: C11_12  and  C12_14
REMARK    4  A    between atoms: C16_18  and  O3_19
REMARK    5  A    between atoms: O3_19  and  C17_20
REMARK    6  A    between atoms: C17_20  and  C18_22
REMARK    7  A    between atoms: C20_24  and  S1_25
REMARK    8  A    between atoms: C22_32  and  O9_33
ROOT
HETATM    1  C1  UNL     1     -16.826 -37.730 -14.930  1.00  0.00     0.017 C
HETATM    2  C2  UNL     1     -16.549 -38.783 -14.171  1.00  0.00    -0.055 C
HETATM    3  C3  UNL     1     -16.893 -40.110 -14.699  1.00  0.00     0.012 C
HETATM    4  C4  UNL     1     -17.379 -39.986 -16.157  1.00  0.00     0.015 C
HETATM    5  C5  UNL     1     -18.048 -40.799 -13.999  1.00  0.00     0.009 C
HETATM    6  C6  UNL     1     -18.170 -42.267 -14.327  1.00  0.00     0.011 C
HETATM    7  C7  UNL     1     -17.956 -43.206 -13.184  1.00  0.00     0.027 A
HETATM    8  C8  UNL     1     -16.816 -42.967 -12.340  1.00  0.00    -0.067 A
HETATM    9  C9  UNL     1     -16.497 -42.151 -11.377  1.00  0.00     0.009 C
HETATM   10  C10 UNL     1     -15.178 -42.110 -10.644  1.00  0.00     0.155 C
HETATM   11  C14 UNL     1     -14.674 -40.637 -10.676  1.00  0.00     0.039 C
HETATM   12  C15 UNL     1     -14.566 -40.322 -12.111  1.00  0.00     0.038 C
HETATM   13  C16 UNL     1     -14.545 -38.937 -12.602  1.00  0.00     0.165 C
HETATM   14  C22 UNL     1     -15.926 -38.461 -12.866  1.00  0.00     0.176 C
HETATM   15  C23 UNL     1     -16.727 -44.083 -13.331  1.00  0.00    -0.017 A
HETATM   16  C24 UNL     1     -16.813 -45.507 -12.820  1.00  0.00     0.020 C
HETATM   17  C25 UNL     1     -15.757 -43.891 -14.441  1.00  0.00     0.020 C
ENDROOT
BRANCH  13  18
HETATM   18  O3  UNL     1     -13.798 -38.050 -11.786  1.00  0.00    -0.309 OA
BRANCH  18  19
HETATM   19  C17 UNL     1     -13.107 -36.951 -12.220  1.00  0.00     0.297 C
HETATM   20  O4  UNL     1     -11.852 -37.027 -12.184  1.00  0.00    -0.259 OA
BRANCH  19  21
HETATM   21  C18 UNL     1     -13.787 -35.733 -12.708  1.00  0.00     0.088 A
HETATM   22  C19 UNL     1     -14.253 -35.470 -13.979  1.00  0.00     0.074 A
HETATM   23  C20 UNL     1     -14.819 -34.211 -13.978  1.00  0.00     0.194 A
HETATM   24  O8  UNL     1     -14.703 -33.743 -12.779  1.00  0.00    -0.283 OA
HETATM   25  C21 UNL     1     -14.098 -34.598 -11.978  1.00  0.00     0.162 A
HETATM   26 CL1  UNL     1     -13.758 -34.335 -10.302  1.00  0.00    -0.055 Cl
BRANCH  23  27
HETATM   27  S1  UNL     1     -15.550 -33.438 -15.380  1.00  0.00     0.161 S
HETATM   28  O5  UNL     1     -14.928 -33.957 -16.639  1.00  0.00    -0.590 OA
HETATM   29  O6  UNL     1     -17.031 -33.663 -15.397  1.00  0.00    -0.590 OA
HETATM   30  O7  UNL     1     -15.227 -31.788 -15.314  1.00  0.00    -0.590 OA
ENDBRANCH  23  27
ENDBRANCH  19  21
ENDBRANCH  18  19
ENDBRANCH  13  18
BRANCH  14  31
HETATM   31  O9  UNL     1     -16.855 -38.672 -11.876  1.00  0.00    -0.389 OA
ATOM     32  H9  UNL     1     -16.406 -38.680 -11.039  1.00  0.00     0.210 HD
ENDBRANCH  14  31
BRANCH  10  33
HETATM   33  O1  UNL     1     -15.184 -42.639  -9.384  1.00  0.00    -0.312 OA
BRANCH  33  34
HETATM   34  C11 UNL     1     -15.283 -43.960  -9.028  1.00  0.00     0.259 C
HETATM   35  O2  UNL     1     -15.119 -44.805  -9.943  1.00  0.00    -0.265 OA
BRANCH  34  36
HETATM   36  C12 UNL     1     -15.571 -44.310  -7.616  1.00  0.00     0.106 C
HETATM   37  C13 UNL     1     -14.364 -45.073  -7.090  1.00  0.00     0.015 C
ENDBRANCH  34  36
ENDBRANCH  33  34
ENDBRANCH  10  33
TORSDOF 8
ENDMDL