MODEL 4
REMARK VINA RESULT: -7.675101636      2.902      4.610
REMARK  7 active torsions:
REMARK  status: ('A' for Active; 'I' for Inactive)
REMARK    1  A    between atoms: C3_3  and  C5_6
REMARK    2  A    between atoms: C5_6  and  S1_7
REMARK    3  A    between atoms: S1_7  and  S2_8
REMARK    4  A    between atoms: S2_8  and  C6_9
REMARK    5  A    between atoms: C13_16  and  C14_17
REMARK    6  A    between atoms: C17_20  and  O1_21
REMARK    7  A    between atoms: C18_23  and  O2_24
ROOT
HETATM    1  C1  UNL     1     -15.821 -43.544  -8.696  1.00  0.00     0.013 C
HETATM    2  C2  UNL     1     -15.773 -42.841  -9.688  1.00  0.00    -0.095 C
HETATM    3  C3  UNL     1     -15.717 -41.981 -10.855  1.00  0.00     0.086 C
HETATM    4  C4  UNL     1     -15.146 -42.911 -11.983  1.00  0.00     0.042 C
HETATM    5 BR1  UNL     1     -14.419 -40.603 -10.639  1.00  0.00    -0.071 Br
ENDROOT
BRANCH   3   6
HETATM    6  C5  UNL     1     -17.047 -41.551 -11.353  1.00  0.00     0.120 C
BRANCH   6   7
HETATM    7  S1  UNL     1     -17.346 -39.828 -11.614  1.00  0.00    -0.094 SA
BRANCH   7   8
HETATM    8  S2  UNL     1     -18.095 -39.284 -13.497  1.00  0.00    -0.087 SA
BRANCH   8   9
HETATM    9  C6  UNL     1     -16.869 -38.754 -14.672  1.00  0.00     0.099 C
HETATM   10  C7  UNL     1     -15.680 -39.679 -14.774  1.00  0.00    -0.033 A
HETATM   11  C8  UNL     1     -15.931 -40.976 -15.143  1.00  0.00     0.048 A
HETATM   12  C12 UNL     1     -14.393 -39.284 -14.511  1.00  0.00    -0.038 A
HETATM   13  C9  UNL     1     -14.910 -41.901 -15.256  1.00  0.00     0.105 A
HETATM   14  C10 UNL     1     -13.622 -41.516 -14.995  1.00  0.00     0.105 A
HETATM   15  O6  UNL     1     -14.890 -43.258 -15.607  1.00  0.00    -0.323 OA
HETATM   16  C11 UNL     1     -13.380 -40.201 -14.623  1.00  0.00     0.048 A
HETATM   17  O5  UNL     1     -12.814 -42.628 -15.183  1.00  0.00    -0.323 OA
HETATM   18  C24 UNL     1     -13.565 -43.751 -15.588  1.00  0.00     0.352 A
HETATM   19  C13 UNL     1     -14.078 -37.890 -14.124  1.00  0.00     0.066 C
HETATM   20  C20 UNL     1     -15.267 -37.367 -13.374  1.00  0.00     0.106 C
HETATM   21  C21 UNL     1     -15.216 -35.933 -13.082  1.00  0.00     0.264 C
HETATM   22  C23 UNL     1     -16.379 -37.359 -14.440  1.00  0.00     0.043 C
HETATM   23  O3  UNL     1     -14.266 -35.184 -12.762  1.00  0.00    -0.265 OA
HETATM   24  O4  UNL     1     -16.516 -35.452 -13.223  1.00  0.00    -0.321 OA
HETATM   25  C22 UNL     1     -17.355 -36.447 -13.793  1.00  0.00     0.185 C
BRANCH  19  26
HETATM   26  C14 UNL     1     -12.795 -37.720 -13.434  1.00  0.00    -0.046 A
HETATM   27  C15 UNL     1     -12.768 -37.991 -12.068  1.00  0.00     0.011 A
HETATM   28  C16 UNL     1     -11.652 -37.873 -11.312  1.00  0.00     0.040 A
HETATM   29  C17 UNL     1     -10.470 -37.458 -11.932  1.00  0.00     0.098 A
HETATM   30  C18 UNL     1     -10.464 -37.183 -13.273  1.00  0.00     0.099 A
HETATM   31  C19 UNL     1     -11.637 -37.315 -14.033  1.00  0.00     0.047 A
BRANCH  29  32
HETATM   32  O1  UNL     1      -9.304 -37.321 -11.210  1.00  0.00    -0.358 OA
ATOM     33  H1  UNL     1      -9.151 -36.550 -10.676  1.00  0.00     0.217 HD
ENDBRANCH  29  32
BRANCH  30  34
HETATM   34  O2  UNL     1      -9.326 -36.766 -13.959  1.00  0.00    -0.358 OA
ATOM     35  H2  UNL     1      -8.498 -36.586 -13.529  1.00  0.00     0.217 HD
ENDBRANCH  30  34
ENDBRANCH  19  26
ENDBRANCH   8   9
ENDBRANCH   7   8
ENDBRANCH   6   7
ENDBRANCH   3   6
TORSDOF 7
ENDMDL