MODEL 2
REMARK VINA RESULT: -7.937790760      0.959      1.105
REMARK  6 active torsions:
REMARK  status: ('A' for Active; 'I' for Inactive)
REMARK    1  A    between atoms: N2_17  and  C12_18
REMARK    2  A    between atoms: C12_18  and  C13_19
REMARK    3  A    between atoms: C16_22  and  S1_23
REMARK    4  A    between atoms: S1_23  and  C17_26
REMARK    5  A    between atoms: C17_26  and  C18_27
REMARK    6  A    between atoms: C18_27  and  O6_28
ROOT
HETATM    1  C1  UNL     1     -22.268 -37.220 -16.257  1.00  0.00     0.038 C
HETATM    2  C2  UNL     1     -20.952 -37.086 -16.164  1.00  0.00    -0.001 C
HETATM    3  N1  UNL     1     -20.445 -35.848 -15.685  1.00  0.00    -0.393 N
ATOM      4  H1  UNL     1     -20.955 -35.003 -15.942  1.00  0.00     0.159 HD
HETATM    5  C3  UNL     1     -19.266 -35.685 -14.863  1.00  0.00     0.121 C
HETATM    6  C4  UNL     1     -18.033 -35.357 -15.678  1.00  0.00     0.046 C
HETATM    7  C5  UNL     1     -16.834 -35.654 -14.791  1.00  0.00     0.169 C
HETATM    8  O1  UNL     1     -15.730 -35.779 -15.589  1.00  0.00    -0.389 OA
HETATM    9  C6  UNL     1     -14.534 -35.891 -14.925  1.00  0.00     0.193 C
HETATM   10  C7  UNL     1     -14.686 -36.217 -13.458  1.00  0.00     0.193 C
HETATM   11  O2  UNL     1     -13.391 -36.388 -12.947  1.00  0.00    -0.387 OA
HETATM   12  C8  UNL     1     -13.424 -37.345 -11.949  1.00  0.00     0.193 C
HETATM   13  C9  UNL     1     -12.796 -38.649 -12.363  1.00  0.00     0.193 C
HETATM   14  O3  UNL     1     -13.523 -39.744 -11.954  1.00  0.00    -0.387 OA
HETATM   15  C10 UNL     1     -14.011 -40.515 -13.010  1.00  0.00     0.198 C
HETATM   16  C11 UNL     1     -15.500 -40.356 -13.089  1.00  0.00     0.299 C
HETATM   17  N2  UNL     1     -16.224 -41.465 -12.462  1.00  0.00     0.094 N
HETATM   18  C21 UNL     1     -17.619 -41.258 -12.744  1.00  0.00     0.273 C
HETATM   19  C22 UNL     1     -18.258 -40.146 -11.955  1.00  0.00     0.030 C
HETATM   20  C23 UNL     1     -19.740 -40.076 -12.131  1.00  0.00     0.002 C
HETATM   21  C24 UNL     1     -20.257 -40.447 -13.476  1.00  0.00     0.000 C
HETATM   22  C25 UNL     1     -20.630 -39.248 -14.326  1.00  0.00     0.001 C
HETATM   23  C26 UNL     1     -19.629 -39.084 -15.427  1.00  0.00     0.010 C
HETATM   24  C27 UNL     1     -20.106 -38.233 -16.570  1.00  0.00     0.030 C
HETATM   25  C28 UNL     1     -20.825 -39.132 -17.551  1.00  0.00     0.016 C
ENDROOT
BRANCH  17  26
HETATM   26  C12 UNL     1     -15.869 -41.527 -11.082  1.00  0.00     0.311 C
BRANCH  26  27
HETATM   27  C13 UNL     1     -15.804 -42.895 -10.516  1.00  0.00    -0.030 A
HETATM   28  C14 UNL     1     -15.691 -43.073  -9.155  1.00  0.00     0.010 A
HETATM   29  C15 UNL     1     -15.619 -44.354  -8.600  1.00  0.00     0.024 A
HETATM   30  C16 UNL     1     -15.658 -45.477  -9.405  1.00  0.00     0.059 A
HETATM   31  C19 UNL     1     -15.770 -45.297 -10.757  1.00  0.00     0.024 A
HETATM   32  C20 UNL     1     -15.841 -44.020 -11.297  1.00  0.00     0.010 A
BRANCH  30  33
HETATM   33  S1  UNL     1     -15.560 -47.036  -8.643  1.00  0.00     0.177 S
HETATM   34  O4  UNL     1     -14.646 -47.930  -9.428  1.00  0.00    -0.223 OA
HETATM   35  O5  UNL     1     -14.975 -46.849  -7.258  1.00  0.00    -0.223 OA
BRANCH  33  36
HETATM   36  C17 UNL     1     -17.126 -47.801  -8.449  1.00  0.00     0.171 C
BRANCH  36  37
HETATM   37  C18 UNL     1     -17.112 -48.820  -7.310  1.00  0.00     0.179 C
BRANCH  37  38
HETATM   38  O6  UNL     1     -17.250 -48.178  -6.078  1.00  0.00    -0.400 OA
ATOM     39  H6  UNL     1     -18.169 -48.080  -5.855  1.00  0.00     0.209 HD
ENDBRANCH  37  38
ENDBRANCH  36  37
ENDBRANCH  33  36
ENDBRANCH  30  33
ENDBRANCH  26  27
ENDBRANCH  17  26
TORSDOF 6
ENDMDL