MODEL 3
REMARK VINA RESULT: -7.496751602      6.946     10.082
REMARK  8 active torsions:
REMARK  status: ('A' for Active; 'I' for Inactive)
REMARK    1  A    between atoms: C6_6  and  C8_8
REMARK    2  A    between atoms: C8_8  and  O1_9
REMARK    3  A    between atoms: C9_11  and  O2_12
REMARK    4  A    between atoms: O2_12  and  C10_13
REMARK    5  A    between atoms: C13_17  and  O4_18
REMARK    6  A    between atoms: C14_20  and  O5_21
REMARK    7  A    between atoms: O5_21  and  C15_22
REMARK    8  A    between atoms: C15_22  and  C16_24
ROOT
HETATM    1  C1  UNL     1      -4.489 -36.367 -20.030  1.00  0.00     0.043 C
HETATM    2  C2  UNL     1      -4.553 -36.799 -18.610  1.00  0.00    -0.081 C
HETATM    3  C3  UNL     1      -5.087 -35.912 -17.800  1.00  0.00    -0.023 C
HETATM    4  C4  UNL     1      -5.273 -36.082 -16.335  1.00  0.00     0.033 C
HETATM    5  C5  UNL     1      -5.991 -37.305 -15.933  1.00  0.00     0.012 C
HETATM    6  C6  UNL     1      -7.277 -36.860 -15.225  1.00  0.00     0.008 C
HETATM    7  C7  UNL     1      -8.029 -35.805 -15.947  1.00  0.00     0.020 C
HETATM    8  C9  UNL     1      -8.170 -38.000 -14.925  1.00  0.00     0.135 C
HETATM    9  C20 UNL     1      -7.271 -39.214 -14.741  1.00  0.00     0.034 C
HETATM   10  C21 UNL     1      -6.795 -39.582 -16.117  1.00  0.00     0.014 C
HETATM   11  C22 UNL     1      -6.175 -38.402 -16.887  1.00  0.00    -0.012 C
HETATM   12  C23 UNL     1      -7.097 -38.153 -18.045  1.00  0.00     0.018 C
HETATM   13  C24 UNL     1      -4.896 -38.994 -17.443  1.00  0.00     0.140 C
HETATM   14  O7  UNL     1      -4.228 -39.780 -16.486  1.00  0.00    -0.370 OA
HETATM   15  C25 UNL     1      -3.463 -40.791 -17.027  1.00  0.00     0.072 C
HETATM   16  C26 UNL     1      -4.115 -41.643 -18.053  1.00  0.00     0.050 C
HETATM   17  C27 UNL     1      -3.069 -41.699 -15.859  1.00  0.00     0.050 C
HETATM   18  C28 UNL     1      -2.187 -40.291 -17.609  1.00  0.00     0.006 C
HETATM   19  C29 UNL     1      -1.817 -39.042 -17.864  1.00  0.00    -0.027 C
HETATM   20  C30 UNL     1      -2.665 -37.846 -17.598  1.00  0.00     0.038 C
HETATM   21  C31 UNL     1      -4.031 -38.130 -18.255  1.00  0.00     0.047 C
ENDROOT
BRANCH   8  22
HETATM   22  O2  UNL     1      -9.059 -37.855 -13.895  1.00  0.00    -0.352 OA
BRANCH  22  23
HETATM   23  C10 UNL     1     -10.010 -38.839 -13.832  1.00  0.00     0.297 C
HETATM   24  O3  UNL     1     -10.233 -39.051 -12.435  1.00  0.00    -0.351 OA
HETATM   25  C11 UNL     1     -10.417 -37.806 -11.882  1.00  0.00     0.152 C
HETATM   26  C12 UNL     1     -10.521 -37.874 -10.371  1.00  0.00     0.042 C
HETATM   27  C13 UNL     1     -11.710 -37.174 -12.378  1.00  0.00     0.179 C
HETATM   28  C14 UNL     1     -11.826 -37.181 -13.867  1.00  0.00     0.202 C
HETATM   29  C19 UNL     1     -11.303 -38.474 -14.427  1.00  0.00     0.257 C
HETATM   30  F1  UNL     1     -11.309 -38.423 -15.816  1.00  0.00    -0.241 F
BRANCH  27  31
HETATM   31  O4  UNL     1     -12.777 -37.846 -11.828  1.00  0.00    -0.390 OA
ATOM     32  H4  UNL     1     -13.569 -37.342 -11.974  1.00  0.00     0.210 HD
ENDBRANCH  27  31
BRANCH  28  33
HETATM   33  O5  UNL     1     -13.247 -37.193 -14.142  1.00  0.00    -0.310 OA
BRANCH  33  34
HETATM   34  C15 UNL     1     -13.846 -36.109 -14.728  1.00  0.00     0.262 C
HETATM   35  O6  UNL     1     -13.985 -36.007 -15.958  1.00  0.00    -0.265 OA
BRANCH  34  36
HETATM   36  C16 UNL     1     -14.352 -35.012 -13.864  1.00  0.00     0.077 C
HETATM   37  C17 UNL     1     -15.346 -35.625 -12.874  1.00  0.00     0.020 C
HETATM   38  C18 UNL     1     -15.174 -34.019 -14.694  1.00  0.00     0.020 C
ENDBRANCH  34  36
ENDBRANCH  33  34
ENDBRANCH  28  33
ENDBRANCH  22  23
ENDBRANCH   8  22
BRANCH   6  39
HETATM   39  C8  UNL     1      -6.787 -36.271 -13.896  1.00  0.00     0.176 C
BRANCH  39  40
HETATM   40  O1  UNL     1      -7.552 -35.212 -13.464  1.00  0.00    -0.400 OA
ATOM     41  H1  UNL     1      -7.874 -35.326 -12.577  1.00  0.00     0.209 HD
ENDBRANCH  39  40
ENDBRANCH   6  39
TORSDOF 8
ENDMDL