MODEL 2
REMARK VINA RESULT: -8.211241545      0.033      2.501
REMARK  11 active torsions:
REMARK  status: ('A' for Active; 'I' for Inactive)
REMARK    1  A    between atoms: O1_2  and  C2_3
REMARK    2  A    between atoms: C4_5  and  N1_6
REMARK       I    between atoms: N1_6  and  C5_8
REMARK    3  A    between atoms: C5_8  and  C6_10
REMARK    4  A    between atoms: C6_10  and  O3_11
REMARK    5  A    between atoms: O3_11  and  C7_12
REMARK    6  A    between atoms: C7_12  and  C8_14
REMARK    7  A    between atoms: C10_16  and  N2_17
REMARK    8  A    between atoms: C12_21  and  N3_22
REMARK    9  A    between atoms: C14_26  and  O9_27
REMARK   10  A    between atoms: O9_27  and  C15_28
REMARK   11  A    between atoms: C20_33  and  O10_34
ROOT
HETATM    1  N1  UNL     1       8.338  27.838  65.685  1.00  0.00    -0.323 N
ATOM      2  H1  UNL     1       8.869  27.006  65.943  1.00  0.00     0.169 HD
HETATM    3  C5  UNL     1       6.964  27.641  65.480  1.00  0.00     0.246 C
HETATM    4  O2  UNL     1       6.174  28.538  65.162  1.00  0.00    -0.271 OA
ENDROOT
BRANCH   1   5
HETATM    5  C4  UNL     1       9.081  29.022  65.586  1.00  0.00     0.074 A
HETATM    6  C3  UNL     1       9.454  29.754  66.689  1.00  0.00     0.069 A
HETATM    7  C2  UNL     1      10.235  30.916  66.579  1.00  0.00     0.073 A
HETATM    8  C22 UNL     1      10.618  31.306  65.332  1.00  0.00     0.076 A
HETATM    9  C20 UNL     1      10.270  30.608  64.203  1.00  0.00     0.106 A
HETATM   10  C14 UNL     1       9.495  29.457  64.315  1.00  0.00     0.129 A
BRANCH   7  11
HETATM   11  O1  UNL     1      10.550  31.572  67.744  1.00  0.00    -0.356 OA
HETATM   12  C1  UNL     1      11.789  32.123  68.055  1.00  0.00     0.210 C
ENDBRANCH   7  11
BRANCH   9  13
HETATM   13  O10 UNL     1      10.696  31.062  62.971  1.00  0.00    -0.353 OA
HETATM   14  C21 UNL     1       9.882  31.916  62.217  1.00  0.00     0.210 C
ENDBRANCH   9  13
BRANCH  10  15
HETATM   15  O9  UNL     1       9.147  28.766  63.172  1.00  0.00    -0.341 OA
BRANCH  15  16
HETATM   16  C15 UNL     1      10.029  27.907  62.476  1.00  0.00     0.129 C
HETATM   17  C16 UNL     1      10.186  28.238  61.014  1.00  0.00     0.032 C
HETATM   18  C17 UNL     1      10.856  26.982  60.486  1.00  0.00     0.002 C
HETATM   19  C18 UNL     1      10.090  25.901  61.176  1.00  0.00     0.002 C
HETATM   20  C19 UNL     1       9.434  26.489  62.393  1.00  0.00     0.032 C
ENDBRANCH  15  16
ENDBRANCH  10  15
ENDBRANCH   1   5
BRANCH   3  21
HETATM   21  C6  UNL     1       6.420  26.239  65.661  1.00  0.00     0.282 C
BRANCH  21  22
HETATM   22  O3  UNL     1       6.242  25.957  67.023  1.00  0.00    -0.308 OA
BRANCH  22  23
HETATM   23  C7  UNL     1       5.131  26.232  67.775  1.00  0.00     0.293 C
HETATM   24  O4  UNL     1       4.132  26.746  67.218  1.00  0.00    -0.259 OA
BRANCH  23  25
HETATM   25  C8  UNL     1       5.066  25.949  69.199  1.00  0.00     0.044 A
HETATM   26  C9  UNL     1       6.202  25.947  70.002  1.00  0.00     0.053 A
HETATM   27  C10 UNL     1       6.124  25.677  71.346  1.00  0.00     0.106 A
HETATM   28  C11 UNL     1       4.910  25.403  71.922  1.00  0.00     0.072 A
HETATM   29  C12 UNL     1       3.736  25.392  71.161  1.00  0.00     0.106 A
HETATM   30  C13 UNL     1       3.876  25.669  69.819  1.00  0.00     0.053 A
BRANCH  27  31
HETATM   31  N2  UNL     1       7.306  25.688  72.119  1.00  0.00    -0.116 N
HETATM   32  O5  UNL     1       7.486  26.544  73.036  1.00  0.00    -0.532 OA
HETATM   33  O6  UNL     1       8.309  24.768  71.903  1.00  0.00    -0.532 OA
ENDBRANCH  27  31
BRANCH  29  34
HETATM   34  N3  UNL     1       2.499  25.106  71.780  1.00  0.00    -0.116 N
HETATM   35  O7  UNL     1       2.256  25.527  72.916  1.00  0.00    -0.532 OA
HETATM   36  O8  UNL     1       1.570  24.358  71.113  1.00  0.00    -0.532 OA
ENDBRANCH  29  34
ENDBRANCH  23  25
ENDBRANCH  22  23
ENDBRANCH  21  22
ENDBRANCH   3  21
TORSDOF 11
ENDMDL