MODEL 5
REMARK VINA RESULT: -7.353748580      1.748      4.751
REMARK  11 active torsions:
REMARK  status: ('A' for Active; 'I' for Inactive)
REMARK    1  A    between atoms: O1_2  and  N1_3
REMARK    2  A    between atoms: C2_5  and  C3_6
REMARK    3  A    between atoms: C3_6  and  C4_7
REMARK    4  A    between atoms: C3_6  and  C13_20
REMARK       I    between atoms: C4_7  and  N2_9
REMARK    5  A    between atoms: N2_9  and  C5_11
REMARK    6  A    between atoms: C13_20  and  O5_22
REMARK    7  A    between atoms: O5_22  and  C14_23
REMARK    8  A    between atoms: C14_23  and  O6_24
REMARK    9  A    between atoms: O6_24  and  C15_25
REMARK   10  A    between atoms: C15_25  and  C16_27
REMARK   11  A    between atoms: C21_32  and  N3_33
ROOT
HETATM    1  C3  UNL     1       8.269  28.655  66.159  1.00  0.00     0.218 C
ENDROOT
BRANCH   1   2
HETATM    2  C2  UNL     1       8.476  27.810  67.357  1.00  0.00     0.111 C
HETATM    3  N1  UNL     1       7.590  26.981  67.774  1.00  0.00    -0.281 N
ATOM      4  H1  UNL     1       6.702  26.881  67.280  1.00  0.00     0.193 HD
BRANCH   3   5
HETATM    5  O1  UNL     1       7.851  26.235  68.886  1.00  0.00    -0.286 OA
HETATM    6  C1  UNL     1       6.865  26.258  69.922  1.00  0.00     0.237 C
ENDBRANCH   3   5
ENDBRANCH   1   2
BRANCH   1   7
HETATM    7  C4  UNL     1       8.222  27.787  64.913  1.00  0.00     0.241 C
HETATM    8  O2  UNL     1       7.130  27.232  64.700  1.00  0.00    -0.272 OA
HETATM    9  N2  UNL     1       9.395  27.706  64.148  1.00  0.00    -0.324 N
ATOM     10  H2  UNL     1      10.190  28.242  64.497  1.00  0.00     0.169 HD
BRANCH   9  11
HETATM   11  C5  UNL     1       9.619  26.979  62.960  1.00  0.00     0.069 A
HETATM   12  C6  UNL     1       9.477  25.632  62.865  1.00  0.00     0.032 A
HETATM   13  C7  UNL     1       9.710  24.952  61.665  1.00  0.00     0.003 A
HETATM   14  C8  UNL     1      10.089  25.664  60.557  1.00  0.00     0.014 A
HETATM   15  C9  UNL     1      10.235  27.030  60.648  1.00  0.00     0.002 A
HETATM   16  C10 UNL     1      10.593  27.995  59.737  1.00  0.00     0.039 A
HETATM   17  C12 UNL     1      10.002  27.678  61.833  1.00  0.00     0.112 A
HETATM   18  C11 UNL     1      10.562  29.203  60.421  1.00  0.00     0.143 A
HETATM   19  O3  UNL     1      10.208  28.944  61.643  1.00  0.00    -0.320 OA
ENDBRANCH   9  11
ENDBRANCH   1   7
BRANCH   1  20
HETATM   20  C13 UNL     1       9.326  29.683  66.051  1.00  0.00     0.279 C
HETATM   21  O4  UNL     1      10.379  29.592  66.737  1.00  0.00    -0.264 OA
BRANCH  20  22
HETATM   22  O5  UNL     1       9.193  30.758  65.205  1.00  0.00    -0.294 OA
BRANCH  22  23
HETATM   23  C14 UNL     1      10.231  31.179  64.340  1.00  0.00     0.358 C
BRANCH  23  24
HETATM   24  O6  UNL     1      10.436  32.597  64.439  1.00  0.00    -0.291 OA
BRANCH  24  25
HETATM   25  C15 UNL     1      10.789  33.209  65.606  1.00  0.00     0.297 C
HETATM   26  O7  UNL     1       9.850  33.840  66.203  1.00  0.00    -0.259 OA
BRANCH  25  27
HETATM   27  C16 UNL     1      12.107  33.211  66.222  1.00  0.00     0.066 A
HETATM   28  C17 UNL     1      12.437  32.179  67.109  1.00  0.00     0.020 A
HETATM   29  C18 UNL     1      13.661  32.115  67.727  1.00  0.00     0.001 A
HETATM   30  C19 UNL     1      14.603  33.086  67.480  1.00  0.00     0.002 A
HETATM   31  C20 UNL     1      14.332  34.117  66.621  1.00  0.00     0.031 A
HETATM   32  C21 UNL     1      13.074  34.165  65.998  1.00  0.00     0.056 A
BRANCH  32  33
HETATM   33  N3  UNL     1      12.784  35.234  65.105  1.00  0.00    -0.316 N
HETATM   34  C22 UNL     1      12.335  36.436  65.490  1.00  0.00     0.115 A
HETATM   35  C23 UNL     1      12.149  37.191  64.340  1.00  0.00     0.106 A
HETATM   36  N4  UNL     1      12.492  36.424  63.286  1.00  0.00    -0.360 N
HETATM   37  C24 UNL     1      12.874  35.238  63.783  1.00  0.00     0.188 A
ATOM     38  H4  UNL     1      12.465  36.693  62.302  1.00  0.00     0.166 HD
ENDBRANCH  32  33
ENDBRANCH  25  27
ENDBRANCH  24  25
ENDBRANCH  23  24
ENDBRANCH  22  23
ENDBRANCH  20  22
ENDBRANCH   1  20
TORSDOF 11
ENDMDL