MODEL 5
REMARK VINA RESULT: -7.176914033      0.485      1.027
REMARK  12 active torsions:
REMARK  status: ('A' for Active; 'I' for Inactive)
REMARK    1  A    between atoms: C1_2  and  C2_3
REMARK    2  A    between atoms: C1_2  and  O3_28
REMARK    3  A    between atoms: C2_3  and  N1_4
REMARK    4  A    between atoms: N1_4  and  C3_5
REMARK    5  A    between atoms: N1_4  and  C12_22
REMARK    6  A    between atoms: C3_5  and  C4_6
REMARK    7  A    between atoms: C4_6  and  O2_7
REMARK    8  A    between atoms: C4_6  and  C5_9
REMARK    9  A    between atoms: C4_6  and  C8_17
REMARK   10  A    between atoms: C5_9  and  N2_10
REMARK   11  A    between atoms: O3_28  and  C18_29
REMARK   12  A    between atoms: C21_32  and  N5_33
ROOT
HETATM    1  N1  UNL     1      10.988  33.118  64.574  1.00  0.00    -0.348 N
ENDROOT
BRANCH   1   2
HETATM    2  C2  UNL     1       9.905  32.397  63.825  1.00  0.00     0.239 C
BRANCH   2   3
HETATM    3  C1  UNL     1      10.344  31.128  63.274  1.00  0.00     0.282 C
HETATM    4  O1  UNL     1      10.499  30.971  62.046  1.00  0.00    -0.263 OA
BRANCH   3   5
HETATM    5  O3  UNL     1      10.604  30.057  64.107  1.00  0.00    -0.278 OA
BRANCH   5   6
HETATM    6  C18 UNL     1       9.669  29.316  64.786  1.00  0.00     0.079 A
HETATM    7  C19 UNL     1       9.648  29.243  66.149  1.00  0.00     0.040 A
HETATM    8  C20 UNL     1       8.704  28.490  66.849  1.00  0.00     0.039 A
HETATM    9  C21 UNL     1       7.747  27.784  66.152  1.00  0.00     0.103 A
HETATM   10  C22 UNL     1       7.756  27.848  64.769  1.00  0.00     0.039 A
HETATM   11  C23 UNL     1       8.713  28.611  64.091  1.00  0.00     0.040 A
BRANCH   9  12
HETATM   12  N5  UNL     1       6.773  27.001  66.850  1.00  0.00    -0.116 N
HETATM   13  O4  UNL     1       7.063  26.544  67.964  1.00  0.00    -0.532 OA
HETATM   14  O5  UNL     1       5.552  26.777  66.260  1.00  0.00    -0.532 OA
ENDBRANCH   9  12
ENDBRANCH   5   6
ENDBRANCH   3   5
ENDBRANCH   2   3
ENDBRANCH   1   2
BRANCH   1  15
HETATM   15  C3  UNL     1      11.807  33.951  63.818  1.00  0.00     0.110 C
BRANCH  15  16
HETATM   16  C4  UNL     1      12.034  35.379  63.952  1.00  0.00     0.141 C
BRANCH  16  17
HETATM   17  O2  UNL     1      12.365  35.792  62.575  1.00  0.00    -0.377 OA
ATOM     18  H2  UNL     1      12.684  36.679  62.689  1.00  0.00     0.211 HD
ENDBRANCH  16  17
BRANCH  16  19
HETATM   19  C5  UNL     1      10.943  36.286  64.337  1.00  0.00     0.199 C
BRANCH  19  20
HETATM   20  N2  UNL     1      10.425  36.968  63.138  1.00  0.00    -0.283 N
HETATM   21  C6  UNL     1      10.594  38.199  62.691  1.00  0.00     0.201 A
HETATM   22  N3  UNL     1       9.915  38.316  61.534  1.00  0.00    -0.346 N
HETATM   23  C7  UNL     1       9.308  37.152  61.244  1.00  0.00     0.198 A
ATOM     24  H3  UNL     1       9.868  39.160  60.964  1.00  0.00     0.167 HD
HETATM   25  N4  UNL     1       9.639  36.336  62.251  1.00  0.00    -0.293 N
ATOM     26  H4  UNL     1       9.337  35.365  62.333  1.00  0.00     0.188 HD
ENDBRANCH  19  20
ENDBRANCH  16  19
BRANCH  16  27
HETATM   27  C8  UNL     1      13.296  35.780  64.696  1.00  0.00     0.023 A
HETATM   28  C9  UNL     1      14.224  34.963  65.299  1.00  0.00     0.018 A
HETATM   29  C10 UNL     1      15.267  35.549  65.915  1.00  0.00     0.008 A
HETATM   30  C11 UNL     1      15.329  36.912  65.898  1.00  0.00     0.050 A
HETATM   31  S1  UNL     1      13.933  37.319  65.024  1.00  0.00    -0.103 SA
ENDBRANCH  16  27
ENDBRANCH  15  16
ENDBRANCH   1  15
BRANCH   1  32
HETATM   32  C12 UNL     1      10.915  32.886  65.954  1.00  0.00     0.034 A
HETATM   33  C13 UNL     1      11.996  32.230  66.555  1.00  0.00     0.029 A
HETATM   34  C14 UNL     1      12.047  32.011  67.906  1.00  0.00     0.002 A
HETATM   35  C15 UNL     1      11.026  32.430  68.741  1.00  0.00     0.000 A
HETATM   36  C16 UNL     1       9.957  33.076  68.170  1.00  0.00     0.002 A
HETATM   37  C17 UNL     1       9.920  33.290  66.806  1.00  0.00     0.029 A
ENDBRANCH   1  32
TORSDOF 12
ENDMDL