MODEL 4
REMARK VINA RESULT: -7.960169424      4.911     11.347
REMARK  12 active torsions:
REMARK  status: ('A' for Active; 'I' for Inactive)
REMARK    1  A    between atoms: C1_2  and  C2_3
REMARK       I    between atoms: C1_2  and  N1_14
REMARK    2  A    between atoms: C2_3  and  O2_4
REMARK    3  A    between atoms: O2_4  and  C3_5
REMARK    4  A    between atoms: C3_5  and  C4_7
REMARK    5  A    between atoms: C4_7  and  C5_8
REMARK    6  A    between atoms: C5_8  and  C6_9
REMARK    7  A    between atoms: N1_14  and  C10_16
REMARK    8  A    between atoms: C14_20  and  C15_21
REMARK    9  A    between atoms: C15_21  and  O6_23
REMARK   10  A    between atoms: O6_23  and  C16_24
REMARK   11  A    between atoms: C19_27  and  N2_28
REMARK   12  A    between atoms: C21_32  and  N3_33
ROOT
HETATM    1  C10 UNL     1       8.328  28.035  65.256  1.00  0.00     0.035 A
HETATM    2  C11 UNL     1       8.674  27.877  63.947  1.00  0.00     0.029 A
HETATM    3  C12 UNL     1       9.491  28.849  63.357  1.00  0.00     0.003 A
HETATM    4  C13 UNL     1       9.927  29.922  64.073  1.00  0.00     0.018 A
HETATM    5  C14 UNL     1       9.591  30.109  65.410  1.00  0.00     0.042 A
HETATM    6  C22 UNL     1       8.794  29.159  65.980  1.00  0.00     0.047 A
ENDROOT
BRANCH   1   7
HETATM    7  N1  UNL     1       7.493  27.152  65.972  1.00  0.00    -0.325 N
HETATM    8  C1  UNL     1       6.101  27.279  66.041  1.00  0.00     0.246 C
HETATM    9  O1  UNL     1       5.440  28.170  65.500  1.00  0.00    -0.271 OA
ATOM     10  H1  UNL     1       7.930  26.375  66.469  1.00  0.00     0.169 HD
BRANCH   8  11
HETATM   11  C2  UNL     1       5.356  26.229  66.853  1.00  0.00     0.281 C
BRANCH  11  12
HETATM   12  O2  UNL     1       5.887  26.212  68.159  1.00  0.00    -0.312 OA
BRANCH  12  13
HETATM   13  C3  UNL     1       5.064  25.941  69.259  1.00  0.00     0.259 C
HETATM   14  O3  UNL     1       5.628  25.451  70.265  1.00  0.00    -0.265 OA
BRANCH  13  15
HETATM   15  C4  UNL     1       3.610  26.225  69.215  1.00  0.00     0.117 C
BRANCH  15  16
HETATM   16  C5  UNL     1       2.887  25.277  70.114  1.00  0.00     0.075 C
BRANCH  16  17
HETATM   17  C6  UNL     1       1.715  24.678  69.376  1.00  0.00     0.053 A
HETATM   18  C7  UNL     1       1.845  24.003  68.174  1.00  0.00     0.034 A
HETATM   19  C8  UNL     1       0.583  23.605  67.811  1.00  0.00     0.027 A
HETATM   20  C9  UNL     1      -0.237  24.064  68.816  1.00  0.00     0.142 A
HETATM   21  O4  UNL     1       0.464  24.691  69.720  1.00  0.00    -0.327 OA
ENDBRANCH  16  17
ENDBRANCH  15  16
ENDBRANCH  13  15
ENDBRANCH  12  13
ENDBRANCH  11  12
ENDBRANCH   8  11
ENDBRANCH   1   7
BRANCH   5  22
HETATM   22  C15 UNL     1      10.071  31.265  66.151  1.00  0.00     0.298 C
HETATM   23  O5  UNL     1       9.234  31.934  66.813  1.00  0.00    -0.259 OA
BRANCH  22  24
HETATM   24  O6  UNL     1      11.406  31.649  66.153  1.00  0.00    -0.272 OA
BRANCH  24  25
HETATM   25  C16 UNL     1      11.756  32.891  65.646  1.00  0.00     0.112 A
HETATM   26  C17 UNL     1      11.106  33.414  64.534  1.00  0.00     0.042 A
HETATM   27  C18 UNL     1      11.433  34.643  64.010  1.00  0.00     0.039 A
HETATM   28  C19 UNL     1      12.429  35.414  64.571  1.00  0.00     0.105 A
HETATM   29  C20 UNL     1      13.084  34.911  65.673  1.00  0.00     0.075 A
HETATM   30  C21 UNL     1      12.750  33.673  66.196  1.00  0.00     0.139 A
BRANCH  28  31
HETATM   31  N2  UNL     1      12.782  36.683  64.045  1.00  0.00    -0.116 N
HETATM   32  O7  UNL     1      13.686  37.347  64.575  1.00  0.00    -0.532 OA
HETATM   33  O8  UNL     1      12.119  37.157  62.962  1.00  0.00    -0.532 OA
ENDBRANCH  28  31
BRANCH  30  34
HETATM   34  N3  UNL     1      13.452  33.193  67.335  1.00  0.00    -0.113 N
HETATM   35  O9  UNL     1      13.011  33.369  68.498  1.00  0.00    -0.532 OA
HETATM   36  O10 UNL     1      14.640  32.518  67.232  1.00  0.00    -0.532 OA
ENDBRANCH  30  34
ENDBRANCH  24  25
ENDBRANCH  22  24
ENDBRANCH   5  22
TORSDOF 12
ENDMDL