MODEL 3
REMARK VINA RESULT: -8.764300133      1.102      2.047
REMARK  10 active torsions:
REMARK  status: ('A' for Active; 'I' for Inactive)
REMARK    1  A    between atoms: O1_2  and  C2_3
REMARK    2  A    between atoms: C4_5  and  C5_6
REMARK    3  A    between atoms: N1_7  and  N2_9
REMARK       I    between atoms: N2_9  and  C6_11
REMARK    4  A    between atoms: C6_11  and  C7_13
REMARK    5  A    between atoms: C10_16  and  N3_17
REMARK    6  A    between atoms: C15_24  and  O5_25
REMARK    7  A    between atoms: O5_25  and  C16_26
REMARK    8  A    between atoms: C16_26  and  C17_27
REMARK    9  A    between atoms: C19_29  and  N4_30
REMARK   10  A    between atoms: C21_34  and  N5_35
ROOT
HETATM    1  C2  UNL     1      12.505  32.923  66.471  1.00  0.00     0.102 A
HETATM    2  C3  UNL     1      13.173  34.106  66.267  1.00  0.00     0.052 A
HETATM    3  C4  UNL     1      12.838  34.930  65.236  1.00  0.00    -0.017 A
HETATM    4  C13 UNL     1      11.782  34.504  64.404  1.00  0.00     0.016 A
HETATM    5  C14 UNL     1      11.133  33.317  64.632  1.00  0.00     0.040 A
HETATM    6  C15 UNL     1      11.470  32.482  65.674  1.00  0.00     0.102 A
ENDROOT
BRANCH   3   7
HETATM    7  C5  UNL     1      13.478  36.191  64.941  1.00  0.00     0.118 C
HETATM    8  N1  UNL     1      13.329  36.955  63.988  1.00  0.00    -0.308 N
ATOM      9  H1  UNL     1      13.919  37.786  64.037  1.00  0.00     0.186 HD
BRANCH   8  10
HETATM   10  N2  UNL     1      12.544  36.916  62.892  1.00  0.00    -0.266 N
HETATM   11  C6  UNL     1      11.453  37.819  62.711  1.00  0.00     0.270 C
HETATM   12  O2  UNL     1      11.197  38.694  63.603  1.00  0.00    -0.266 OA
ATOM     13  H2  UNL     1      12.736  36.222  62.170  1.00  0.00     0.190 HD
BRANCH  11  14
HETATM   14  C7  UNL     1      10.607  37.789  61.547  1.00  0.00     0.033 A
HETATM   15  C8  UNL     1      11.065  37.301  60.351  1.00  0.00     0.019 A
HETATM   16  C9  UNL     1      10.230  37.280  59.244  1.00  0.00     0.037 A
HETATM   17  C10 UNL     1       8.950  37.744  59.334  1.00  0.00     0.102 A
HETATM   18  C11 UNL     1       8.463  38.245  60.542  1.00  0.00     0.037 A
HETATM   19  C12 UNL     1       9.308  38.251  61.613  1.00  0.00     0.019 A
BRANCH  17  20
HETATM   20  N3  UNL     1       8.091  37.726  58.209  1.00  0.00    -0.116 N
HETATM   21  O3  UNL     1       8.562  37.441  57.097  1.00  0.00    -0.532 OA
HETATM   22  O4  UNL     1       6.769  38.023  58.368  1.00  0.00    -0.532 OA
ENDBRANCH  17  20
ENDBRANCH  11  14
ENDBRANCH   8  10
ENDBRANCH   3   7
BRANCH   1  23
HETATM   23  O1  UNL     1      12.873  32.118  67.523  1.00  0.00    -0.353 OA
HETATM   24  C1  UNL     1      14.228  31.871  67.772  1.00  0.00     0.210 C
ENDBRANCH   1  23
BRANCH   6  25
HETATM   25  O5  UNL     1      10.868  31.293  65.958  1.00  0.00    -0.344 OA
BRANCH  25  26
HETATM   26  C16 UNL     1       9.533  31.015  66.191  1.00  0.00     0.214 C
BRANCH  26  27
HETATM   27  C17 UNL     1       9.116  29.830  65.406  1.00  0.00    -0.029 A
HETATM   28  C18 UNL     1       8.046  29.052  65.791  1.00  0.00     0.045 A
HETATM   29  C19 UNL     1       7.651  27.958  65.058  1.00  0.00     0.105 A
HETATM   30  C20 UNL     1       8.320  27.599  63.899  1.00  0.00     0.072 A
HETATM   31  C21 UNL     1       9.391  28.367  63.501  1.00  0.00     0.105 A
HETATM   32  C22 UNL     1       9.772  29.464  64.254  1.00  0.00     0.045 A
BRANCH  29  33
HETATM   33  N4  UNL     1       6.552  27.191  65.488  1.00  0.00    -0.116 N
HETATM   34  O6  UNL     1       5.492  27.765  65.815  1.00  0.00    -0.532 OA
HETATM   35  O7  UNL     1       6.642  25.815  65.551  1.00  0.00    -0.532 OA
ENDBRANCH  29  33
BRANCH  31  36
HETATM   36  N5  UNL     1      10.088  28.005  62.306  1.00  0.00    -0.116 N
HETATM   37  O8  UNL     1      11.333  28.026  62.310  1.00  0.00    -0.532 OA
HETATM   38  O9  UNL     1       9.451  27.638  61.163  1.00  0.00    -0.532 OA
ENDBRANCH  31  36
ENDBRANCH  26  27
ENDBRANCH  25  26
ENDBRANCH   6  25
TORSDOF 10
ENDMDL