MODEL 2
REMARK VINA RESULT: -7.075104533      2.220      4.390
REMARK  11 active torsions:
REMARK  status: ('A' for Active; 'I' for Inactive)
REMARK    1  A    between atoms: O1_2  and  C2_3
REMARK    2  A    between atoms: C2_3  and  O2_4
REMARK    3  A    between atoms: O2_4  and  C3_5
REMARK    4  A    between atoms: C7_9  and  C8_10
REMARK    5  A    between atoms: C8_10  and  N1_11
REMARK    6  A    between atoms: N1_11  and  C9_12
REMARK    7  A    between atoms: N1_11  and  C16_19
REMARK    8  A    between atoms: C9_12  and  C10_13
REMARK    9  A    between atoms: C18_23  and  N3_24
REMARK   10  A    between atoms: N4_27  and  C19_28
REMARK   11  A    between atoms: C21_31  and  O6_32
ROOT
HETATM    1  N1  UNL     1      10.000  30.787  65.018  1.00  0.00    -0.209 N
ENDROOT
BRANCH   1   2
HETATM    2  C8  UNL     1      10.671  29.538  64.755  1.00  0.00     0.180 C
BRANCH   2   3
HETATM    3  C7  UNL     1      10.461  28.947  63.447  1.00  0.00    -0.037 A
HETATM    4  C6  UNL     1      10.398  29.711  62.319  1.00  0.00     0.009 A
HETATM    5  C5  UNL     1      10.190  29.175  61.058  1.00  0.00     0.003 A
HETATM    6  C4  UNL     1      10.038  27.821  60.911  1.00  0.00     0.037 A
HETATM    7  C3  UNL     1      10.098  27.027  62.032  1.00  0.00     0.072 A
HETATM    8  C23 UNL     1      10.309  27.585  63.298  1.00  0.00     0.045 A
BRANCH   7   9
HETATM    9  O2  UNL     1       9.950  25.661  61.925  1.00  0.00    -0.326 OA
BRANCH   9  10
HETATM   10  C2  UNL     1       9.559  25.059  60.716  1.00  0.00     0.344 C
BRANCH  10  11
HETATM   11  O1  UNL     1       8.515  24.177  61.028  1.00  0.00    -0.371 OA
HETATM   12  C1  UNL     1       8.623  23.682  62.306  1.00  0.00     0.204 C
ENDBRANCH  10  11
ENDBRANCH   9  10
ENDBRANCH   7   9
ENDBRANCH   2   3
ENDBRANCH   1   2
BRANCH   1  13
HETATM   13  C9  UNL     1       8.632  30.745  65.543  1.00  0.00     0.180 C
BRANCH  13  14
HETATM   14  C10 UNL     1       8.179  29.396  65.897  1.00  0.00    -0.040 A
HETATM   15  C11 UNL     1       7.221  28.786  65.118  1.00  0.00     0.009 A
HETATM   16  C12 UNL     1       6.743  27.521  65.387  1.00  0.00     0.001 A
HETATM   17  C13 UNL     1       7.249  26.853  66.478  1.00  0.00     0.000 A
HETATM   18  C14 UNL     1       8.208  27.423  67.286  1.00  0.00     0.001 A
HETATM   19  C15 UNL     1       8.653  28.685  66.976  1.00  0.00     0.009 A
ENDBRANCH  13  14
ENDBRANCH   1  13
BRANCH   1  20
HETATM   20  C16 UNL     1      10.636  32.011  64.797  1.00  0.00     0.687 A
HETATM   21  N2  UNL     1      10.688  32.694  63.655  1.00  0.00    -0.198 N
HETATM   22  C17 UNL     1      11.352  33.829  63.803  1.00  0.00     0.161 A
ATOM     23  H2  UNL     1      10.269  32.382  62.779  1.00  0.00     0.183 HD
HETATM   24  C18 UNL     1      11.759  33.881  65.142  1.00  0.00     0.210 A
HETATM   25  N4  UNL     1      11.310  32.763  65.720  1.00  0.00    -0.124 N
BRANCH  24  26
HETATM   26  N3  UNL     1      12.508  34.979  65.684  1.00  0.00    -0.096 N
HETATM   27  O3  UNL     1      13.760  35.044  65.471  1.00  0.00    -0.530 OA
HETATM   28  O4  UNL     1      11.951  35.968  66.421  1.00  0.00    -0.530 OA
ENDBRANCH  24  26
BRANCH  25  29
HETATM   29  C19 UNL     1      11.476  32.382  67.091  1.00  0.00     0.312 C
HETATM   30  O5  UNL     1      10.915  33.283  67.995  1.00  0.00    -0.354 OA
HETATM   31  C20 UNL     1      10.852  32.575  69.217  1.00  0.00     0.203 C
HETATM   32  C21 UNL     1      12.088  32.893  70.002  1.00  0.00     0.151 C
HETATM   33  C22 UNL     1      13.355  32.413  69.376  1.00  0.00     0.112 C
HETATM   34  S1  UNL     1      13.190  32.088  67.591  1.00  0.00    -0.113 SA
BRANCH  32  35
HETATM   35  O6  UNL     1      12.115  34.265  70.283  1.00  0.00    -0.393 OA
ATOM     36  H6  UNL     1      12.423  34.395  71.172  1.00  0.00     0.210 HD
ENDBRANCH  32  35
ENDBRANCH  25  29
ENDBRANCH   1  20
TORSDOF 11
ENDMDL