MODEL 1
REMARK VINA RESULT: -8.814886236      0.000      0.000
REMARK  10 active torsions:
REMARK  status: ('A' for Active; 'I' for Inactive)
REMARK    1  A    between atoms: C1_2  and  C2_3
REMARK       I    between atoms: C1_2  and  N6_30
REMARK    2  A    between atoms: C2_3  and  O2_4
REMARK    3  A    between atoms: O2_4  and  C3_5
REMARK    4  A    between atoms: C6_8  and  C7_9
REMARK    5  A    between atoms: N1_10  and  N2_12
REMARK    6  A    between atoms: C8_14  and  C9_15
REMARK    7  A    between atoms: C14_22  and  N4_23
REMARK    8  A    between atoms: C15_26  and  N5_27
REMARK    9  A    between atoms: N6_30  and  C16_32
REMARK   10  A    between atoms: C21_37  and  N7_38
ROOT
HETATM    1  C3  UNL     1      10.570  31.249  65.075  1.00  0.00     0.104 A
HETATM    2  C4  UNL     1      10.298  31.666  63.772  1.00  0.00     0.040 A
HETATM    3  C5  UNL     1      10.582  32.956  63.421  1.00  0.00     0.018 A
HETATM    4  C6  UNL     1      11.140  33.868  64.343  1.00  0.00     0.017 A
HETATM    5  C14 UNL     1      11.385  33.409  65.601  1.00  0.00     0.150 A
HETATM    6  C15 UNL     1      11.108  32.086  66.008  1.00  0.00     0.170 A
ENDROOT
BRANCH   1   7
HETATM    7  O2  UNL     1      10.269  29.923  65.391  1.00  0.00    -0.339 OA
BRANCH   7   8
HETATM    8  C2  UNL     1       8.957  29.444  65.306  1.00  0.00     0.278 C
BRANCH   8   9
HETATM    9  C1  UNL     1       8.896  28.317  64.308  1.00  0.00     0.246 C
HETATM   10  O1  UNL     1       7.843  27.638  64.304  1.00  0.00    -0.271 OA
HETATM   11  N6  UNL     1       9.974  28.089  63.461  1.00  0.00    -0.323 N
ATOM     12  H6  UNL     1      10.784  28.700  63.562  1.00  0.00     0.169 HD
BRANCH  11  13
HETATM   13  C16 UNL     1      10.042  27.089  62.481  1.00  0.00     0.068 A
HETATM   14  C17 UNL     1       9.701  25.767  62.742  1.00  0.00     0.032 A
HETATM   15  C18 UNL     1       9.715  24.840  61.710  1.00  0.00     0.002 A
HETATM   16  C19 UNL     1      10.053  25.166  60.421  1.00  0.00     0.003 A
HETATM   17  C20 UNL     1      10.394  26.458  60.136  1.00  0.00     0.038 A
HETATM   18  C21 UNL     1      10.386  27.408  61.170  1.00  0.00     0.129 A
BRANCH  18  19
HETATM   19  N7  UNL     1      10.762  28.714  60.775  1.00  0.00    -0.113 N
HETATM   20  O7  UNL     1      11.385  29.494  61.490  1.00  0.00    -0.532 OA
HETATM   21  O8  UNL     1      10.458  29.129  59.470  1.00  0.00    -0.532 OA
ENDBRANCH  18  19
ENDBRANCH  11  13
ENDBRANCH   8   9
ENDBRANCH   7   8
ENDBRANCH   1   7
BRANCH   6  22
HETATM   22  N5  UNL     1      11.397  31.685  67.350  1.00  0.00    -0.110 N
HETATM   23  O5  UNL     1      10.511  31.736  68.236  1.00  0.00    -0.532 OA
HETATM   24  O6  UNL     1      12.636  31.244  67.738  1.00  0.00    -0.532 OA
ENDBRANCH   6  22
BRANCH   5  25
HETATM   25  N4  UNL     1      11.925  34.232  66.626  1.00  0.00    -0.112 N
HETATM   26  O3  UNL     1      11.250  34.918  67.412  1.00  0.00    -0.532 OA
HETATM   27  O4  UNL     1      13.305  34.348  66.787  1.00  0.00    -0.532 OA
ENDBRANCH   5  25
BRANCH   4  28
HETATM   28  C7  UNL     1      11.410  35.221  63.918  1.00  0.00     0.121 C
HETATM   29  N1  UNL     1      11.963  35.511  62.812  1.00  0.00    -0.311 N
ATOM     30  H1  UNL     1      12.217  34.724  62.215  1.00  0.00     0.186 HD
BRANCH  29  31
HETATM   31  N2  UNL     1      12.252  36.736  62.338  1.00  0.00    -0.311 N
HETATM   32  C8  UNL     1      11.702  37.631  61.673  1.00  0.00     0.118 C
ATOM     33  H2  UNL     1      13.199  37.011  62.601  1.00  0.00     0.186 HD
BRANCH  32  34
HETATM   34  C9  UNL     1      10.390  37.708  61.088  1.00  0.00    -0.017 A
HETATM   35  C10 UNL     1       9.273  37.801  61.915  1.00  0.00     0.030 A
HETATM   36  C11 UNL     1       8.014  37.862  61.328  1.00  0.00     0.088 A
HETATM   37  N3  UNL     1       7.834  37.836  60.000  1.00  0.00    -0.375 N
HETATM   38  C12 UNL     1       8.905  37.746  59.171  1.00  0.00     0.088 A
ATOM     39  H3  UNL     1       6.893  37.884  59.613  1.00  0.00     0.164 HD
HETATM   40  C13 UNL     1      10.168  37.683  59.717  1.00  0.00     0.030 A
ENDBRANCH  32  34
ENDBRANCH  29  31
ENDBRANCH   4  28
TORSDOF 10
ENDMDL