MODEL 5
REMARK VINA RESULT: -8.041429011      4.211     10.863
REMARK  14 active torsions:
REMARK  status: ('A' for Active; 'I' for Inactive)
REMARK    1  A    between atoms: C1_2  and  C2_3
REMARK       I    between atoms: C1_2  and  N2_19
REMARK    2  A    between atoms: C2_3  and  O2_4
REMARK    3  A    between atoms: O2_4  and  C3_5
REMARK    4  A    between atoms: C3_5  and  O3_6
REMARK    5  A    between atoms: C3_5  and  C4_8
REMARK    6  A    between atoms: C4_8  and  C5_9
REMARK    7  A    between atoms: C5_9  and  C6_10
REMARK    8  A    between atoms: C10_14  and  N1_15
REMARK    9  A    between atoms: N2_19  and  C12_21
REMARK   10  A    between atoms: C15_25  and  C16_26
REMARK   11  A    between atoms: C16_26  and  O7_28
REMARK   12  A    between atoms: O7_28  and  C17_29
REMARK   13  A    between atoms: C17_29  and  C18_30
REMARK   14  A    between atoms: C18_30  and  C19_32
ROOT
HETATM    1  O1  UNL     1       5.395  25.530  69.406  1.00  0.00    -0.271 OA
HETATM    2  C1  UNL     1       4.340  25.908  68.854  1.00  0.00     0.246 C
HETATM    3  N2  UNL     1       3.088  25.779  69.410  1.00  0.00    -0.324 N
ATOM      4  H2  UNL     1       2.296  26.122  68.869  1.00  0.00     0.169 HD
ENDROOT
BRANCH   2   5
HETATM    5  C2  UNL     1       4.547  26.527  67.515  1.00  0.00     0.280 C
BRANCH   5   6
HETATM    6  O2  UNL     1       5.301  25.822  66.605  1.00  0.00    -0.321 OA
BRANCH   6   7
HETATM    7  C3  UNL     1       6.342  26.306  65.880  1.00  0.00     0.178 C
BRANCH   7   8
HETATM    8  O3  UNL     1       6.871  25.338  65.137  1.00  0.00    -0.341 OA
ATOM      9  H3  UNL     1       7.729  25.599  64.823  1.00  0.00     0.220 HD
ENDBRANCH   7   8
BRANCH   7  10
HETATM   10  C4  UNL     1       6.937  27.605  65.789  1.00  0.00     0.064 C
BRANCH  10  11
HETATM   11  C5  UNL     1       8.101  28.066  65.651  1.00  0.00     0.016 C
BRANCH  11  12
HETATM   12  C6  UNL     1       8.827  28.947  64.787  1.00  0.00    -0.034 A
HETATM   13  C7  UNL     1       9.345  30.161  65.154  1.00  0.00     0.011 A
HETATM   14  C8  UNL     1      10.090  30.883  64.217  1.00  0.00     0.003 A
HETATM   15  C9  UNL     1      10.307  30.399  62.953  1.00  0.00     0.036 A
HETATM   16  C10 UNL     1       9.800  29.184  62.548  1.00  0.00     0.103 A
HETATM   17  C11 UNL     1       9.072  28.481  63.468  1.00  0.00     0.047 A
BRANCH  16  18
HETATM   18  N1  UNL     1      10.030  28.694  61.225  1.00  0.00    -0.116 N
HETATM   19  O4  UNL     1      10.640  29.343  60.365  1.00  0.00    -0.532 OA
HETATM   20  O5  UNL     1       9.552  27.454  60.895  1.00  0.00    -0.532 OA
ENDBRANCH  16  18
ENDBRANCH  11  12
ENDBRANCH  10  11
ENDBRANCH   7  10
ENDBRANCH   6   7
ENDBRANCH   5   6
ENDBRANCH   2   5
BRANCH   3  21
HETATM   21  C12 UNL     1       2.810  25.194  70.703  1.00  0.00     0.058 A
HETATM   22  C13 UNL     1       3.088  25.821  71.869  1.00  0.00     0.038 A
HETATM   23  C14 UNL     1       2.748  25.188  73.038  1.00  0.00     0.053 A
HETATM   24  S1  UNL     1       2.053  23.743  72.510  1.00  0.00    -0.094 SA
HETATM   25  C15 UNL     1       2.203  23.963  70.804  1.00  0.00     0.106 A
BRANCH  25  26
HETATM   26  C16 UNL     1       1.787  22.995  69.767  1.00  0.00     0.302 C
HETATM   27  O6  UNL     1       1.279  21.892  70.188  1.00  0.00    -0.259 OA
BRANCH  26  28
HETATM   28  O7  UNL     1       1.901  23.175  68.447  1.00  0.00    -0.309 OA
BRANCH  28  29
HETATM   29  C17 UNL     1       0.854  23.483  67.543  1.00  0.00     0.265 C
BRANCH  29  30
HETATM   30  C18 UNL     1       0.683  22.413  66.530  1.00  0.00     0.206 C
HETATM   31  O8  UNL     1       1.110  21.246  66.722  1.00  0.00    -0.288 OA
BRANCH  30  32
HETATM   32  C19 UNL     1      -0.007  22.749  65.280  1.00  0.00     0.122 A
HETATM   33  C20 UNL     1      -0.938  22.007  64.587  1.00  0.00     0.043 A
HETATM   34  C21 UNL     1      -1.311  22.720  63.468  1.00  0.00     0.027 A
HETATM   35  C22 UNL     1      -0.577  23.902  63.518  1.00  0.00     0.142 A
HETATM   36  O9  UNL     1       0.166  23.863  64.595  1.00  0.00    -0.319 OA
ENDBRANCH  30  32
ENDBRANCH  29  30
ENDBRANCH  28  29
ENDBRANCH  26  28
ENDBRANCH  25  26
ENDBRANCH   3  21
TORSDOF 14
ENDMDL