MODEL 5
REMARK VINA RESULT: -7.542631897      8.315     12.767
REMARK  11 active torsions:
REMARK  status: ('A' for Active; 'I' for Inactive)
REMARK    1  A    between atoms: C7_8  and  O1_9
REMARK    2  A    between atoms: O1_9  and  C8_10
REMARK    3  A    between atoms: C8_10  and  C9_11
REMARK    4  A    between atoms: C9_11  and  O3_13
REMARK    5  A    between atoms: O3_13  and  C10_14
REMARK    6  A    between atoms: C10_14  and  C11_15
REMARK       I    between atoms: C11_15  and  N2_17
REMARK    7  A    between atoms: N2_17  and  C12_19
REMARK    8  A    between atoms: C15_24  and  N4_25
REMARK    9  A    between atoms: C16_28  and  C17_29
REMARK   10  A    between atoms: C18_30  and  C19_31
REMARK   11  A    between atoms: C19_31  and  C20_33
ROOT
HETATM    1  N1  UNL     1       9.460  27.775  61.205  1.00  0.00    -0.191 NA
HETATM    2  C1  UNL     1       9.608  28.602  61.993  1.00  0.00     0.102 C
HETATM    3  C2  UNL     1       9.811  29.642  62.996  1.00  0.00     0.077 A
HETATM    4  C3  UNL     1      10.404  30.841  62.662  1.00  0.00     0.025 A
HETATM    5  C4  UNL     1      10.603  31.834  63.594  1.00  0.00     0.002 A
HETATM    6  C5  UNL     1      10.210  31.656  64.904  1.00  0.00     0.003 A
HETATM    7  C6  UNL     1       9.615  30.441  65.224  1.00  0.00     0.038 A
HETATM    8  C7  UNL     1       9.408  29.441  64.308  1.00  0.00     0.090 A
ENDROOT
BRANCH   8   9
HETATM    9  O1  UNL     1       8.824  28.269  64.668  1.00  0.00    -0.340 OA
BRANCH   9  10
HETATM   10  C8  UNL     1       7.542  27.994  65.089  1.00  0.00     0.286 C
BRANCH  10  11
HETATM   11  C9  UNL     1       7.423  27.262  66.369  1.00  0.00     0.283 C
HETATM   12  O2  UNL     1       8.165  27.549  67.340  1.00  0.00    -0.263 OA
BRANCH  11  13
HETATM   13  O3  UNL     1       6.506  26.243  66.561  1.00  0.00    -0.310 OA
BRANCH  13  14
HETATM   14  C10 UNL     1       5.190  26.512  66.920  1.00  0.00     0.281 C
BRANCH  14  15
HETATM   15  C11 UNL     1       4.946  26.051  68.331  1.00  0.00     0.246 C
HETATM   16  O4  UNL     1       5.950  25.885  69.047  1.00  0.00    -0.271 OA
HETATM   17  N2  UNL     1       3.653  25.822  68.809  1.00  0.00    -0.323 N
ATOM     18  H2  UNL     1       2.906  25.991  68.135  1.00  0.00     0.169 HD
BRANCH  17  19
HETATM   19  C12 UNL     1       3.226  25.394  70.074  1.00  0.00     0.063 A
HETATM   20  C13 UNL     1       3.754  25.909  71.222  1.00  0.00     0.118 A
HETATM   21  N3  UNL     1       3.386  25.458  72.447  1.00  0.00    -0.371 N
HETATM   22  C14 UNL     1       2.498  24.499  72.554  1.00  0.00     0.124 A
ATOM     23  H3  UNL     1       3.800  25.864  73.285  1.00  0.00     0.164 HD
HETATM   24  C15 UNL     1       1.901  23.913  71.402  1.00  0.00     0.130 A
HETATM   25  C16 UNL     1       2.255  24.348  70.148  1.00  0.00     0.027 A
BRANCH  24  26
HETATM   26  N4  UNL     1       0.883  22.994  71.717  1.00  0.00    -0.113 N
HETATM   27  O5  UNL     1       1.259  21.738  71.825  1.00  0.00    -0.532 OA
HETATM   28  O6  UNL     1      -0.419  23.123  71.964  1.00  0.00    -0.532 OA
ENDBRANCH  24  26
BRANCH  25  29
HETATM   29  C17 UNL     1       1.670  23.967  68.896  1.00  0.00     0.020 C
HETATM   30  C18 UNL     1       1.579  22.843  68.256  1.00  0.00     0.057 C
BRANCH  30  31
HETATM   31  C19 UNL     1       0.888  22.800  66.971  1.00  0.00     0.189 C
HETATM   32  O7  UNL     1       0.735  23.849  66.312  1.00  0.00    -0.287 OA
BRANCH  31  33
HETATM   33  C20 UNL     1       0.361  21.526  66.433  1.00  0.00     0.054 A
HETATM   34  C21 UNL     1      -0.438  21.344  65.336  1.00  0.00     0.023 A
HETATM   35  C22 UNL     1      -0.797  20.092  65.032  1.00  0.00     0.009 A
HETATM   36  C23 UNL     1      -0.336  19.091  65.844  1.00  0.00     0.050 A
HETATM   37  S1  UNL     1       0.584  19.938  67.005  1.00  0.00    -0.098 SA
ENDBRANCH  31  33
ENDBRANCH  30  31
ENDBRANCH  25  29
ENDBRANCH  17  19
ENDBRANCH  14  15
ENDBRANCH  13  14
ENDBRANCH  11  13
ENDBRANCH  10  11
ENDBRANCH   9  10
ENDBRANCH   8   9
TORSDOF 11
ENDMDL