MODEL 4
REMARK VINA RESULT: -8.543309383      2.631      8.598
REMARK  11 active torsions:
REMARK  status: ('A' for Active; 'I' for Inactive)
REMARK    1  A    between atoms: O1_2  and  C2_3
REMARK    2  A    between atoms: C6_9  and  C7_10
REMARK       I    between atoms: C7_10  and  N2_12
REMARK    3  A    between atoms: N2_12  and  N3_14
REMARK    4  A    between atoms: C8_16  and  C9_17
REMARK    5  A    between atoms: C8_16  and  C20_31
REMARK    6  A    between atoms: C9_17  and  C10_19
REMARK    7  A    between atoms: C10_19  and  C11_20
REMARK    8  A    between atoms: C11_20  and  O4_22
REMARK    9  A    between atoms: O4_22  and  C13_23
REMARK   10  A    between atoms: C13_23  and  C14_25
REMARK   11  A    between atoms: C23_34  and  N4_35
ROOT
HETATM    1  N3  UNL     1      10.243  29.807  67.003  1.00  0.00    -0.292 N
ATOM      2  H3  UNL     1       9.951  29.363  67.874  1.00  0.00     0.187 HD
HETATM    3  C8  UNL     1       9.566  29.601  65.951  1.00  0.00     0.128 C
ENDROOT
BRANCH   3   4
HETATM    4  C9  UNL     1       9.922  30.197  64.694  1.00  0.00     0.182 C
HETATM    5  O3  UNL     1      10.013  31.455  64.637  1.00  0.00    -0.291 OA
BRANCH   4   6
HETATM    6  C10 UNL     1      10.174  29.347  63.505  1.00  0.00     0.117 C
BRANCH   6   7
HETATM    7  C11 UNL     1      10.625  30.162  62.313  1.00  0.00     0.135 C
HETATM    8  C12 UNL     1       9.494  30.839  61.605  1.00  0.00     0.040 C
BRANCH   7   9
HETATM    9  O4  UNL     1      11.363  29.312  61.456  1.00  0.00    -0.312 OA
BRANCH   9  10
HETATM   10  C13 UNL     1      10.746  28.527  60.484  1.00  0.00     0.293 C
HETATM   11  O5  UNL     1      10.498  29.100  59.393  1.00  0.00    -0.259 OA
BRANCH  10  12
HETATM   12  C14 UNL     1      10.412  27.127  60.722  1.00  0.00     0.039 A
HETATM   13  C15 UNL     1       9.847  26.728  61.910  1.00  0.00     0.017 A
HETATM   14  C16 UNL     1       9.515  25.401  62.175  1.00  0.00     0.001 A
HETATM   15  C17 UNL     1       9.760  24.450  61.210  1.00  0.00     0.000 A
HETATM   16  C18 UNL     1      10.323  24.844  60.026  1.00  0.00     0.001 A
HETATM   17  C19 UNL     1      10.654  26.168  59.763  1.00  0.00     0.017 A
ENDBRANCH  10  12
ENDBRANCH   9  10
ENDBRANCH   7   9
ENDBRANCH   6   7
ENDBRANCH   4   6
ENDBRANCH   3   4
BRANCH   3  18
HETATM   18  C20 UNL     1       8.395  28.726  66.037  1.00  0.00     0.110 A
HETATM   19  C21 UNL     1       7.435  28.568  65.029  1.00  0.00     0.044 A
HETATM   20  C22 UNL     1       6.497  27.673  65.474  1.00  0.00     0.066 A
HETATM   21  C23 UNL     1       6.902  27.304  66.735  1.00  0.00     0.215 A
HETATM   22  O8  UNL     1       8.023  27.951  67.020  1.00  0.00    -0.286 OA
BRANCH  21  23
HETATM   23  N4  UNL     1       6.222  26.387  67.572  1.00  0.00    -0.090 N
HETATM   24  O6  UNL     1       5.218  25.810  67.156  1.00  0.00    -0.530 OA
HETATM   25  O7  UNL     1       6.691  26.150  68.840  1.00  0.00    -0.530 OA
ENDBRANCH  21  23
ENDBRANCH   3  18
BRANCH   1  26
HETATM   26  N2  UNL     1      11.391  30.634  67.008  1.00  0.00    -0.265 N
HETATM   27  C7  UNL     1      11.398  31.777  67.838  1.00  0.00     0.274 C
HETATM   28  O2  UNL     1      10.339  31.995  68.548  1.00  0.00    -0.266 OA
ATOM     29  H2  UNL     1      12.197  30.409  66.424  1.00  0.00     0.190 HD
BRANCH  27  30
HETATM   30  C6  UNL     1      12.473  32.730  67.973  1.00  0.00     0.084 A
HETATM   31  C2  UNL     1      12.971  33.517  66.971  1.00  0.00     0.157 A
HETATM   32  N1  UNL     1      13.987  34.370  67.241  1.00  0.00    -0.346 N
HETATM   33  C3  UNL     1      14.545  34.497  68.444  1.00  0.00     0.090 A
ATOM     34  H1  UNL     1      14.345  34.948  66.481  1.00  0.00     0.167 HD
HETATM   35  C4  UNL     1      14.055  33.713  69.461  1.00  0.00     0.018 A
HETATM   36  C5  UNL     1      13.043  32.840  69.258  1.00  0.00     0.023 A
BRANCH  31  37
HETATM   37  O1  UNL     1      12.453  33.446  65.703  1.00  0.00    -0.340 OA
HETATM   38  C1  UNL     1      12.198  34.545  64.874  1.00  0.00     0.211 C
ENDBRANCH  31  37
ENDBRANCH  27  30
ENDBRANCH   1  26
TORSDOF 11
ENDMDL