MODEL 4
REMARK VINA RESULT: -5.524635943      1.381      1.646
REMARK  1 active torsions:
REMARK  status: ('A' for Active; 'I' for Inactive)
REMARK    1  A    between atoms: C3_4  and  C4_5
ROOT
HETATM    1  C1  UNL     1      17.914   3.501  10.961  1.00  0.00     0.258 C
HETATM    2  C2  UNL     1      18.431   3.988  12.261  1.00  0.00     0.196 C
HETATM    3  O1  UNL     1      18.181   3.174  13.340  1.00  0.00    -0.380 OA
HETATM    4  C3  UNL     1      16.845   2.880  13.360  1.00  0.00     0.178 C
HETATM    5  C8  UNL     1      16.542   1.979  12.217  1.00  0.00     0.266 C
HETATM    6  N1  UNL     1      16.669   2.810  11.008  1.00  0.00    -0.071 N
ATOM      7  H11 UNL     1      16.521   2.259  10.163  1.00  0.00     0.277 HD
ATOM      8  H12 UNL     1      15.885   3.455  10.919  1.00  0.00     0.277 HD
ENDROOT
BRANCH   4   9
HETATM    9  C4  UNL     1      16.411   2.367  14.698  1.00  0.00     0.175 C
HETATM   10  C5  UNL     1      17.515   2.224  15.684  1.00  0.00     0.202 C
HETATM   11  O2  UNL     1      17.116   1.304  16.653  1.00  0.00    -0.386 OA
HETATM   12  C6  UNL     1      15.744   1.223  16.752  1.00  0.00     0.193 C
HETATM   13  C7  UNL     1      15.029   2.496  16.453  1.00  0.00     0.194 C
HETATM   14  O3  UNL     1      15.393   3.093  15.270  1.00  0.00    -0.379 OA
ENDBRANCH   4   9
TORSDOF 1
ENDMDL