MODEL 2
REMARK VINA RESULT: -5.199938538      2.500      3.048
REMARK  2 active torsions:
REMARK  status: ('A' for Active; 'I' for Inactive)
REMARK    1  A    between atoms: N1_1  and  N2_4
REMARK    2  A    between atoms: N2_4  and  N3_5
ROOT
HETATM    1  N3  UNL     1      16.627   1.782  11.318  1.00  0.00    -0.218 N
HETATM    2  C1  UNL     1      16.888   1.390  12.674  1.00  0.00     0.327 C
HETATM    3  O1  UNL     1      18.054   2.115  12.961  1.00  0.00    -0.357 OA
HETATM    4  C2  UNL     1      17.867   3.363  12.421  1.00  0.00     0.084 C
HETATM    5  C3  UNL     1      19.170   3.940  11.933  1.00  0.00     0.059 C
HETATM    6  C4  UNL     1      19.670   5.079  12.744  1.00  0.00     0.116 C
HETATM    7  N4  UNL     1      19.518   4.960  14.147  1.00  0.00    -0.421 N
ATOM      8  H4  UNL     1      20.221   5.315  14.796  1.00  0.00     0.153 HD
HETATM    9  C5  UNL     1      18.334   4.319  14.599  1.00  0.00     0.116 C
HETATM   10  C6  UNL     1      17.317   4.271  13.489  1.00  0.00     0.059 C
HETATM   11  C7  UNL     1      16.878   3.195  11.269  1.00  0.00     0.199 C
ENDROOT
BRANCH   1  12
HETATM   12  N2  UNL     1      16.233   0.988  10.320  1.00  0.00    -0.244 NA
BRANCH  12  13
HETATM   13  N1  UNL     1      15.903   0.302   9.479  1.00  0.00    -0.261 N
ATOM     14  H12 UNL     1      15.617   0.986  10.180  1.00  0.00     0.193 HD
ATOM     15  H11 UNL     1      15.620  -0.319   8.722  1.00  0.00     0.193 HD
ENDBRANCH  12  13
ENDBRANCH   1  12
TORSDOF 2
ENDMDL