MODEL 3
REMARK VINA RESULT: -5.296372344      2.800      3.319
REMARK  1 active torsions:
REMARK  status: ('A' for Active; 'I' for Inactive)
REMARK    1  A    between atoms: O1_3  and  C2_4
ROOT
HETATM    1  N1  UNL     1      17.135   1.156  16.294  1.00  0.00    -0.164 NA
HETATM    2  C1  UNL     1      16.909   1.129  15.148  1.00  0.00     0.229 C
HETATM    3  O1  UNL     1      16.655   1.075  13.807  1.00  0.00    -0.276 OA
ENDROOT
BRANCH   3   4
HETATM    4  C2  UNL     1      16.400   2.223  13.038  1.00  0.00     0.168 C
HETATM    5  C3  UNL     1      17.235   3.404  13.439  1.00  0.00     0.066 C
HETATM    6  C4  UNL     1      18.383   3.689  12.546  1.00  0.00     0.275 C
HETATM    7  N2  UNL     1      18.108   3.602  11.145  1.00  0.00     0.095 N
HETATM    8  C5  UNL     1      19.022   2.632  10.564  1.00  0.00     0.316 C
HETATM    9  C8  UNL     1      16.780   3.160  10.831  1.00  0.00     0.300 C
HETATM   10  C6  UNL     1      18.833   1.271  11.173  1.00  0.00     0.086 C
HETATM   11  N3  UNL     1      17.495   0.855  11.317  1.00  0.00    -0.392 N
HETATM   12  C7  UNL     1      16.530   1.880  11.569  1.00  0.00     0.139 C
ATOM     13  H3  UNL     1      17.228  -0.127  11.245  1.00  0.00     0.159 HD
ENDBRANCH   3   4
TORSDOF 1
ENDMDL