MODEL 2
REMARK VINA RESULT: -5.224755146      1.519      4.838
REMARK  2 active torsions:
REMARK  status: ('A' for Active; 'I' for Inactive)
REMARK    1  A    between atoms: C3_4  and  O2_5
REMARK    2  A    between atoms: O2_5  and  N1_6
ROOT
HETATM    1  C1  UNL     1      18.517   0.888  11.119  1.00  0.00     0.264 C
HETATM    2  C2  UNL     1      17.528  -0.245  11.280  1.00  0.00     0.200 C
HETATM    3  O1  UNL     1      16.744   0.170  12.324  1.00  0.00    -0.336 OA
HETATM    4  C3  UNL     1      16.823   1.533  12.447  1.00  0.00     0.491 C
HETATM    5  N2  UNL     1      17.630   2.035  11.349  1.00  0.00    -0.021 N
ATOM      6  H21 UNL     1      17.112   2.362  10.533  1.00  0.00     0.283 HD
ATOM      7  H22 UNL     1      18.097   2.927  11.516  1.00  0.00     0.283 HD
ENDROOT
BRANCH   4   8
HETATM    8  O2  UNL     1      17.391   1.943  13.627  1.00  0.00    -0.220 OA
BRANCH   8   9
HETATM    9  N1  UNL     1      16.579   2.069  14.653  1.00  0.00    -0.285 N
HETATM   10  C4  UNL     1      16.255   3.396  15.055  1.00  0.00     0.175 C
HETATM   11  C5  UNL     1      14.943   3.303  15.849  1.00  0.00     0.189 C
HETATM   12  O3  UNL     1      15.246   2.558  16.988  1.00  0.00    -0.388 OA
HETATM   13  C6  UNL     1      15.612   1.256  16.696  1.00  0.00     0.189 C
HETATM   14  C7  UNL     1      16.770   1.166  15.735  1.00  0.00     0.175 C
ENDBRANCH   8   9
ENDBRANCH   4   8
TORSDOF 2
ENDMDL