MODEL 5
REMARK VINA RESULT: -5.211836090      1.374      3.610
REMARK  2 active torsions:
REMARK  status: ('A' for Active; 'I' for Inactive)
REMARK    1  A    between atoms: O1_1  and  C1_3
REMARK    2  A    between atoms: C1_3  and  C2_4
ROOT
HETATM    1  C2  UNL     1      16.785   2.603  14.601  1.00  0.00     0.215 A
HETATM    2  O2  UNL     1      16.509   1.550  13.833  1.00  0.00    -0.318 OA
HETATM    3  C3  UNL     1      16.655   1.592  12.504  1.00  0.00     0.290 C
HETATM    4  C4  UNL     1      18.006   2.019  11.996  1.00  0.00     0.232 C
HETATM    5  O3  UNL     1      17.856   3.380  11.870  1.00  0.00    -0.356 OA
HETATM    6  C5  UNL     1      16.515   3.638  11.824  1.00  0.00     0.265 C
HETATM    7  C6  UNL     1      16.119   4.454  13.024  1.00  0.00     0.098 C
HETATM    8  C7  UNL     1      16.604   3.917  14.320  1.00  0.00     0.194 A
HETATM    9  O4  UNL     1      15.499   3.225  15.029  1.00  0.00    -0.340 OA
HETATM   10  O5  UNL     1      15.814   2.469  11.833  1.00  0.00    -0.329 OA
ENDROOT
BRANCH   1  11
HETATM   11  C1  UNL     1      17.604   2.244  15.854  1.00  0.00     0.235 C
BRANCH  11  12
HETATM   12  O1  UNL     1      17.228   1.008  16.347  1.00  0.00    -0.395 OA
ATOM     13  H1  UNL     1      17.975   0.422  16.389  1.00  0.00     0.209 HD
ENDBRANCH  11  12
ENDBRANCH   1  11
TORSDOF 2
ENDMDL