MODEL 4
REMARK VINA RESULT: -5.746862449      2.691      4.212
REMARK  2 active torsions:
REMARK  status: ('A' for Active; 'I' for Inactive)
REMARK    1  A    between atoms: C3_4  and  C4_5
REMARK    2  A    between atoms: C4_5  and  O1_6
ROOT
HETATM    1  N1  UNL     1      15.134   4.907  13.225  1.00  0.00    -0.195 NA
HETATM    2  C1  UNL     1      15.537   4.027  13.836  1.00  0.00     0.081 C
HETATM    3  C2  UNL     1      16.055   2.936  14.614  1.00  0.00     0.194 C
HETATM    4  C3  UNL     1      17.569   2.884  14.627  1.00  0.00     0.062 C
HETATM    5  C5  UNL     1      17.787   1.970  15.847  1.00  0.00     0.152 C
HETATM    6  N2  UNL     1      16.521   1.676  16.350  1.00  0.00    -0.320 N
HETATM    7  C6  UNL     1      15.484   1.161  16.869  1.00  0.00     0.101 A
HETATM    8  C7  UNL     1      14.638   1.259  17.097  1.00  0.00    -0.007 A
HETATM    9  C8  UNL     1      13.566   2.069  17.130  1.00  0.00     0.045 A
HETATM   10  C9  UNL     1      14.487   3.282  16.404  1.00  0.00     0.119 A
HETATM   11  N3  UNL     1      15.794   3.069  16.034  1.00  0.00    -0.211 NA
ENDROOT
BRANCH   4  12
HETATM   12  C4  UNL     1      18.111   4.267  14.966  1.00  0.00     0.173 C
BRANCH  12  13
HETATM   13  O1  UNL     1      19.483   4.223  15.182  1.00  0.00    -0.400 OA
ATOM     14  H1  UNL     1      19.736   3.407  15.597  1.00  0.00     0.209 HD
ENDBRANCH  12  13
ENDBRANCH   4  12
TORSDOF 2
ENDMDL