MODEL 5
REMARK VINA RESULT: -5.310052057      2.020      3.803
REMARK  2 active torsions:
REMARK  status: ('A' for Active; 'I' for Inactive)
REMARK    1  A    between atoms: C2_3  and  N2_4
REMARK    2  A    between atoms: C7_9  and  O1_10
ROOT
HETATM    1  N1  UNL     1      14.899   5.917  13.059  1.00  0.00    -0.195 NA
HETATM    2  C1  UNL     1      14.926   5.278  14.023  1.00  0.00     0.089 C
HETATM    3  C2  UNL     1      14.946   4.494  15.241  1.00  0.00     0.396 C
ENDROOT
BRANCH   3   4
HETATM    4  N2  UNL     1      15.510   3.191  15.098  1.00  0.00     0.111 N
HETATM    5  C3  UNL     1      15.299   2.307  16.193  1.00  0.00     0.306 C
HETATM    6  C4  UNL     1      16.569   1.442  16.200  1.00  0.00     0.152 C
HETATM    7  C5  UNL     1      17.600   2.518  15.887  1.00  0.00     0.072 C
HETATM    8  O2  UNL     1      16.441   0.488  15.268  1.00  0.00    -0.381 OA
HETATM    9  C6  UNL     1      16.871   3.155  14.690  1.00  0.00     0.257 C
HETATM   10  C7  UNL     1      17.084   2.115  13.582  1.00  0.00     0.175 C
HETATM   11  C8  UNL     1      16.710   0.739  13.981  1.00  0.00     0.202 C
BRANCH  10  12
HETATM   12  O1  UNL     1      16.431   2.521  12.404  1.00  0.00    -0.391 OA
ATOM     13  H1  UNL     1      17.069   2.774  11.746  1.00  0.00     0.210 HD
ENDBRANCH  10  12
ENDBRANCH   3   4
TORSDOF 2
ENDMDL