MODEL 3
REMARK VINA RESULT: -5.638356063      2.024      4.085
REMARK  2 active torsions:
REMARK  status: ('A' for Active; 'I' for Inactive)
REMARK    1  A    between atoms: C2_2  and  C3_3
REMARK    2  A    between atoms: C8_11  and  O3_12
ROOT
HETATM    1  C3  UNL     1      15.645   2.565  15.805  1.00  0.00     0.177 C
HETATM    2  O1  UNL     1      16.786   2.436  16.615  1.00  0.00    -0.348 OA
HETATM    3  C4  UNL     1      17.911   2.453  15.777  1.00  0.00     0.285 C
HETATM    4  C5  UNL     1      18.173   3.887  15.286  1.00  0.00     0.094 C
HETATM    5  C6  UNL     1      17.089   3.934  14.259  1.00  0.00     0.085 A
HETATM    6  C7  UNL     1      17.106   3.657  12.897  1.00  0.00     0.152 A
HETATM    7  N1  UNL     1      17.547   2.613  13.596  1.00  0.00    -0.178 NA
HETATM    8  O2  UNL     1      17.474   1.855  14.576  1.00  0.00    -0.270 OA
HETATM    9  C8  UNL     1      15.789   3.825  15.022  1.00  0.00     0.177 C
ENDROOT
BRANCH   1  10
HETATM   10  C2  UNL     1      14.424   2.673  16.646  1.00  0.00    -0.003 C
HETATM   11  C1  UNL     1      13.797   1.599  17.079  1.00  0.00     0.009 C
ENDBRANCH   1  10
BRANCH   9  12
HETATM   12  O3  UNL     1      14.715   4.108  14.202  1.00  0.00    -0.391 OA
ATOM     13  H3  UNL     1      14.946   4.560  13.399  1.00  0.00     0.210 HD
ENDBRANCH   9  12
TORSDOF 2
ENDMDL