MODEL 2
REMARK VINA RESULT: -5.542830784      2.582      4.477
REMARK  2 active torsions:
REMARK  status: ('A' for Active; 'I' for Inactive)
REMARK    1  A    between atoms: O1_1  and  C1_3
REMARK    2  A    between atoms: C1_3  and  C2_4
ROOT
HETATM    1  C2  UNL     1      17.395   2.014  15.550  1.00  0.00     0.167 C
HETATM    2  O2  UNL     1      18.074   3.206  15.606  1.00  0.00    -0.374 OA
HETATM    3  C3  UNL     1      17.363   3.836  14.580  1.00  0.00     0.158 C
HETATM    4  C4  UNL     1      18.165   4.139  13.342  1.00  0.00     0.141 C
HETATM    5  N1  UNL     1      18.268   2.936  12.584  1.00  0.00    -0.247 NA
HETATM    6  C5  UNL     1      17.988   3.062  11.193  1.00  0.00     0.109 C
HETATM    7  C6  UNL     1      16.749   2.273  10.934  1.00  0.00     0.032 C
HETATM    8  C7  UNL     1      16.687   1.348  12.130  1.00  0.00     0.110 C
HETATM    9  N2  UNL     1      17.487   1.966  13.133  1.00  0.00    -0.240 NA
HETATM   10  C8  UNL     1      16.763   2.491  14.249  1.00  0.00     0.136 C
ENDROOT
BRANCH   1  11
HETATM   11  C1  UNL     1      16.326   1.823  16.606  1.00  0.00     0.197 C
BRANCH  11  12
HETATM   12  O1  UNL     1      15.845   0.505  16.442  1.00  0.00    -0.398 OA
ATOM     13  H1  UNL     1      14.898   0.567  16.466  1.00  0.00     0.209 HD
ENDBRANCH  11  12
ENDBRANCH   1  11
TORSDOF 2
ENDMDL