MODEL 1
REMARK VINA RESULT: -5.276503076      0.000      0.000
REMARK  1 active torsions:
REMARK  status: ('A' for Active; 'I' for Inactive)
REMARK    1  A    between atoms: C3_4  and  N1_5
ROOT
HETATM    1  C1  UNL     1      16.018   2.261  16.687  1.00  0.00     0.140 C
HETATM    2  C2  UNL     1      16.475   0.925  16.167  1.00  0.00     0.189 C
HETATM    3  O1  UNL     1      16.171   0.777  14.817  1.00  0.00    -0.364 OA
HETATM    4  C3  UNL     1      16.865   1.811  14.148  1.00  0.00     0.236 C
HETATM    5  C8  UNL     1      16.081   3.070  14.410  1.00  0.00     0.167 C
HETATM    6  N2  UNL     1      15.467   3.121  15.691  1.00  0.00    -0.415 N
ATOM      7  H2  UNL     1      14.678   3.737  15.887  1.00  0.00     0.153 HD
ENDROOT
BRANCH   4   8
HETATM    8  N1  UNL     1      17.102   1.513  12.791  1.00  0.00    -0.382 N
HETATM    9  C4  UNL     1      16.684   2.439  11.812  1.00  0.00     0.145 C
HETATM   10  C5  UNL     1      16.227   1.674  10.587  1.00  0.00     0.187 C
HETATM   11  O2  UNL     1      17.283   0.875  10.171  1.00  0.00    -0.388 OA
HETATM   12  C6  UNL     1      17.601  -0.130  11.068  1.00  0.00     0.187 C
HETATM   13  C7  UNL     1      17.073   0.132  12.455  1.00  0.00     0.145 C
ENDBRANCH   4   8
TORSDOF 1
ENDMDL