MODEL 5
REMARK VINA RESULT: -7.066860133      1.853      2.348
REMARK  5 active torsions:
REMARK  status: ('A' for Active; 'I' for Inactive)
REMARK    1  A    between atoms: C2_2  and  O1_3
REMARK    2  A    between atoms: O1_3  and  C3_4
REMARK    3  A    between atoms: C3_4  and  C4_6
REMARK    4  A    between atoms: C5_7  and  C6_8
REMARK    5  A    between atoms: N1_11  and  O4_13
ROOT
HETATM    1  C4  UNL     1      17.223   1.321  13.700  1.00  0.00     0.081 C
HETATM    2  C5  UNL     1      17.231   0.037  13.408  1.00  0.00     0.020 C
ENDROOT
BRANCH   1   3
HETATM    3  C3  UNL     1      17.257   1.816  15.072  1.00  0.00     0.287 C
HETATM    4  O2  UNL     1      17.716   1.152  16.024  1.00  0.00    -0.260 OA
BRANCH   3   5
HETATM    5  O1  UNL     1      16.761   3.069  15.331  1.00  0.00    -0.278 OA
BRANCH   5   6
HETATM    6  C2  UNL     1      17.287   4.252  14.897  1.00  0.00     0.086 C
HETATM    7  C1  UNL     1      18.740   4.540  14.898  1.00  0.00     0.079 C
HETATM    8  C8  UNL     1      16.474   5.188  14.454  1.00  0.00     0.132 C
HETATM    9 CL1  UNL     1      14.744   4.902  14.431  1.00  0.00    -0.068 Cl
HETATM   10 CL2  UNL     1      17.126   6.734  13.883  1.00  0.00    -0.068 Cl
ENDBRANCH   5   6
ENDBRANCH   3   5
ENDBRANCH   1   3
BRANCH   2  11
HETATM   11  C6  UNL     1      17.195  -0.367  11.987  1.00  0.00     0.229 A
HETATM   12  O3  UNL     1      18.315   0.021  11.191  1.00  0.00    -0.318 OA
HETATM   13  C7  UNL     1      17.979  -1.372  11.464  1.00  0.00     0.172 A
HETATM   14  N1  UNL     1      18.510  -2.501  11.122  1.00  0.00    -0.248 N
ATOM     15  H1  UNL     1      19.345  -2.488  10.537  1.00  0.00     0.196 HD
BRANCH  14  16
HETATM   16  O4  UNL     1      18.007  -3.701  11.507  1.00  0.00    -0.288 OA
ATOM     17  H4  UNL     1      17.995  -4.463  10.939  1.00  0.00     0.244 HD
ENDBRANCH  14  16
ENDBRANCH   2  11
TORSDOF 5
ENDMDL