MODEL 3
REMARK VINA RESULT: -6.710913386      3.022      6.010
REMARK  4 active torsions:
REMARK  status: ('A' for Active; 'I' for Inactive)
REMARK    1  A    between atoms: C3_3  and  N1_4
REMARK    2  A    between atoms: C3_3  and  C9_16
REMARK    3  A    between atoms: N1_4  and  N2_6
REMARK    4  A    between atoms: C4_8  and  C5_9
ROOT
HETATM    1  N2  UNL     1      17.163   2.113  13.770  1.00  0.00    -0.307 N
ATOM      2  H2  UNL     1      16.229   1.819  13.485  1.00  0.00     0.186 HD
HETATM    3  C4  UNL     1      17.409   2.353  15.005  1.00  0.00     0.162 C
ENDROOT
BRANCH   1   4
HETATM    4  N1  UNL     1      18.158   2.252  12.825  1.00  0.00    -0.301 N
ATOM      5  H1  UNL     1      18.756   3.077  12.866  1.00  0.00     0.186 HD
BRANCH   4   6
HETATM    6  C3  UNL     1      18.390   1.298  11.795  1.00  0.00     0.076 C
HETATM    7  C2  UNL     1      19.403   1.480  10.995  1.00  0.00     0.000 C
HETATM    8  C1  UNL     1      20.281   2.644  11.155  1.00  0.00     0.038 C
BRANCH   6   9
HETATM    9  C9  UNL     1      17.467   0.122  11.667  1.00  0.00     0.218 C
HETATM   10  C10 UNL     1      16.348   0.394  10.720  1.00  0.00     0.077 C
HETATM   11  F1  UNL     1      16.955  -0.152  12.924  1.00  0.00    -0.219 F
HETATM   12 CL1  UNL     1      18.394  -1.301  11.159  1.00  0.00    -0.076 Cl
ENDBRANCH   6   9
ENDBRANCH   4   6
ENDBRANCH   1   4
BRANCH   3  13
HETATM   13  C5  UNL     1      16.342   2.198  15.969  1.00  0.00     0.155 C
HETATM   14  N3  UNL     1      15.366   3.039  15.967  1.00  0.00    -0.370 N
HETATM   15  C6  UNL     1      14.255   2.975  16.881  1.00  0.00     0.123 C
ATOM     16  H3  UNL     1      15.380   3.793  15.280  1.00  0.00     0.161 HD
HETATM   17  C7  UNL     1      14.112   1.557  17.365  1.00  0.00     0.046 C
HETATM   18  C8  UNL     1      15.458   1.140  17.945  1.00  0.00     0.179 C
HETATM   19  O1  UNL     1      16.383   1.157  16.870  1.00  0.00    -0.335 OA
ENDBRANCH   3  13
TORSDOF 4
ENDMDL