MODEL 1
REMARK VINA RESULT: -7.193665693      0.000      0.000
REMARK  3 active torsions:
REMARK  status: ('A' for Active; 'I' for Inactive)
REMARK    1  A    between atoms: C2_2  and  C9_18
REMARK    2  A    between atoms: N1_3  and  N2_5
REMARK       I    between atoms: N2_5  and  C3_7
REMARK    3  A    between atoms: C3_7  and  C4_9
ROOT
HETATM    1  C4  UNL     1      17.058   0.757  13.603  1.00  0.00     0.184 A
HETATM    2  O2  UNL     1      17.654  -0.374  13.213  1.00  0.00    -0.289 OA
HETATM    3  C5  UNL     1      17.711  -0.496  11.936  1.00  0.00     0.121 A
HETATM    4  C6  UNL     1      18.312  -1.640  11.145  1.00  0.00     0.098 C
HETATM    5  N3  UNL     1      17.135   0.586  11.393  1.00  0.00    -0.329 N
ATOM      6  H3  UNL     1      17.025   0.781  10.399  1.00  0.00     0.168 HD
HETATM    7  C7  UNL     1      16.721   1.380  12.435  1.00  0.00     0.155 A
HETATM    8  C8  UNL     1      16.055   2.638  12.274  1.00  0.00     0.121 C
HETATM    9  N4  UNL     1      15.521   3.645  12.115  1.00  0.00    -0.190 NA
ENDROOT
BRANCH   1  10
HETATM   10  C3  UNL     1      16.852   1.162  14.984  1.00  0.00     0.296 C
HETATM   11  N2  UNL     1      16.049   0.597  15.956  1.00  0.00    -0.264 N
ATOM     12  H2  UNL     1      15.491  -0.230  15.740  1.00  0.00     0.190 HD
HETATM   13  O1  UNL     1      17.526   2.208  15.342  1.00  0.00    -0.264 OA
BRANCH  11  14
HETATM   14  N1  UNL     1      16.001   1.158  17.235  1.00  0.00    -0.301 N
HETATM   15  C2  UNL     1      15.217   2.058  17.657  1.00  0.00     0.063 C
HETATM   16  C1  UNL     1      15.341   2.521  19.082  1.00  0.00     0.071 C
ATOM     17  H1  UNL     1      16.679   0.800  17.908  1.00  0.00     0.186 HD
BRANCH  15  18
HETATM   18  C9  UNL     1      14.199   2.647  16.770  1.00  0.00     0.400 C
HETATM   19  F1  UNL     1      13.081   1.832  16.802  1.00  0.00    -0.208 F
HETATM   20  F2  UNL     1      13.901   3.946  17.063  1.00  0.00    -0.208 F
ENDBRANCH  15  18
ENDBRANCH  11  14
ENDBRANCH   1  10
TORSDOF 3
ENDMDL