MODEL 2
REMARK VINA RESULT: -6.064372272      3.012      3.531
REMARK  4 active torsions:
REMARK  status: ('A' for Active; 'I' for Inactive)
REMARK    1  A    between atoms: C2_2  and  O1_3
REMARK    2  A    between atoms: C2_2  and  C3_5
REMARK    3  A    between atoms: C5_10  and  C6_11
REMARK    4  A    between atoms: C5_10  and  C7_13
ROOT
HETATM    1  C7  UNL     1      15.967   2.633  11.547  1.00  0.00     0.140 C
HETATM    2  C8  UNL     1      15.941   3.926  10.860  1.00  0.00     0.060 C
HETATM    3  N2  UNL     1      15.918   4.955  10.325  1.00  0.00    -0.197 NA
ENDROOT
BRANCH   1   4
HETATM    4  C5  UNL     1      17.316   2.413  12.203  1.00  0.00     0.042 C
HETATM    5  C4  UNL     1      17.370   1.081  12.868  1.00  0.00     0.281 C
HETATM    6  N1  UNL     1      16.790   0.967  14.123  1.00  0.00    -0.355 N
HETATM    7  F1  UNL     1      16.803   0.131  12.023  1.00  0.00    -0.226 F
HETATM    8  C3  UNL     1      16.383   1.804  14.935  1.00  0.00     0.073 C
ATOM      9  H1  UNL     1      16.677   0.003  14.436  1.00  0.00     0.162 HD
HETATM   10  S1  UNL     1      16.503   3.534  14.554  1.00  0.00    -0.113 SA
HETATM   11  C9  UNL     1      17.598   3.583  13.082  1.00  0.00     0.097 C
BRANCH   8  12
HETATM   12  C2  UNL     1      15.798   1.395  16.221  1.00  0.00     0.170 C
HETATM   13  C1  UNL     1      14.665   2.299  16.662  1.00  0.00     0.046 C
BRANCH  12  14
HETATM   14  O1  UNL     1      16.773   1.408  17.225  1.00  0.00    -0.389 OA
ATOM     15  H1  UNL     1      16.454   0.879  17.947  1.00  0.00     0.210 HD
ENDBRANCH  12  14
ENDBRANCH   8  12
BRANCH   4  16
HETATM   16  C6  UNL     1      18.342   2.486  11.062  1.00  0.00     0.130 C
HETATM   17 CL1  UNL     1      19.581   1.232  11.231  1.00  0.00    -0.129 Cl
ENDBRANCH   4  16
ENDBRANCH   1   4
TORSDOF 4
ENDMDL