MODEL 5
REMARK VINA RESULT: -6.642250988      2.224      2.578
REMARK  4 active torsions:
REMARK  status: ('A' for Active; 'I' for Inactive)
REMARK    1  A    between atoms: C2_2  and  C7_12
REMARK    2  A    between atoms: N1_3  and  N2_5
REMARK       I    between atoms: N2_5  and  C3_7
REMARK    3  A    between atoms: C3_7  and  C4_9
REMARK    4  A    between atoms: C9_15  and  C10_16
ROOT
HETATM    1  C1  UNL     1      16.856   5.385  14.660  1.00  0.00     0.072 C
HETATM    2  C2  UNL     1      17.820   4.379  14.174  1.00  0.00     0.050 C
HETATM    3  N1  UNL     1      17.683   3.120  14.382  1.00  0.00    -0.300 N
ATOM      4  H1  UNL     1      18.366   2.447  14.034  1.00  0.00     0.186 HD
ENDROOT
BRANCH   2   5
HETATM    5  C7  UNL     1      19.004   4.831  13.411  1.00  0.00     0.080 A
HETATM    6  C8  UNL     1      19.688   6.012  13.559  1.00  0.00     0.175 A
HETATM    7  O2  UNL     1      20.679   6.043  12.697  1.00  0.00    -0.302 OA
HETATM    8  C9  UNL     1      20.664   4.929  11.997  1.00  0.00     0.189 A
HETATM    9  N3  UNL     1      19.632   4.162  12.423  1.00  0.00    -0.332 N
ATOM     10  H3  UNL     1      19.376   3.243  12.062  1.00  0.00     0.168 HD
BRANCH   8  11
HETATM   11  C10 UNL     1      21.613   4.544  10.907  1.00  0.00     0.427 C
HETATM   12  F1  UNL     1      21.230   3.329  10.395  1.00  0.00    -0.205 F
HETATM   13  F2  UNL     1      22.904   4.389  11.427  1.00  0.00    -0.205 F
ENDBRANCH   8  11
ENDBRANCH   2   5
BRANCH   3  14
HETATM   14  N2  UNL     1      16.553   2.706  15.108  1.00  0.00    -0.270 N
HETATM   15  C3  UNL     1      16.717   1.699  16.083  1.00  0.00     0.240 C
HETATM   16  O1  UNL     1      17.842   1.198  16.282  1.00  0.00    -0.271 OA
ATOM     17  H2  UNL     1      15.639   3.123  14.934  1.00  0.00     0.190 HD
BRANCH  15  18
HETATM   18  C4  UNL     1      15.564   1.233  16.866  1.00  0.00     0.080 A
HETATM   19  C5  UNL     1      15.238   2.101  18.079  1.00  0.00     0.015 A
HETATM   20  C6  UNL     1      14.312   2.029  16.914  1.00  0.00     0.015 A
ENDBRANCH  15  18
ENDBRANCH   3  14
TORSDOF 4
ENDMDL