MODEL 4
REMARK VINA RESULT: -6.088303460      4.601      5.810
REMARK  3 active torsions:
REMARK  status: ('A' for Active; 'I' for Inactive)
REMARK       I    between atoms: C1_2  and  N1_3
REMARK    1  A    between atoms: C1_2  and  C7_10
REMARK    2  A    between atoms: N1_3  and  C2_5
REMARK    3  A    between atoms: C9_14  and  C10_15
ROOT
HETATM    1  C7  UNL     1      16.523   1.691  11.562  1.00  0.00     0.089 A
HETATM    2  C8  UNL     1      16.730   1.074  10.352  1.00  0.00     0.113 A
HETATM    3  N2  UNL     1      17.306  -0.083  10.353  1.00  0.00    -0.358 N
ATOM      4  H2  UNL     1      17.477  -0.571   9.473  1.00  0.00     0.165 HD
HETATM    5  C9  UNL     1      17.674  -0.634  11.503  1.00  0.00     0.116 A
HETATM    6  S1  UNL     1      17.188   0.536  12.648  1.00  0.00    -0.064 SA
ENDROOT
BRANCH   1   7
HETATM    7  C1  UNL     1      15.900   2.989  11.830  1.00  0.00     0.260 C
HETATM    8  O1  UNL     1      15.410   3.606  10.860  1.00  0.00    -0.267 OA
HETATM    9  N1  UNL     1      15.864   3.499  13.123  1.00  0.00    -0.352 N
ATOM     10  H1  UNL     1      16.286   2.936  13.862  1.00  0.00     0.163 HD
BRANCH   9  11
HETATM   11  C2  UNL     1      15.276   4.766  13.502  1.00  0.00     0.084 C
HETATM   12  C3  UNL     1      16.340   5.828  13.329  1.00  0.00     0.025 C
HETATM   13  C4  UNL     1      16.707   6.210  14.746  1.00  0.00     0.002 C
HETATM   14  C5  UNL     1      15.327   6.168  15.418  1.00  0.00     0.002 C
HETATM   15  C6  UNL     1      14.843   4.798  14.937  1.00  0.00     0.025 C
ENDBRANCH   9  11
ENDBRANCH   1   7
BRANCH   5  16
HETATM   16  C10 UNL     1      18.355  -1.966  11.712  1.00  0.00     0.410 C
HETATM   17  F1  UNL     1      17.505  -2.919  11.157  1.00  0.00    -0.207 F
HETATM   18  F2  UNL     1      19.583  -1.980  11.122  1.00  0.00    -0.207 F
ENDBRANCH   5  16
TORSDOF 3
ENDMDL