MODEL 2
REMARK VINA RESULT: -6.586373819      1.795      2.441
REMARK  5 active torsions:
REMARK  status: ('A' for Active; 'I' for Inactive)
REMARK    1  A    between atoms: C2_2  and  C3_3
REMARK    2  A    between atoms: C3_3  and  N1_5
REMARK    3  A    between atoms: C3_3  and  C9_17
REMARK    4  A    between atoms: N1_5  and  C5_7
REMARK    5  A    between atoms: C7_11  and  N3_12
ROOT
HETATM    1  C5  UNL     1      16.871   2.687  14.227  1.00  0.00     0.682 A
HETATM    2  N2  UNL     1      16.128   3.711  14.670  1.00  0.00    -0.198 N
ATOM      3  H2  UNL     1      16.117   4.644  14.260  1.00  0.00     0.183 HD
HETATM    4  C6  UNL     1      15.398   3.325  15.737  1.00  0.00     0.161 A
HETATM    5  C7  UNL     1      15.691   2.000  15.981  1.00  0.00     0.206 A
HETATM    6  N4  UNL     1      16.580   1.639  15.057  1.00  0.00    -0.165 N
HETATM    7  C8  UNL     1      17.166   0.333  14.936  1.00  0.00     0.177 C
ENDROOT
BRANCH   1   8
HETATM    8  N1  UNL     1      17.676   2.672  13.252  1.00  0.00    -0.208 N
ATOM      9  H1  UNL     1      18.665   2.735  13.495  1.00  0.00     0.179 HD
BRANCH   8  10
HETATM   10  C3  UNL     1      17.388   2.579  11.848  1.00  0.00     0.140 C
HETATM   11  C4  UNL     1      18.670   2.258  11.114  1.00  0.00     0.048 C
BRANCH  10  12
HETATM   12  C2  UNL     1      16.316   1.541  11.566  1.00  0.00     0.036 C
HETATM   13  C1  UNL     1      16.864   0.211  11.166  1.00  0.00     0.008 C
ENDBRANCH  10  12
BRANCH  10  14
HETATM   14  C9  UNL     1      16.884   3.925  11.330  1.00  0.00     0.412 C
HETATM   15  F1  UNL     1      17.551   4.970  11.933  1.00  0.00    -0.168 F
HETATM   16  F2  UNL     1      15.533   4.070  11.405  1.00  0.00    -0.168 F
HETATM   17  F3  UNL     1      17.199   4.044   9.965  1.00  0.00    -0.168 F
ENDBRANCH  10  14
ENDBRANCH   8  10
ENDBRANCH   1   8
BRANCH   5  18
HETATM   18  N3  UNL     1      15.132   1.188  17.034  1.00  0.00    -0.096 N
HETATM   19  O1  UNL     1      14.011   0.716  16.875  1.00  0.00    -0.530 OA
HETATM   20  O2  UNL     1      15.895   0.994  18.158  1.00  0.00    -0.530 OA
ENDBRANCH   5  18
TORSDOF 5
ENDMDL