MODEL 3
REMARK VINA RESULT: -5.673247516      2.126      2.726
REMARK  4 active torsions:
REMARK  status: ('A' for Active; 'I' for Inactive)
REMARK    1  A    between atoms: N1_1  and  C1_5
REMARK    2  A    between atoms: C1_5  and  C2_6
REMARK    3  A    between atoms: C2_6  and  C3_7
REMARK    4  A    between atoms: C2_6  and  N2_9
ROOT
HETATM    1  C1  UNL     1      16.832   3.564  13.640  1.00  0.00     0.148 C
HETATM    2  C6  UNL     1      15.357   3.332  13.939  1.00  0.00     0.041 C
HETATM    3  C7  UNL     1      15.222   3.387  15.425  1.00  0.00     0.002 C
HETATM    4  C8  UNL     1      14.853   4.683  16.005  1.00  0.00     0.000 C
HETATM    5  C9  UNL     1      15.153   5.914  15.269  1.00  0.00     0.000 C
HETATM    6  C10 UNL     1      16.255   5.909  14.294  1.00  0.00     0.002 C
HETATM    7  C11 UNL     1      17.238   4.781  14.431  1.00  0.00     0.041 C
ENDROOT
BRANCH   1   8
HETATM    8  N1  UNL     1      17.555   2.412  14.134  1.00  0.00    -0.068 N
ATOM      9  H13 UNL     1      17.380   2.237  15.123  1.00  0.00     0.275 HD
ATOM     10  H12 UNL     1      17.187   1.533  13.769  1.00  0.00     0.275 HD
ATOM     11  H11 UNL     1      18.545   2.537  13.928  1.00  0.00     0.275 HD
ENDBRANCH   1   8
BRANCH   1  12
HETATM   12  C2  UNL     1      17.100   3.702  12.172  1.00  0.00     0.173 C
BRANCH  12  13
HETATM   13  C3  UNL     1      15.793   3.683  11.408  1.00  0.00     0.252 C
HETATM   14  F1  UNL     1      15.447   4.995  11.106  1.00  0.00    -0.253 F
ENDBRANCH  12  13
BRANCH  12  15
HETATM   15  N2  UNL     1      17.851   2.536  11.746  1.00  0.00    -0.277 N
HETATM   16  C4  UNL     1      17.353   1.360  11.347  1.00  0.00     0.202 A
HETATM   17  N3  UNL     1      18.367   0.515  11.028  1.00  0.00    -0.346 N
HETATM   18  C5  UNL     1      19.506   1.197  11.240  1.00  0.00     0.198 A
ATOM     19  H3  UNL     1      18.282  -0.445  10.695  1.00  0.00     0.167 HD
HETATM   20  N4  UNL     1      19.172   2.423  11.676  1.00  0.00    -0.293 N
ATOM     21  H4  UNL     1      19.835   3.159  11.917  1.00  0.00     0.188 HD
ENDBRANCH  12  15
ENDBRANCH   1  12
TORSDOF 4
ENDMDL