MODEL 4
REMARK VINA RESULT: -6.880069295      1.673      2.002
REMARK  4 active torsions:
REMARK  status: ('A' for Active; 'I' for Inactive)
REMARK    1  A    between atoms: C2_2  and  C3_3
REMARK    2  A    between atoms: C4_6  and  C5_7
REMARK    3  A    between atoms: C7_9  and  C8_10
REMARK    4  A    between atoms: C9_13  and  C10_14
ROOT
HETATM    1  C3  UNL     1      14.673   6.005  12.522  1.00  0.00     0.124 A
HETATM    2  N1  UNL     1      14.839   5.233  13.579  1.00  0.00    -0.338 N
ATOM      3  H1  UNL     1      14.408   5.397  14.488  1.00  0.00     0.168 HD
HETATM    4  C4  UNL     1      15.681   4.167  13.285  1.00  0.00     0.079 A
HETATM    5  C9  UNL     1      15.997   4.357  11.989  1.00  0.00     0.188 A
HETATM    6  O3  UNL     1      15.372   5.475  11.564  1.00  0.00    -0.290 OA
ENDROOT
BRANCH   4   7
HETATM    7  C5  UNL     1      15.977   3.215  14.312  1.00  0.00    -0.026 C
HETATM    8  C6  UNL     1      15.273   3.398  15.663  1.00  0.00     0.050 C
HETATM    9  C7  UNL     1      16.756   2.183  14.331  1.00  0.00     0.093 C
BRANCH   9  10
HETATM   10  C8  UNL     1      17.028   1.246  15.385  1.00  0.00     0.199 C
HETATM   11  O1  UNL     1      17.961   1.330  16.180  1.00  0.00    -0.644 OA
HETATM   12  O2  UNL     1      16.185   0.137  15.547  1.00  0.00    -0.644 OA
ENDBRANCH   9  10
ENDBRANCH   4   7
BRANCH   5  13
HETATM   13  C10 UNL     1      16.862   3.514  11.152  1.00  0.00     0.441 C
HETATM   14  F1  UNL     1      16.292   2.378  10.652  1.00  0.00    -0.164 F
HETATM   15  F2  UNL     1      18.158   3.388  11.598  1.00  0.00    -0.164 F
HETATM   16  F3  UNL     1      17.055   4.283   9.958  1.00  0.00    -0.164 F
ENDBRANCH   5  13
BRANCH   1  17
HETATM   17  C2  UNL     1      13.850   7.245  12.421  1.00  0.00     0.080 C
HETATM   18  C1  UNL     1      14.216   8.048  11.208  1.00  0.00     0.013 C
ENDBRANCH   1  17
TORSDOF 4
ENDMDL