MODEL 1
REMARK VINA RESULT: -6.309295378      0.000      0.000
REMARK  3 active torsions:
REMARK  status: ('A' for Active; 'I' for Inactive)
REMARK    1  A    between atoms: C4_4  and  N1_5
REMARK    2  A    between atoms: N1_5  and  C5_8
REMARK    3  A    between atoms: C5_8  and  C6_9
ROOT
HETATM    1  N1  UNL     1      17.323   2.934  14.725  1.00  0.00    -0.070 N
ATOM      2  H11 UNL     1      18.098   2.273  14.676  1.00  0.00     0.277 HD
ATOM      3  H12 UNL     1      17.859   3.802  14.692  1.00  0.00     0.277 HD
ENDROOT
BRANCH   1   4
HETATM    4  C4  UNL     1      16.600   2.808  15.940  1.00  0.00     0.185 C
HETATM    5  C3  UNL     1      15.177   3.380  15.815  1.00  0.00     0.033 C
HETATM    6  C2  UNL     1      14.580   3.488  17.202  1.00  0.00     0.002 C
HETATM    7  C1  UNL     1      14.634   2.180  17.935  1.00  0.00     0.000 C
HETATM    8  C11 UNL     1      15.108   1.106  17.005  1.00  0.00     0.002 C
HETATM    9  C10 UNL     1      16.540   1.467  16.583  1.00  0.00     0.033 C
ENDBRANCH   1   4
BRANCH   1  10
HETATM   10  C5  UNL     1      16.429   2.807  13.575  1.00  0.00     0.239 C
BRANCH  10  11
HETATM   11  C6  UNL     1      17.136   2.191  12.412  1.00  0.00     0.037 C
HETATM   12  C7  UNL     1      16.948   0.676  12.426  1.00  0.00     0.034 C
HETATM   13  C8  UNL     1      17.430   0.381  11.013  1.00  0.00     0.168 C
HETATM   14  O1  UNL     1      17.256   1.542  10.278  1.00  0.00    -0.391 OA
HETATM   15  C9  UNL     1      16.600   2.489  11.053  1.00  0.00     0.173 C
ENDBRANCH  10  11
ENDBRANCH   1  10
TORSDOF 3
ENDMDL