MODEL 5
REMARK VINA RESULT: -5.961262986      2.328      5.206
REMARK  4 active torsions:
REMARK  status: ('A' for Active; 'I' for Inactive)
REMARK    1  A    between atoms: N1_1  and  C1_5
REMARK    2  A    between atoms: C1_5  and  C2_6
REMARK    3  A    between atoms: C1_5  and  C7_12
REMARK    4  A    between atoms: C2_6  and  C3_7
ROOT
HETATM    1  C1  UNL     1      17.324   3.364  14.558  1.00  0.00     0.188 C
ENDROOT
BRANCH   1   2
HETATM    2  N1  UNL     1      18.275   4.461  14.907  1.00  0.00    -0.075 N
ATOM      3  H13 UNL     1      18.188   5.289  14.318  1.00  0.00     0.274 HD
ATOM      4  H12 UNL     1      18.064   4.926  15.790  1.00  0.00     0.274 HD
ATOM      5  H11 UNL     1      19.196   4.024  14.877  1.00  0.00     0.274 HD
ENDBRANCH   1   2
BRANCH   1   6
HETATM    6  C2  UNL     1      16.169   3.582  15.431  1.00  0.00     0.040 C
BRANCH   6   7
HETATM    7  C3  UNL     1      15.373   2.542  16.001  1.00  0.00     0.013 C
HETATM    8  C4  UNL     1      14.552   2.899  17.247  1.00  0.00     0.033 C
HETATM    9  C5  UNL     1      13.864   1.551  17.369  1.00  0.00     0.168 C
HETATM   10  O1  UNL     1      14.719   0.588  16.915  1.00  0.00    -0.391 OA
HETATM   11  C6  UNL     1      15.883   1.236  16.435  1.00  0.00     0.172 C
ENDBRANCH   6   7
ENDBRANCH   1   6
BRANCH   1  12
HETATM   12  C7  UNL     1      17.114   3.553  13.073  1.00  0.00     0.016 C
HETATM   13  C8  UNL     1      16.384   2.346  12.531  1.00  0.00     0.007 C
HETATM   14  C9  UNL     1      17.221   1.211  12.089  1.00  0.00     0.000 C
HETATM   15  C10 UNL     1      18.490   1.596  11.399  1.00  0.00     0.000 C
HETATM   16  C11 UNL     1      18.378   3.076  11.013  1.00  0.00     0.000 C
HETATM   17  C12 UNL     1      18.349   3.889  12.313  1.00  0.00     0.007 C
ENDBRANCH   1  12
TORSDOF 4
ENDMDL