MODEL 4
REMARK VINA RESULT: -6.122120726      1.019      1.139
REMARK  3 active torsions:
REMARK  status: ('A' for Active; 'I' for Inactive)
REMARK    1  A    between atoms: C4_4  and  C5_5
REMARK    2  A    between atoms: C5_5  and  N1_6
REMARK    3  A    between atoms: N1_6  and  C6_9
ROOT
HETATM    1  N1  UNL     1      17.616   3.203  14.419  1.00  0.00    -0.070 N
ATOM      2  H11 UNL     1      18.567   3.384  14.738  1.00  0.00     0.277 HD
ATOM      3  H12 UNL     1      17.208   4.077  14.749  1.00  0.00     0.277 HD
ENDROOT
BRANCH   1   4
HETATM    4  C5  UNL     1      17.013   2.010  15.017  1.00  0.00     0.237 C
BRANCH   4   5
HETATM    5  C4  UNL     1      16.235   2.268  16.251  1.00  0.00     0.011 C
HETATM    6  C3  UNL     1      15.423   1.118  16.770  1.00  0.00     0.006 C
HETATM    7  C2  UNL     1      15.233   1.357  18.269  1.00  0.00     0.000 C
HETATM    8  C1  UNL     1      14.814   2.801  18.453  1.00  0.00     0.000 C
HETATM    9  C12 UNL     1      14.273   3.408  17.186  1.00  0.00     0.000 C
HETATM   10  C11 UNL     1      15.291   3.452  16.093  1.00  0.00     0.006 C
ENDBRANCH   4   5
ENDBRANCH   1   4
BRANCH   1  11
HETATM   11  C6  UNL     1      17.512   3.021  13.008  1.00  0.00     0.190 C
HETATM   12  C7  UNL     1      16.797   1.777  12.550  1.00  0.00     0.059 C
HETATM   13  C8  UNL     1      16.178   1.980  11.179  1.00  0.00     0.169 C
HETATM   14  O1  UNL     1      16.970   2.747  10.336  1.00  0.00    -0.391 OA
HETATM   15  C9  UNL     1      17.308   3.989  10.804  1.00  0.00     0.169 C
HETATM   16  C10 UNL     1      16.907   4.188  12.263  1.00  0.00     0.059 C
ENDBRANCH   1  11
TORSDOF 3
ENDMDL