MODEL 1
REMARK VINA RESULT: -5.477748351      0.000      0.000
REMARK  3 active torsions:
REMARK  status: ('A' for Active; 'I' for Inactive)
REMARK    1  A    between atoms: O1_1  and  C1_3
REMARK    2  A    between atoms: C1_3  and  C2_4
REMARK    3  A    between atoms: C2_4  and  C3_5
ROOT
HETATM    1  C3  UNL     1      16.360   3.923  15.092  1.00  0.00     0.064 C
HETATM    2  C4  UNL     1      16.262   3.469  13.629  1.00  0.00     0.043 C
HETATM    3  C5  UNL     1      16.978   4.506  12.808  1.00  0.00    -0.009 C
HETATM    4  C6  UNL     1      16.316   5.860  12.916  1.00  0.00     0.009 C
HETATM    5  C7  UNL     1      16.214   6.250  14.368  1.00  0.00    -0.009 C
HETATM    6  C8  UNL     1      17.641   6.441  14.872  1.00  0.00     0.036 C
HETATM    7  C9  UNL     1      18.325   5.099  14.747  1.00  0.00     0.123 C
HETATM    8  C10 UNL     1      18.388   4.639  13.302  1.00  0.00     0.036 C
HETATM    9  O2  UNL     1      17.667   4.133  15.469  1.00  0.00    -0.375 OA
HETATM   10  C11 UNL     1      15.536   5.177  15.190  1.00  0.00     0.043 C
ENDROOT
BRANCH   1  11
HETATM   11  C2  UNL     1      15.808   2.792  15.910  1.00  0.00     0.064 C
BRANCH  11  12
HETATM   12  C1  UNL     1      16.589   1.510  15.762  1.00  0.00     0.167 C
BRANCH  12  13
HETATM   13  O1  UNL     1      17.814   1.572  16.418  1.00  0.00    -0.401 OA
ATOM     14  H1  UNL     1      18.221   0.716  16.491  1.00  0.00     0.209 HD
ENDBRANCH  12  13
ENDBRANCH  11  12
ENDBRANCH   1  11
TORSDOF 3
ENDMDL