MODEL 4
REMARK VINA RESULT: -6.285117004      3.693      5.890
REMARK  3 active torsions:
REMARK  status: ('A' for Active; 'I' for Inactive)
REMARK    1  A    between atoms: N1_1  and  C1_5
REMARK    2  A    between atoms: C4_9  and  C5_10
REMARK    3  A    between atoms: C5_10  and  C6_11
ROOT
HETATM    1  C1  UNL     1      18.768   5.732  13.519  1.00  0.00     0.284 C
HETATM    2  C2  UNL     1      18.969   6.916  14.476  1.00  0.00     0.074 C
HETATM    3  C3  UNL     1      17.471   6.670  14.773  1.00  0.00     0.128 C
HETATM    4  N2  UNL     1      17.593   5.433  14.196  1.00  0.00    -0.366 N
HETATM    5  C4  UNL     1      16.749   4.403  13.969  1.00  0.00     0.060 C
ENDROOT
BRANCH   5   6
HETATM    6  C5  UNL     1      15.392   4.486  14.662  1.00  0.00     0.049 C
BRANCH   6   7
HETATM    7  C6  UNL     1      15.240   3.471  15.763  1.00  0.00    -0.010 C
HETATM    8  C7  UNL     1      16.560   2.904  16.184  1.00  0.00     0.005 C
HETATM    9  C8  UNL     1      16.558   1.518  16.693  1.00  0.00     0.000 C
HETATM   10  C9  UNL     1      15.242   0.864  16.878  1.00  0.00     0.000 C
HETATM   11  C10 UNL     1      14.198   1.618  17.587  1.00  0.00     0.000 C
HETATM   12  C11 UNL     1      14.546   2.978  18.096  1.00  0.00     0.000 C
HETATM   13  C12 UNL     1      14.507   3.982  16.963  1.00  0.00     0.005 C
ENDBRANCH   6   7
ENDBRANCH   5   6
BRANCH   1  14
HETATM   14  N1  UNL     1      19.854   4.765  13.545  1.00  0.00    -0.058 N
ATOM     15  H13 UNL     1      20.657   5.140  14.050  1.00  0.00     0.276 HD
ATOM     16  H12 UNL     1      19.621   3.979  14.153  1.00  0.00     0.276 HD
ATOM     17  H11 UNL     1      20.133   4.434  12.622  1.00  0.00     0.276 HD
ENDBRANCH   1  14
TORSDOF 3
ENDMDL