MODEL 5
REMARK VINA RESULT: -5.871072062      1.951      2.828
REMARK  3 active torsions:
REMARK  status: ('A' for Active; 'I' for Inactive)
REMARK    1  A    between atoms: C5_5  and  C6_6
REMARK    2  A    between atoms: C6_6  and  N1_7
REMARK    3  A    between atoms: N1_7  and  C7_10
ROOT
HETATM    1  C6  UNL     1      16.846   1.744  14.330  1.00  0.00     0.237 C
ENDROOT
BRANCH   1   2
HETATM    2  C5  UNL     1      16.348   2.855  15.205  1.00  0.00     0.011 C
HETATM    3  C4  UNL     1      17.501   3.680  15.765  1.00  0.00     0.006 C
HETATM    4  C3  UNL     1      17.875   4.700  14.755  1.00  0.00     0.000 C
HETATM    5  C2  UNL     1      17.260   6.038  14.904  1.00  0.00     0.000 C
HETATM    6  C1  UNL     1      15.866   6.136  15.333  1.00  0.00     0.000 C
HETATM    7  C12 UNL     1      15.080   4.896  15.496  1.00  0.00     0.000 C
HETATM    8  C11 UNL     1      15.389   3.787  14.527  1.00  0.00     0.006 C
ENDBRANCH   1   2
BRANCH   1   9
HETATM    9  N1  UNL     1      16.471   2.021  12.969  1.00  0.00    -0.068 N
ATOM     10  H12 UNL     1      15.535   1.676  12.756  1.00  0.00     0.277 HD
ATOM     11  H11 UNL     1      16.306   3.015  12.816  1.00  0.00     0.277 HD
BRANCH   9  12
HETATM   12  C7  UNL     1      17.458   1.494  12.057  1.00  0.00     0.211 C
HETATM   13  C8  UNL     1      18.502   2.591  11.847  1.00  0.00     0.061 C
HETATM   14  C9  UNL     1      17.882   3.412  10.752  1.00  0.00     0.169 C
HETATM   15  O1  UNL     1      16.759   2.756  10.315  1.00  0.00    -0.389 OA
HETATM   16  C10 UNL     1      16.883   1.411  10.653  1.00  0.00     0.200 C
ENDBRANCH   9  12
ENDBRANCH   1   9
TORSDOF 3
ENDMDL