MODEL 5
REMARK VINA RESULT: -6.383852018      1.680      2.181
REMARK  3 active torsions:
REMARK  status: ('A' for Active; 'I' for Inactive)
REMARK    1  A    between atoms: C4_4  and  C5_5
REMARK    2  A    between atoms: C5_5  and  C6_6
REMARK    3  A    between atoms: C6_6  and  N1_7
ROOT
HETATM    1  C6  UNL     1      16.362   3.182  13.450  1.00  0.00     0.123 C
ENDROOT
BRANCH   1   2
HETATM    2  C5  UNL     1      17.095   3.822  14.598  1.00  0.00     0.024 C
BRANCH   2   3
HETATM    3  C4  UNL     1      16.598   3.366  15.944  1.00  0.00    -0.013 C
HETATM    4  C3  UNL     1      16.945   1.951  16.266  1.00  0.00     0.005 C
HETATM    5  C2  UNL     1      15.771   1.105  16.662  1.00  0.00     0.000 C
HETATM    6  C1  UNL     1      14.861   1.779  17.646  1.00  0.00     0.000 C
HETATM    7  C11 UNL     1      14.482   3.177  17.264  1.00  0.00     0.000 C
HETATM    8  C10 UNL     1      15.090   3.585  15.956  1.00  0.00     0.005 C
ENDBRANCH   2   3
ENDBRANCH   1   2
BRANCH   1   9
HETATM    9  N1  UNL     1      16.991   3.575  12.232  1.00  0.00    -0.356 N
HETATM   10  C7  UNL     1      17.863   2.897  11.591  1.00  0.00     0.215 C
HETATM   11  N2  UNL     1      18.362   1.632  11.978  1.00  0.00    -0.354 N
HETATM   12  O1  UNL     1      18.499   3.230  10.412  1.00  0.00    -0.321 OA
HETATM   13  C8  UNL     1      19.334   1.186  10.987  1.00  0.00     0.150 C
ATOM     14  H2  UNL     1      18.087   1.115  12.813  1.00  0.00     0.163 HD
HETATM   15  C9  UNL     1      19.744   2.525  10.376  1.00  0.00     0.198 C
ATOM     16  H1  UNL     1      16.720   4.476  11.839  1.00  0.00     0.163 HD
ENDBRANCH   1   9
TORSDOF 3
ENDMDL