MODEL 4
REMARK VINA RESULT: -5.393302159      2.099      3.736
REMARK  4 active torsions:
REMARK  status: ('A' for Active; 'I' for Inactive)
REMARK    1  A    between atoms: O1_1  and  C1_3
REMARK    2  A    between atoms: C1_3  and  C2_4
REMARK    3  A    between atoms: C2_4  and  C3_5
REMARK    4  A    between atoms: C3_5  and  N1_6
ROOT
HETATM    1  C3  UNL     1      16.333   3.706  13.811  1.00  0.00     0.029 C
HETATM    2  C8  UNL     1      15.004   3.941  14.489  1.00  0.00     0.031 C
HETATM    3  C9  UNL     1      15.041   3.868  15.979  1.00  0.00     0.002 C
HETATM    4  C10 UNL     1      15.731   2.677  16.552  1.00  0.00     0.000 C
HETATM    5  C11 UNL     1      17.158   2.743  15.980  1.00  0.00     0.002 C
HETATM    6  C12 UNL     1      16.994   2.504  14.527  1.00  0.00     0.031 C
ENDROOT
BRANCH   1   7
HETATM    7  C2  UNL     1      16.166   3.174  12.407  1.00  0.00     0.056 C
BRANCH   7   8
HETATM    8  C1  UNL     1      16.546   1.771  12.169  1.00  0.00     0.166 C
BRANCH   8   9
HETATM    9  O1  UNL     1      16.152   1.196  11.006  1.00  0.00    -0.401 OA
ATOM     10  H1  UNL     1      15.632   0.402  11.056  1.00  0.00     0.209 HD
ENDBRANCH   8   9
ENDBRANCH   7   8
ENDBRANCH   1   7
BRANCH   1  11
HETATM   11  N1  UNL     1      17.204   4.766  13.994  1.00  0.00    -0.404 N
HETATM   12  C4  UNL     1      18.512   4.761  13.480  1.00  0.00     0.117 C
HETATM   13  C5  UNL     1      19.175   5.862  14.322  1.00  0.00     0.021 C
HETATM   14  C6  UNL     1      18.021   6.682  14.851  1.00  0.00     0.021 C
HETATM   15  C7  UNL     1      16.838   6.107  14.040  1.00  0.00     0.117 C
ENDBRANCH   1  11
TORSDOF 4
ENDMDL