MODEL 4
REMARK VINA RESULT: -5.963623656      1.080      1.429
REMARK  4 active torsions:
REMARK  status: ('A' for Active; 'I' for Inactive)
REMARK    1  A    between atoms: N1_1  and  C1_5
REMARK    2  A    between atoms: N2_10  and  C6_11
REMARK    3  A    between atoms: C6_11  and  C7_12
REMARK    4  A    between atoms: C7_12  and  C8_13
ROOT
HETATM    1  C1  UNL     1      18.567   1.940  11.775  1.00  0.00     0.417 C
HETATM    2  C2  UNL     1      18.917   1.038  10.602  1.00  0.00     0.065 C
HETATM    3  C3  UNL     1      18.282  -0.301  10.943  1.00  0.00     0.005 C
HETATM    4  C4  UNL     1      16.882   0.011  11.424  1.00  0.00     0.030 C
HETATM    5  C5  UNL     1      16.403   1.365  10.943  1.00  0.00     0.275 C
HETATM    6  N2  UNL     1      17.224   2.453  11.478  1.00  0.00     0.119 N
ENDROOT
BRANCH   6   7
HETATM    7  C6  UNL     1      16.631   3.005  12.684  1.00  0.00     0.275 C
BRANCH   7   8
HETATM    8  C7  UNL     1      16.652   2.085  13.857  1.00  0.00     0.035 C
BRANCH   8   9
HETATM    9  C8  UNL     1      16.792   2.891  15.131  1.00  0.00    -0.013 C
HETATM   10  C9  UNL     1      17.039   2.065  16.356  1.00  0.00     0.005 C
HETATM   11  C10 UNL     1      15.833   2.281  17.261  1.00  0.00     0.000 C
HETATM   12  C11 UNL     1      14.800   2.953  16.422  1.00  0.00     0.000 C
HETATM   13  C12 UNL     1      15.557   3.713  15.366  1.00  0.00     0.005 C
ENDBRANCH   8   9
ENDBRANCH   7   8
ENDBRANCH   6   7
BRANCH   1  14
HETATM   14  N1  UNL     1      19.540   3.002  11.827  1.00  0.00    -0.048 N
ATOM     15  H13 UNL     1      20.411   2.718  12.274  1.00  0.00     0.276 HD
ATOM     16  H12 UNL     1      19.924   3.229  10.910  1.00  0.00     0.276 HD
ATOM     17  H11 UNL     1      19.107   3.804  12.283  1.00  0.00     0.276 HD
ENDBRANCH   1  14
TORSDOF 4
ENDMDL