MODEL 1
REMARK VINA RESULT: -6.358401985      0.000      0.000
REMARK  3 active torsions:
REMARK  status: ('A' for Active; 'I' for Inactive)
REMARK    1  A    between atoms: C4_4  and  N1_5
REMARK    2  A    between atoms: N1_5  and  C5_8
REMARK    3  A    between atoms: C5_8  and  C6_9
ROOT
HETATM    1  N1  UNL     1      17.257   3.179  14.761  1.00  0.00    -0.069 N
ATOM      2  H11 UNL     1      17.979   2.470  14.636  1.00  0.00     0.277 HD
ATOM      3  H12 UNL     1      17.859   4.002  14.792  1.00  0.00     0.277 HD
ENDROOT
BRANCH   1   4
HETATM    4  C4  UNL     1      16.534   2.998  15.987  1.00  0.00     0.186 C
HETATM    5  C3  UNL     1      15.064   3.374  15.895  1.00  0.00     0.033 C
HETATM    6  C2  UNL     1      14.550   3.382  17.320  1.00  0.00     0.002 C
HETATM    7  C1  UNL     1      14.507   2.011  17.918  1.00  0.00     0.000 C
HETATM    8  C11 UNL     1      15.255   1.064  17.007  1.00  0.00     0.002 C
HETATM    9  C10 UNL     1      16.605   1.656  16.618  1.00  0.00     0.033 C
ENDBRANCH   1   4
BRANCH   1  10
HETATM   10  C5  UNL     1      16.352   3.221  13.659  1.00  0.00     0.264 C
BRANCH  10  11
HETATM   11  C6  UNL     1      16.745   2.382  12.495  1.00  0.00     0.147 C
HETATM   12  C7  UNL     1      17.047   0.958  12.971  1.00  0.00     0.036 C
HETATM   13  C8  UNL     1      17.271   0.340  11.581  1.00  0.00     0.029 C
HETATM   14  C9  UNL     1      16.201   1.062  10.793  1.00  0.00     0.168 C
HETATM   15  O1  UNL     1      15.825   2.201  11.497  1.00  0.00    -0.384 OA
ENDBRANCH  10  11
ENDBRANCH   1  10
TORSDOF 3
ENDMDL