MODEL 2
REMARK VINA RESULT: -7.917822567      2.962      6.856
REMARK  18 active torsions:
REMARK  status: ('A' for Active; 'I' for Inactive)
REMARK    1  A    between atoms: C2_2  and  S1_4
REMARK    2  A    between atoms: S1_4  and  C4_5
REMARK    3  A    between atoms: C4_5  and  C7_8
REMARK    4  A    between atoms: C10_11  and  C11_12
REMARK    5  A    between atoms: C14_15  and  C15_16
REMARK    6  A    between atoms: C16_17  and  C17_18
REMARK    7  A    between atoms: C17_18  and  C18_19
REMARK    8  A    between atoms: C18_19  and  O1_20
REMARK    9  A    between atoms: C18_19  and  C19_22
REMARK   10  A    between atoms: C19_22  and  O2_23
REMARK   11  A    between atoms: C19_22  and  C20_25
REMARK   12  A    between atoms: C20_25  and  C21_26
REMARK   13  A    between atoms: C24_31  and  C25_32
REMARK   14  A    between atoms: C25_32  and  O4_34
REMARK   15  A    between atoms: C28_37  and  O5_38
REMARK   16  A    between atoms: C29_40  and  C30_41
REMARK   17  A    between atoms: C30_41  and  C31_42
REMARK   18  A    between atoms: C35_46  and  O6_47
ROOT
HETATM    1  C20 UNL     1      39.567  25.084   1.678  1.00  0.00     0.054 A
HETATM    2  C37 UNL     1      39.665  25.745   0.346  1.00  0.00     0.024 A
HETATM    3  C38 UNL     1      40.715  24.830   0.691  1.00  0.00     0.024 A
ENDROOT
BRANCH   1   4
HETATM    4  C19 UNL     1      38.789  23.850   1.934  1.00  0.00     0.091 C
BRANCH   4   5
HETATM    5  C18 UNL     1      39.040  22.750   2.811  1.00  0.00     0.095 C
BRANCH   5   6
HETATM    6  C17 UNL     1      39.141  22.727   4.090  1.00  0.00     0.039 C
BRANCH   6   7
HETATM    7  C16 UNL     1      37.914  22.880   4.932  1.00  0.00    -0.001 C
HETATM    8  C15 UNL     1      37.930  23.631   5.989  1.00  0.00    -0.021 C
BRANCH   8   9
HETATM    9  C14 UNL     1      36.836  23.877   6.900  1.00  0.00     0.018 C
HETATM   10  C7  UNL     1      36.520  25.283   7.192  1.00  0.00     0.012 C
HETATM   11  C8  UNL     1      35.025  25.464   6.922  1.00  0.00     0.007 C
HETATM   12  C9  UNL     1      34.450  24.063   6.799  1.00  0.00     0.006 C
HETATM   13  C10 UNL     1      35.592  23.231   6.299  1.00  0.00    -0.003 C
BRANCH  10  14
HETATM   14  C4  UNL     1      36.838  25.688   8.628  1.00  0.00     0.009 C
HETATM   15  C5  UNL     1      36.322  27.060   8.983  1.00  0.00     0.027 C
HETATM   16  C6  UNL     1      38.381  25.827   8.795  1.00  0.00     0.027 C
BRANCH  14  17
HETATM   17  S1  UNL     1      36.357  24.470   9.842  1.00  0.00    -0.126 SA
BRANCH  17  18
HETATM   18  C2  UNL     1      34.779  24.655  10.568  1.00  0.00    -0.034 C
HETATM   19  C1  UNL     1      34.419  25.458  11.552  1.00  0.00     0.026 C
HETATM   20  C3  UNL     1      33.678  23.767  10.019  1.00  0.00     0.055 C
ENDBRANCH  17  18
ENDBRANCH  14  17
ENDBRANCH  10  14
BRANCH  13  21
HETATM   21  C11 UNL     1      35.493  21.766   6.531  1.00  0.00    -0.018 C
HETATM   22  C12 UNL     1      35.078  21.083   5.242  1.00  0.00     0.010 C
HETATM   23  C13 UNL     1      34.695  21.340   7.718  1.00  0.00     0.010 C
ENDBRANCH  13  21
ENDBRANCH   8   9
ENDBRANCH   6   7
ENDBRANCH   5   6
BRANCH   5  24
HETATM   24  O1  UNL     1      39.209  21.476   2.188  1.00  0.00    -0.358 OA
ATOM     25  H1  UNL     1      39.924  21.441   1.563  1.00  0.00     0.217 HD
ENDBRANCH   5  24
ENDBRANCH   4   5
BRANCH   4  26
HETATM   26  O2  UNL     1      37.677  23.731   1.251  1.00  0.00    -0.361 OA
ATOM     27  H2  UNL     1      37.658  24.262   0.464  1.00  0.00     0.217 HD
ENDBRANCH   4  26
ENDBRANCH   1   4
BRANCH   1  28
HETATM   28  C21 UNL     1      39.979  25.889   2.865  1.00  0.00     0.039 A
HETATM   29  N1  UNL     1      41.267  25.746   3.321  1.00  0.00    -0.361 N
HETATM   30  C22 UNL     1      41.664  26.254   4.469  1.00  0.00     0.022 A
ATOM     31  H1  UNL     1      41.938  25.229   2.752  1.00  0.00     0.165 HD
HETATM   32  C23 UNL     1      43.076  26.102   4.977  1.00  0.00     0.069 C
HETATM   33  C24 UNL     1      40.808  26.978   5.306  1.00  0.00     0.075 A
HETATM   34  C27 UNL     1      39.508  27.154   4.891  1.00  0.00     0.031 A
HETATM   35  C28 UNL     1      38.645  27.927   5.666  1.00  0.00     0.084 A
HETATM   36  C36 UNL     1      39.134  26.591   3.654  1.00  0.00     0.035 A
HETATM   37  C29 UNL     1      37.336  28.160   5.181  1.00  0.00    -0.021 A
HETATM   38  C34 UNL     1      36.988  27.628   4.002  1.00  0.00     0.047 A
HETATM   39  C35 UNL     1      37.857  26.856   3.238  1.00  0.00     0.079 A
BRANCH  33  40
HETATM   40  C25 UNL     1      41.329  27.486   6.565  1.00  0.00     0.295 C
HETATM   41  O3  UNL     1      41.265  26.769   7.581  1.00  0.00    -0.259 OA
BRANCH  40  42
HETATM   42  O4  UNL     1      41.882  28.738   6.615  1.00  0.00    -0.322 OA
HETATM   43  C26 UNL     1      42.886  29.040   7.553  1.00  0.00     0.213 C
ENDBRANCH  40  42
ENDBRANCH  33  40
BRANCH  35  44
HETATM   44  O5  UNL     1      39.025  28.430   6.827  1.00  0.00    -0.359 OA
ATOM     45  H5  UNL     1      39.416  29.293   6.889  1.00  0.00     0.217 HD
ENDBRANCH  35  44
BRANCH  37  46
HETATM   46  C30 UNL     1      36.443  29.034   5.989  1.00  0.00     0.045 C
BRANCH  46  47
HETATM   47  C31 UNL     1      35.064  29.193   5.468  1.00  0.00    -0.018 C
HETATM   48  C32 UNL     1      34.105  28.880   6.631  1.00  0.00     0.010 C
HETATM   49  C33 UNL     1      34.680  30.520   4.918  1.00  0.00     0.010 C
ENDBRANCH  46  47
ENDBRANCH  37  46
BRANCH  39  50
HETATM   50  O6  UNL     1      37.379  26.388   2.049  1.00  0.00    -0.360 OA
ATOM     51  H6  UNL     1      36.625  25.812   2.088  1.00  0.00     0.217 HD
ENDBRANCH  39  50
ENDBRANCH   1  28
TORSDOF 18
ENDMDL