MODEL 2
REMARK VINA RESULT: -8.688837882      1.257      1.717
REMARK  15 active torsions:
REMARK  status: ('A' for Active; 'I' for Inactive)
REMARK    1  A    between atoms: C2_2  and  C3_3
REMARK    2  A    between atoms: C3_3  and  C5_6
REMARK    3  A    between atoms: C5_6  and  C6_7
REMARK    4  A    between atoms: C6_7  and  C7_8
REMARK    5  A    between atoms: C8_9  and  O1_10
REMARK    6  A    between atoms: C14_18  and  O3_19
REMARK    7  A    between atoms: C24_30  and  C25_31
REMARK    8  A    between atoms: C25_31  and  S1_33
REMARK    9  A    between atoms: S1_33  and  C26_34
REMARK   10  A    between atoms: C26_34  and  C27_35
REMARK   11  A    between atoms: C27_35  and  C28_36
REMARK   12  A    between atoms: C28_36  and  C29_37
REMARK   13  A    between atoms: C29_37  and  C30_38
REMARK   14  A    between atoms: C30_38  and  O5_39
REMARK   15  A    between atoms: C30_38  and  O6_41
ROOT
HETATM    1  C3  UNL     1      39.829  26.856   7.130  1.00  0.00     0.043 C
HETATM    2  C4  UNL     1      40.802  26.385   6.152  1.00  0.00     0.099 C
HETATM    3  N1  UNL     1      41.566  26.005   5.371  1.00  0.00    -0.191 NA
ENDROOT
BRANCH   1   4
HETATM    4  C2  UNL     1      40.359  27.707   8.182  1.00  0.00     0.012 C
HETATM    5  C1  UNL     1      40.963  27.144   9.238  1.00  0.00     0.013 C
ENDBRANCH   1   4
BRANCH   1   6
HETATM    6  C5  UNL     1      38.579  26.478   6.979  1.00  0.00     0.019 C
BRANCH   6   7
HETATM    7  C6  UNL     1      38.103  25.150   7.082  1.00  0.00    -0.012 C
BRANCH   7   8
HETATM    8  C7  UNL     1      37.239  24.328   6.214  1.00  0.00     0.016 C
HETATM    9  C8  UNL     1      38.067  23.145   5.858  1.00  0.00     0.132 C
HETATM   10  C9  UNL     1      39.119  23.395   4.828  1.00  0.00     0.043 C
HETATM   11  C10 UNL     1      38.486  23.892   3.565  1.00  0.00     0.035 C
HETATM   12  C11 UNL     1      39.475  24.310   2.537  1.00  0.00     0.013 A
HETATM   13  C17 UNL     1      37.495  24.978   3.725  1.00  0.00    -0.031 C
HETATM   14  C12 UNL     1      38.955  24.948   1.436  1.00  0.00    -0.024 A
HETATM   15  C14 UNL     1      40.826  24.240   2.355  1.00  0.00     0.190 A
HETATM   16  C13 UNL     1      40.022  25.241   0.627  1.00  0.00     0.152 A
HETATM   17  C15 UNL     1      37.527  25.226   1.236  1.00  0.00     0.042 C
HETATM   18  O2  UNL     1      41.112  24.806   1.208  1.00  0.00    -0.299 OA
HETATM   19  C16 UNL     1      36.655  24.890   2.427  1.00  0.00     0.015 C
HETATM   20  C18 UNL     1      38.018  26.388   3.566  1.00  0.00     0.016 C
HETATM   21  C19 UNL     1      36.622  24.822   4.959  1.00  0.00     0.010 C
HETATM   22  C20 UNL     1      35.561  23.858   4.460  1.00  0.00     0.007 C
HETATM   23  C21 UNL     1      34.617  23.268   5.403  1.00  0.00     0.011 C
HETATM   24  C22 UNL     1      34.990  23.168   6.838  1.00  0.00    -0.025 C
HETATM   25  C23 UNL     1      35.147  21.749   7.324  1.00  0.00     0.017 C
HETATM   26  C24 UNL     1      33.746  23.615   7.614  1.00  0.00     0.076 C
HETATM   27  C36 UNL     1      36.070  24.127   7.170  1.00  0.00    -0.022 C
HETATM   28  C33 UNL     1      33.963  23.453   9.098  1.00  0.00     0.014 C
HETATM   29  C34 UNL     1      35.378  23.374   9.514  1.00  0.00     0.002 C
HETATM   30  C35 UNL     1      36.444  23.813   8.574  1.00  0.00     0.011 C
HETATM   31  C37 UNL     1      35.333  25.492   7.100  1.00  0.00     0.017 C
BRANCH   9  32
HETATM   32  O1  UNL     1      37.480  22.003   5.394  1.00  0.00    -0.394 OA
ATOM     33  H1  UNL     1      37.877  21.510   4.685  1.00  0.00     0.210 HD
ENDBRANCH   9  32
BRANCH  15  34
HETATM   34  O3  UNL     1      41.721  23.653   3.273  1.00  0.00    -0.340 OA
ATOM     35  H3  UNL     1      42.252  22.888   3.086  1.00  0.00     0.220 HD
ENDBRANCH  15  34
BRANCH  26  36
HETATM   36  C25 UNL     1      32.569  22.719   7.295  1.00  0.00     0.191 C
HETATM   37  O4  UNL     1      32.411  22.114   6.270  1.00  0.00    -0.285 OA
BRANCH  36  38
HETATM   38  S1  UNL     1      31.264  22.494   8.491  1.00  0.00    -0.092 SA
BRANCH  38  39
HETATM   39  C26 UNL     1      31.669  21.184   9.651  1.00  0.00     0.082 C
BRANCH  39  40
HETATM   40  C27 UNL     1      31.336  21.651  11.052  1.00  0.00     0.011 C
BRANCH  40  41
HETATM   41  C28 UNL     1      31.009  23.096  11.122  1.00  0.00     0.006 C
BRANCH  41  42
HETATM   42  C29 UNL     1      30.353  23.607  12.341  1.00  0.00     0.061 C
BRANCH  42  43
HETATM   43  C30 UNL     1      30.065  22.665  13.453  1.00  0.00     0.258 C
BRANCH  43  44
HETATM   44  O5  UNL     1      28.669  22.342  13.312  1.00  0.00    -0.366 OA
HETATM   45  C31 UNL     1      28.238  21.617  14.416  1.00  0.00     0.204 C
ENDBRANCH  43  44
BRANCH  43  46
HETATM   46  O6  UNL     1      30.152  23.221  14.718  1.00  0.00    -0.366 OA
HETATM   47  C32 UNL     1      31.454  23.722  14.895  1.00  0.00     0.204 C
ENDBRANCH  43  46
ENDBRANCH  42  43
ENDBRANCH  41  42
ENDBRANCH  40  41
ENDBRANCH  39  40
ENDBRANCH  38  39
ENDBRANCH  36  38
ENDBRANCH  26  36
ENDBRANCH   7   8
ENDBRANCH   6   7
ENDBRANCH   1   6
TORSDOF 15
ENDMDL