MODEL 1
REMARK VINA RESULT: -9.463785049      0.000      0.000
REMARK  15 active torsions:
REMARK  status: ('A' for Active; 'I' for Inactive)
REMARK    1  A    between atoms: C2_2  and  C4_4
REMARK    2  A    between atoms: C7_7  and  C8_8
REMARK    3  A    between atoms: C8_8  and  O2_10
REMARK    4  A    between atoms: O2_10  and  O3_11
REMARK    5  A    between atoms: O3_11  and  C9_12
REMARK    6  A    between atoms: C9_12  and  C16_19
REMARK    7  A    between atoms: C10_13  and  C11_14
REMARK    8  A    between atoms: C11_14  and  C12_15
REMARK    9  A    between atoms: C16_19  and  C18_21
REMARK   10  A    between atoms: C18_21  and  C19_22
REMARK   11  A    between atoms: C19_22  and  C20_23
REMARK   12  A    between atoms: C20_23  and  N2_28
REMARK   13  A    between atoms: N1_24  and  O4_26
REMARK   14  A    between atoms: C28_37  and  O5_38
REMARK   15  A    between atoms: C29_40  and  O6_41
ROOT
HETATM    1  C4  UNL     1      37.548  26.881   2.684  1.00  0.00     0.023 C
HETATM    2  C5  UNL     1      37.606  27.253   4.151  1.00  0.00     0.011 C
HETATM    3  C6  UNL     1      38.396  26.114   4.790  1.00  0.00     0.026 C
HETATM    4  C7  UNL     1      38.083  24.885   3.958  1.00  0.00     0.082 C
HETATM    5  C23 UNL     1      39.333  24.170   3.507  1.00  0.00    -0.059 C
HETATM    6  C24 UNL     1      39.691  23.007   4.040  1.00  0.00    -0.022 C
HETATM    7  C25 UNL     1      40.902  22.241   3.652  1.00  0.00     0.033 C
HETATM    8  C26 UNL     1      41.412  22.649   2.299  1.00  0.00     0.000 C
HETATM    9  C27 UNL     1      42.806  22.128   2.043  1.00  0.00     0.040 C
HETATM   10  C28 UNL     1      43.183  22.392   0.596  1.00  0.00     0.147 C
HETATM   11  C29 UNL     1      42.187  23.278  -0.086  1.00  0.00     0.147 C
HETATM   12  C30 UNL     1      41.918  24.507   0.774  1.00  0.00     0.044 C
HETATM   13  C31 UNL     1      41.444  24.140   2.165  1.00  0.00    -0.030 C
HETATM   14  C32 UNL     1      42.453  24.659   3.201  1.00  0.00     0.016 C
HETATM   15  C33 UNL     1      40.139  24.819   2.444  1.00  0.00     0.024 C
HETATM   16  C34 UNL     1      39.244  24.946   1.230  1.00  0.00     0.010 C
HETATM   17  C35 UNL     1      37.790  24.658   1.541  1.00  0.00     0.012 C
HETATM   18  C36 UNL     1      37.286  25.385   2.745  1.00  0.00    -0.016 C
HETATM   19  C37 UNL     1      35.829  25.104   2.940  1.00  0.00     0.018 C
ENDROOT
BRANCH   4  20
HETATM   20  C8  UNL     1      37.351  23.925   4.801  1.00  0.00     0.303 C
HETATM   21  O1  UNL     1      37.240  22.705   4.579  1.00  0.00    -0.261 OA
BRANCH  20  22
HETATM   22  O2  UNL     1      36.717  24.404   5.968  1.00  0.00    -0.152 OA
BRANCH  22  23
HETATM   23  O3  UNL     1      36.994  23.796   7.150  1.00  0.00    -0.194 OA
BRANCH  23  24
HETATM   24  C9  UNL     1      36.411  24.254   8.320  1.00  0.00     0.085 C
HETATM   25  C10 UNL     1      35.413  23.579   8.847  1.00  0.00     0.013 C
BRANCH  25  26
HETATM   26  C11 UNL     1      34.857  22.341   8.268  1.00  0.00     0.057 C
BRANCH  26  27
HETATM   27  C12 UNL     1      33.950  21.696   9.264  1.00  0.00    -0.021 C
HETATM   28  C13 UNL     1      32.650  21.719   9.038  1.00  0.00    -0.091 C
HETATM   29  C14 UNL     1      31.763  21.063  10.054  1.00  0.00     0.042 C
HETATM   30  C15 UNL     1      32.046  22.359   7.840  1.00  0.00     0.042 C
ENDBRANCH  26  27
ENDBRANCH  25  26
BRANCH  24  31
HETATM   31  C16 UNL     1      36.893  25.487   8.984  1.00  0.00     0.042 C
HETATM   32  C17 UNL     1      38.375  25.663   8.781  1.00  0.00     0.017 C
BRANCH  31  33
HETATM   33  C18 UNL     1      36.106  26.692   8.523  1.00  0.00     0.018 C
BRANCH  33  34
HETATM   34  C19 UNL     1      35.528  27.461   9.688  1.00  0.00     0.080 C
BRANCH  34  35
HETATM   35  C20 UNL     1      35.489  28.895   9.352  1.00  0.00     0.113 C
HETATM   36  N1  UNL     1      35.621  29.792  10.241  1.00  0.00    -0.256 N
ATOM     37  H1  UNL     1      35.582  30.763   9.930  1.00  0.00     0.195 HD
BRANCH  36  38
HETATM   38  O4  UNL     1      35.813  29.574  11.576  1.00  0.00    -0.288 OA
ATOM     39  H4  UNL     1      36.272  30.151  12.174  1.00  0.00     0.244 HD
ENDBRANCH  36  38
BRANCH  35  40
HETATM   40  N2  UNL     1      35.290  29.276   7.974  1.00  0.00    -0.280 N
HETATM   41  C21 UNL     1      35.877  30.119   7.128  1.00  0.00     0.115 A
HETATM   42  C22 UNL     1      35.182  29.995   5.958  1.00  0.00     0.086 A
HETATM   43  S1  UNL     1      34.232  28.860   6.755  1.00  0.00    -0.017 SA
ENDBRANCH  35  40
ENDBRANCH  34  35
ENDBRANCH  33  34
ENDBRANCH  31  33
ENDBRANCH  24  31
ENDBRANCH  23  24
ENDBRANCH  22  23
ENDBRANCH  20  22
ENDBRANCH   4  20
BRANCH   1  44
HETATM   44  C2  UNL     1      36.584  27.654   1.896  1.00  0.00    -0.088 C
HETATM   45  C1  UNL     1      35.799  28.534   2.478  1.00  0.00     0.014 C
HETATM   46  C3  UNL     1      36.455  27.517   0.416  1.00  0.00     0.043 C
ENDBRANCH   1  44
BRANCH  11  47
HETATM   47  O6  UNL     1      42.748  23.755  -1.275  1.00  0.00    -0.393 OA
ATOM     48  H6  UNL     1      42.867  24.695  -1.201  1.00  0.00     0.210 HD
ENDBRANCH  11  47
BRANCH  10  49
HETATM   49  O5  UNL     1      43.208  21.164  -0.102  1.00  0.00    -0.393 OA
ATOM     50  H5  UNL     1      43.597  21.304  -0.957  1.00  0.00     0.210 HD
ENDBRANCH  10  49
TORSDOF 15
ENDMDL