MODEL 4
REMARK VINA RESULT: -9.645097658      0.783      1.248
REMARK  13 active torsions:
REMARK  status: ('A' for Active; 'I' for Inactive)
REMARK    1  A    between atoms: C2_2  and  C4_4
REMARK    2  A    between atoms: C4_4  and  C5_6
REMARK    3  A    between atoms: C5_6  and  C7_8
REMARK    4  A    between atoms: C7_8  and  C9_10
REMARK    5  A    between atoms: C10_11  and  C11_12
REMARK    6  A    between atoms: C12_13  and  C14_15
REMARK    7  A    between atoms: C15_16  and  C16_17
REMARK    8  A    between atoms: C22_26  and  C23_27
REMARK    9  A    between atoms: C23_27  and  C24_28
REMARK   10  A    between atoms: C28_32  and  O5_33
REMARK   11  A    between atoms: C29_35  and  C30_36
REMARK   12  A    between atoms: C30_36  and  C31_37
REMARK   13  A    between atoms: C35_41  and  O6_42
ROOT
HETATM    1  C16 UNL     1      35.383  23.139   6.835  1.00  0.00     0.294 C
HETATM    2  O2  UNL     1      36.238  23.790   7.684  1.00  0.00    -0.322 OA
HETATM    3  C17 UNL     1      36.725  24.996   7.263  1.00  0.00     0.166 C
HETATM    4  C18 UNL     1      35.614  26.030   7.359  1.00  0.00     0.078 C
HETATM    5  C19 UNL     1      37.785  25.428   8.273  1.00  0.00     0.078 C
HETATM    6  O3  UNL     1      37.202  25.030   5.968  1.00  0.00    -0.295 OA
HETATM    7  C20 UNL     1      36.754  23.987   5.182  1.00  0.00     0.303 C
HETATM    8  O4  UNL     1      36.713  24.416   3.831  1.00  0.00    -0.288 OA
HETATM    9  C21 UNL     1      37.887  24.735   3.135  1.00  0.00     0.101 A
HETATM   10  C22 UNL     1      37.857  25.555   2.027  1.00  0.00     0.014 A
HETATM   11  C28 UNL     1      39.043  25.872   1.334  1.00  0.00     0.084 A
HETATM   12  C29 UNL     1      40.205  25.338   1.801  1.00  0.00     0.013 A
HETATM   13  C35 UNL     1      40.231  24.509   2.922  1.00  0.00     0.091 A
HETATM   14  C36 UNL     1      39.055  24.193   3.613  1.00  0.00     0.078 A
HETATM   15  C37 UNL     1      39.047  23.335   4.783  1.00  0.00     0.176 C
HETATM   16  O7  UNL     1      40.140  23.067   5.344  1.00  0.00    -0.291 OA
HETATM   17  C38 UNL     1      37.743  22.816   5.260  1.00  0.00     0.150 C
HETATM   18  C39 UNL     1      37.255  21.774   4.285  1.00  0.00     0.027 C
HETATM   19  O8  UNL     1      35.520  23.511   5.514  1.00  0.00    -0.297 OA
ENDROOT
BRANCH   1  20
HETATM   20  C15 UNL     1      33.960  23.179   7.312  1.00  0.00     0.034 C
HETATM   21  C14 UNL     1      33.721  22.863   8.578  1.00  0.00     0.007 C
BRANCH  21  22
HETATM   22  C12 UNL     1      32.411  22.851   9.196  1.00  0.00    -0.062 C
HETATM   23  C11 UNL     1      32.276  23.336  10.418  1.00  0.00     0.006 C
HETATM   24  C13 UNL     1      31.208  22.312   8.523  1.00  0.00     0.048 C
BRANCH  23  25
HETATM   25  C10 UNL     1      30.987  23.343  11.084  1.00  0.00    -0.003 C
HETATM   26  C9  UNL     1      30.886  23.716  12.365  1.00  0.00    -0.022 C
BRANCH  26  27
HETATM   27  C7  UNL     1      29.568  23.710  13.001  1.00  0.00     0.015 C
HETATM   28  C8  UNL     1      29.458  24.839  14.021  1.00  0.00     0.015 C
BRANCH  27  29
HETATM   29  C5  UNL     1      29.237  22.436  13.716  1.00  0.00     0.063 C
HETATM   30  C6  UNL     1      29.860  22.415  15.108  1.00  0.00     0.019 C
BRANCH  29  31
HETATM   31  C4  UNL     1      27.800  22.155  13.829  1.00  0.00     0.158 C
HETATM   32  O1  UNL     1      26.961  23.064  13.620  1.00  0.00    -0.292 OA
BRANCH  31  33
HETATM   33  C2  UNL     1      27.315  20.813  14.186  1.00  0.00    -0.025 C
HETATM   34  C1  UNL     1      26.007  20.553  14.212  1.00  0.00     0.022 C
HETATM   35  C3  UNL     1      28.265  19.723  14.522  1.00  0.00     0.051 C
ENDBRANCH  31  33
ENDBRANCH  29  31
ENDBRANCH  27  29
ENDBRANCH  26  27
ENDBRANCH  23  25
ENDBRANCH  21  22
ENDBRANCH   1  20
BRANCH  10  36
HETATM   36  C23 UNL     1      36.565  26.109   1.551  1.00  0.00     0.072 C
BRANCH  36  37
HETATM   37  C24 UNL     1      36.244  27.440   2.118  1.00  0.00    -0.020 C
HETATM   38  C25 UNL     1      35.987  28.503   1.370  1.00  0.00    -0.091 C
HETATM   39  C26 UNL     1      35.982  28.527  -0.102  1.00  0.00     0.042 C
HETATM   40  C27 UNL     1      35.672  29.806   2.066  1.00  0.00     0.042 C
ENDBRANCH  36  37
ENDBRANCH  10  36
BRANCH  11  41
HETATM   41  O5  UNL     1      38.931  26.703   0.231  1.00  0.00    -0.359 OA
ATOM     42  H5  UNL     1      39.159  27.617   0.350  1.00  0.00     0.217 HD
ENDBRANCH  11  41
BRANCH  13  43
HETATM   43  O6  UNL     1      41.375  23.940   3.439  1.00  0.00    -0.359 OA
ATOM     44  H6  UNL     1      41.602  23.941   4.361  1.00  0.00     0.217 HD
ENDBRANCH  13  43
BRANCH  12  45
HETATM   45  C30 UNL     1      41.498  25.604   1.138  1.00  0.00     0.072 C
BRANCH  45  46
HETATM   46  C31 UNL     1      42.117  26.838   1.698  1.00  0.00    -0.020 C
HETATM   47  C32 UNL     1      43.310  26.926   2.239  1.00  0.00    -0.091 C
HETATM   48  C33 UNL     1      44.188  25.731   2.332  1.00  0.00     0.042 C
HETATM   49  C34 UNL     1      43.775  28.247   2.760  1.00  0.00     0.042 C
ENDBRANCH  45  46
ENDBRANCH  12  45
TORSDOF 13
ENDMDL