MODEL 2
REMARK VINA RESULT: -8.840555655      3.116      9.240
REMARK  14 active torsions:
REMARK  status: ('A' for Active; 'I' for Inactive)
REMARK    1  A    between atoms: C5_5  and  C6_6
REMARK    2  A    between atoms: C6_6  and  O2_8
REMARK    3  A    between atoms: O2_8  and  C7_9
REMARK    4  A    between atoms: C12_14  and  C13_15
REMARK    5  A    between atoms: C13_15  and  C15_17
REMARK    6  A    between atoms: C15_17  and  O3_18
REMARK    7  A    between atoms: C15_17  and  C16_20
REMARK    8  A    between atoms: C16_20  and  C17_21
REMARK    9  A    between atoms: C17_21  and  O4_22
REMARK   10  A    between atoms: C17_21  and  C18_24
REMARK   11  A    between atoms: C21_27  and  C23_29
REMARK   12  A    between atoms: C23_29  and  C24_30
REMARK   13  A    between atoms: C24_30  and  C25_31
REMARK   14  A    between atoms: C25_31  and  C26_32
ROOT
HETATM    1  C18 UNL     1      37.270  24.614   6.099  1.00  0.00     0.089 C
HETATM    2  C19 UNL     1      36.483  25.891   6.155  1.00  0.00     0.014 C
HETATM    3  C20 UNL     1      36.865  26.919   5.124  1.00  0.00     0.016 C
HETATM    4  C21 UNL     1      38.292  27.302   5.244  1.00  0.00    -0.000 C
HETATM    5  C22 UNL     1      38.830  27.864   3.923  1.00  0.00     0.021 C
HETATM    6  C29 UNL     1      39.089  26.086   5.629  1.00  0.00     0.057 C
HETATM    7  N1  UNL     1      40.163  26.236   6.258  1.00  0.00    -0.400 N
ATOM      8  H11 UNL     1      40.703  25.411   6.519  1.00  0.00     0.155 HD
ATOM      9  H12 UNL     1      40.557  27.135   6.534  1.00  0.00     0.155 HD
HETATM   10  C30 UNL     1      38.506  24.757   5.221  1.00  0.00     0.274 C
HETATM   11  O5  UNL     1      39.445  23.793   5.478  1.00  0.00    -0.188 OA
HETATM   12  O6  UNL     1      40.506  24.029   4.746  1.00  0.00    -0.194 OA
HETATM   13  C31 UNL     1      40.217  23.879   3.417  1.00  0.00     0.230 C
HETATM   14  C32 UNL     1      40.421  22.401   3.071  1.00  0.00     0.074 C
HETATM   15  C33 UNL     1      41.737  22.282   2.379  1.00  0.00     0.006 C
HETATM   16  C34 UNL     1      42.406  23.629   2.455  1.00  0.00     0.006 C
HETATM   17  C35 UNL     1      41.261  24.595   2.583  1.00  0.00     0.074 C
HETATM   18  O7  UNL     1      38.938  24.196   3.060  1.00  0.00    -0.194 OA
HETATM   19  O8  UNL     1      38.215  24.841   3.894  1.00  0.00    -0.188 OA
ENDROOT
BRANCH   1  20
HETATM   20  C17 UNL     1      36.418  23.437   5.777  1.00  0.00     0.130 C
BRANCH  20  21
HETATM   21  C16 UNL     1      35.979  22.705   6.995  1.00  0.00     0.064 C
BRANCH  21  22
HETATM   22  C15 UNL     1      34.552  22.962   7.410  1.00  0.00     0.125 C
BRANCH  22  23
HETATM   23  C13 UNL     1      34.381  23.683   8.692  1.00  0.00     0.020 C
HETATM   24  C14 UNL     1      35.770  24.081   9.208  1.00  0.00     0.013 C
BRANCH  23  25
HETATM   25  C12 UNL     1      33.665  22.868   9.733  1.00  0.00     0.043 C
HETATM   26  C7  UNL     1      32.285  23.398  10.027  1.00  0.00     0.140 C
HETATM   27  C8  UNL     1      31.360  22.963   8.915  1.00  0.00     0.037 C
HETATM   28  C9  UNL     1      31.162  21.473   9.016  1.00  0.00     0.029 C
HETATM   29  C10 UNL     1      32.469  20.800   9.090  1.00  0.00    -0.030 C
HETATM   30  C11 UNL     1      33.587  21.435   9.415  1.00  0.00    -0.023 C
BRANCH  26  31
HETATM   31  O2  UNL     1      31.829  22.779  11.222  1.00  0.00    -0.315 OA
BRANCH  31  32
HETATM   32  C6  UNL     1      31.123  23.518  12.183  1.00  0.00     0.263 C
HETATM   33  O1  UNL     1      31.611  24.620  12.518  1.00  0.00    -0.265 OA
BRANCH  32  34
HETATM   34  C5  UNL     1      29.884  22.947  12.713  1.00  0.00     0.089 C
HETATM   35  C4  UNL     1      30.102  22.257  14.058  1.00  0.00     0.042 C
HETATM   36  C3  UNL     1      28.883  21.450  14.289  1.00  0.00    -0.023 C
HETATM   37  C2  UNL     1      27.702  21.948  13.971  1.00  0.00    -0.087 C
HETATM   38  C1  UNL     1      26.444  21.123  14.205  1.00  0.00     0.043 C
HETATM   39  C37 UNL     1      27.549  23.287  13.394  1.00  0.00     0.034 C
HETATM   40  C36 UNL     1      28.774  23.931  12.857  1.00  0.00     0.019 C
ENDBRANCH  32  34
ENDBRANCH  31  32
ENDBRANCH  26  31
ENDBRANCH  23  25
ENDBRANCH  22  23
BRANCH  22  41
HETATM   41  O3  UNL     1      33.904  23.478   6.316  1.00  0.00    -0.395 OA
ATOM     42  H3  UNL     1      33.076  23.917   6.474  1.00  0.00     0.210 HD
ENDBRANCH  22  41
ENDBRANCH  21  22
ENDBRANCH  20  21
BRANCH  20  43
HETATM   43  O4  UNL     1      36.955  22.575   4.822  1.00  0.00    -0.395 OA
ATOM     44  H4  UNL     1      37.771  22.908   4.465  1.00  0.00     0.210 HD
ENDBRANCH  20  43
ENDBRANCH   1  20
BRANCH   4  45
HETATM   45  C23 UNL     1      38.507  28.365   6.283  1.00  0.00     0.015 C
BRANCH  45  46
HETATM   46  C24 UNL     1      37.262  29.115   6.618  1.00  0.00     0.001 C
BRANCH  46  47
HETATM   47  C25 UNL     1      37.102  29.250   8.140  1.00  0.00     0.004 C
BRANCH  47  48
HETATM   48  C26 UNL     1      35.673  29.121   8.541  1.00  0.00    -0.023 C
HETATM   49  C27 UNL     1      35.432  27.790   9.225  1.00  0.00     0.009 C
HETATM   50  C28 UNL     1      34.859  29.075   7.237  1.00  0.00     0.009 C
ENDBRANCH  47  48
ENDBRANCH  46  47
ENDBRANCH  45  46
ENDBRANCH   4  45
TORSDOF 14
ENDMDL