MODEL 1
REMARK VINA RESULT: -8.466034566      0.000      0.000
REMARK  16 active torsions:
REMARK  status: ('A' for Active; 'I' for Inactive)
REMARK    1  A    between atoms: C14_15  and  O2_16
REMARK    2  A    between atoms: O2_16  and  C15_17
REMARK    3  A    between atoms: C15_17  and  C24_29
REMARK    4  A    between atoms: C16_18  and  O3_19
REMARK    5  A    between atoms: C16_18  and  C17_21
REMARK    6  A    between atoms: C17_21  and  C18_22
REMARK    7  A    between atoms: C18_22  and  C19_23
REMARK    8  A    between atoms: C21_25  and  C22_26
REMARK    9  A    between atoms: C25_30  and  O5_31
REMARK   10  A    between atoms: C27_34  and  O6_35
REMARK   11  A    between atoms: C30_39  and  C31_40
REMARK   12  A    between atoms: C31_40  and  O7_41
REMARK   13  A    between atoms: C31_40  and  C34_45
REMARK   14  A    between atoms: O7_41  and  C32_42
REMARK   15  A    between atoms: C34_45  and  C36_47
REMARK   16  A    between atoms: C36_47  and  C37_48
ROOT
HETATM    1  C15 UNL     1      37.490  25.826   6.459  1.00  0.00     0.112 C
HETATM    2  C16 UNL     1      38.498  25.119   5.981  1.00  0.00     0.077 C
ENDROOT
BRANCH   1   3
HETATM    3  O2  UNL     1      36.249  25.343   6.567  1.00  0.00    -0.337 OA
BRANCH   3   4
HETATM    4  C14 UNL     1      35.243  25.057   7.393  1.00  0.00     0.166 C
HETATM    5  C2  UNL     1      35.489  25.264   8.833  1.00  0.00    -0.059 C
HETATM    6  C1  UNL     1      35.293  26.349   9.534  1.00  0.00     0.017 C
HETATM    7  C3  UNL     1      36.020  24.071   9.609  1.00  0.00     0.036 C
HETATM    8  C4  UNL     1      34.834  23.109   9.661  1.00  0.00     0.011 C
HETATM    9  C5  UNL     1      33.898  23.359   8.493  1.00  0.00     0.012 C
HETATM   10  C6  UNL     1      32.936  22.242   8.391  1.00  0.00     0.018 C
HETATM   11  C12 UNL     1      34.720  23.614   7.234  1.00  0.00    -0.008 C
HETATM   12  C7  UNL     1      33.065  21.206   9.487  1.00  0.00     0.023 C
HETATM   13  C8  UNL     1      31.508  22.805   8.509  1.00  0.00     0.023 C
HETATM   14  C9  UNL     1      32.964  21.536   7.089  1.00  0.00     0.135 C
HETATM   15  O1  UNL     1      32.775  20.344   7.069  1.00  0.00    -0.297 OA
HETATM   16  C10 UNL     1      33.214  22.231   5.798  1.00  0.00     0.080 C
HETATM   17  C11 UNL     1      33.765  23.610   6.076  1.00  0.00     0.020 C
HETATM   18  C13 UNL     1      35.766  22.595   7.037  1.00  0.00     0.018 C
ENDBRANCH   3   4
ENDBRANCH   1   3
BRANCH   1  19
HETATM   19  C24 UNL     1      37.891  27.211   6.850  1.00  0.00     0.043 A
HETATM   20  C25 UNL     1      38.605  27.244   8.018  1.00  0.00     0.082 A
HETATM   21  C26 UNL     1      39.140  28.450   8.441  1.00  0.00     0.074 A
HETATM   22  C27 UNL     1      38.938  29.550   7.676  1.00  0.00     0.074 A
HETATM   23  C28 UNL     1      38.205  29.542   6.462  1.00  0.00    -0.019 A
HETATM   24  C29 UNL     1      38.159  30.746   5.676  1.00  0.00     0.052 C
HETATM   25  C30 UNL     1      37.656  28.333   6.038  1.00  0.00    -0.004 A
BRANCH  20  26
HETATM   26  O5  UNL     1      38.827  26.119   8.808  1.00  0.00    -0.360 OA
ATOM     27  H5  UNL     1      38.890  26.154   9.756  1.00  0.00     0.217 HD
ENDBRANCH  20  26
BRANCH  22  28
HETATM   28  O6  UNL     1      39.458  30.811   8.050  1.00  0.00    -0.360 OA
ATOM     29  H6  UNL     1      39.466  31.541   7.443  1.00  0.00     0.217 HD
ENDBRANCH  22  28
BRANCH  25  30
HETATM   30  C31 UNL     1      36.830  28.170   4.883  1.00  0.00     0.170 C
BRANCH  30  31
HETATM   31  O7  UNL     1      35.914  29.347   5.134  1.00  0.00    -0.311 OA
BRANCH  31  32
HETATM   32  C32 UNL     1      34.624  29.270   5.436  1.00  0.00     0.255 C
HETATM   33  C33 UNL     1      34.224  28.646   6.746  1.00  0.00     0.126 C
HETATM   34  O8  UNL     1      33.733  29.685   4.696  1.00  0.00    -0.266 OA
ENDBRANCH  31  32
ENDBRANCH  30  31
BRANCH  30  35
HETATM   35  C34 UNL     1      37.161  28.524   3.488  1.00  0.00     0.016 C
HETATM   36  C35 UNL     1      38.580  27.788   3.293  1.00  0.00     0.013 C
BRANCH  35  37
HETATM   37  C36 UNL     1      36.402  27.732   2.435  1.00  0.00     0.011 C
BRANCH  37  38
HETATM   38  C37 UNL     1      36.918  26.369   2.141  1.00  0.00    -0.022 C
HETATM   39  C38 UNL     1      36.608  26.132   0.642  1.00  0.00     0.009 C
HETATM   40  C39 UNL     1      36.381  25.199   2.852  1.00  0.00     0.009 C
ENDBRANCH  37  38
ENDBRANCH  35  37
ENDBRANCH  30  35
ENDBRANCH  25  30
ENDBRANCH   1  19
BRANCH   2  41
HETATM   41  O3  UNL     1      39.811  25.727   5.921  1.00  0.00    -0.362 OA
ATOM     42  H3  UNL     1      40.240  25.807   5.077  1.00  0.00     0.217 HD
ENDBRANCH   2  41
BRANCH   2  43
HETATM   43  C17 UNL     1      38.550  23.744   5.455  1.00  0.00     0.071 C
BRANCH  43  44
HETATM   44  C18 UNL     1      39.909  23.437   4.917  1.00  0.00     0.040 C
BRANCH  44  45
HETATM   45  C19 UNL     1      39.845  23.275   3.423  1.00  0.00    -0.080 C
HETATM   46  C20 UNL     1      38.875  22.315   2.897  1.00  0.00     0.043 C
HETATM   47  C21 UNL     1      40.674  24.024   2.743  1.00  0.00     0.052 C
BRANCH  47  48
HETATM   48  C22 UNL     1      40.842  24.087   1.316  1.00  0.00     0.145 C
HETATM   49  C23 UNL     1      40.211  25.241   0.551  1.00  0.00     0.096 C
HETATM   50  O4  UNL     1      41.468  23.269   0.630  1.00  0.00    -0.294 OA
ENDBRANCH  47  48
ENDBRANCH  44  45
ENDBRANCH  43  44
ENDBRANCH   2  43
TORSDOF 16
ENDMDL