MODEL 5
REMARK VINA RESULT: -7.127324911      2.519      5.669
REMARK  19 active torsions:
REMARK  status: ('A' for Active; 'I' for Inactive)
REMARK    1  A    between atoms: C3_3  and  C5_5
REMARK    2  A    between atoms: C5_5  and  C6_7
REMARK    3  A    between atoms: C7_8  and  O2_9
REMARK    4  A    between atoms: O2_9  and  C8_10
REMARK       I    between atoms: C8_10  and  N1_12
REMARK    5  A    between atoms: N1_12  and  C9_14
REMARK    6  A    between atoms: C13_18  and  C14_19
REMARK    7  A    between atoms: C15_20  and  C16_21
REMARK    8  A    between atoms: C16_21  and  O5_23
REMARK    9  A    between atoms: O5_23  and  C17_24
REMARK   10  A    between atoms: C21_28  and  C22_29
REMARK   11  A    between atoms: C22_29  and  O6_30
REMARK   12  A    between atoms: C22_29  and  C23_32
REMARK   13  A    between atoms: C23_32  and  C24_33
REMARK   14  A    between atoms: C27_36  and  O7_37
REMARK   15  A    between atoms: O7_37  and  C28_38
REMARK   16  A    between atoms: C28_38  and  O9_40
REMARK   17  A    between atoms: O9_40  and  C29_41
REMARK   18  A    between atoms: C29_41  and  C30_42
REMARK   19  A    between atoms: C33_45  and  C34_46
ROOT
HETATM    1  C6  UNL     1      37.656  25.120   7.568  1.00  0.00     0.059 A
HETATM    2  C7  UNL     1      38.773  25.466   6.817  1.00  0.00     0.106 A
HETATM    3  C13 UNL     1      39.133  24.738   5.699  1.00  0.00     0.011 A
HETATM    4  C21 UNL     1      38.302  23.657   5.380  1.00  0.00     0.018 A
HETATM    5  C27 UNL     1      37.219  23.323   6.145  1.00  0.00     0.099 A
HETATM    6  C33 UNL     1      36.838  24.056   7.278  1.00  0.00    -0.003 A
ENDROOT
BRANCH   2   7
HETATM    7  O2  UNL     1      39.488  26.546   7.221  1.00  0.00    -0.260 OA
BRANCH   7   8
HETATM    8  C8  UNL     1      39.848  27.670   6.523  1.00  0.00     0.366 C
HETATM    9  O3  UNL     1      38.941  28.303   5.942  1.00  0.00    -0.238 OA
HETATM   10  N1  UNL     1      41.179  28.133   6.427  1.00  0.00    -0.329 N
ATOM     11  H1  UNL     1      41.862  27.560   6.922  1.00  0.00     0.165 HD
BRANCH  10  12
HETATM   12  C9  UNL     1      41.722  29.250   5.765  1.00  0.00     0.024 C
HETATM   13  C10 UNL     1      41.084  30.522   6.219  1.00  0.00     0.037 C
HETATM   14  C11 UNL     1      41.536  29.019   4.265  1.00  0.00     0.037 C
HETATM   15  C12 UNL     1      43.236  29.286   6.048  1.00  0.00     0.037 C
ENDBRANCH  10  12
ENDBRANCH   7   8
ENDBRANCH   2   7
BRANCH   1  16
HETATM   16  C5  UNL     1      37.414  25.944   8.720  1.00  0.00     0.191 C
HETATM   17  O1  UNL     1      38.137  25.758   9.731  1.00  0.00    -0.287 OA
BRANCH  16  18
HETATM   18  C3  UNL     1      36.408  26.956   8.778  1.00  0.00    -0.015 C
HETATM   19  C2  UNL     1      36.128  27.789   7.797  1.00  0.00    -0.020 C
HETATM   20  C1  UNL     1      35.080  28.822   7.843  1.00  0.00     0.036 C
HETATM   21  C4  UNL     1      35.572  27.108  10.017  1.00  0.00     0.052 C
ENDBRANCH  16  18
ENDBRANCH   1  16
BRANCH   3  22
HETATM   22  C14 UNL     1      40.309  25.166   5.017  1.00  0.00     0.021 C
HETATM   23  C15 UNL     1      41.475  24.619   4.817  1.00  0.00     0.083 C
BRANCH  23  24
HETATM   24  C16 UNL     1      42.486  25.316   4.049  1.00  0.00     0.283 C
HETATM   25  O4  UNL     1      43.382  25.961   4.691  1.00  0.00    -0.260 OA
BRANCH  24  26
HETATM   26  O5  UNL     1      42.570  25.342   2.673  1.00  0.00    -0.308 OA
BRANCH  26  27
HETATM   27  C17 UNL     1      43.549  24.563   1.971  1.00  0.00     0.060 C
HETATM   28  C18 UNL     1      43.118  24.381   0.523  1.00  0.00     0.046 C
HETATM   29  C19 UNL     1      43.800  23.217   2.555  1.00  0.00     0.046 C
HETATM   30  C20 UNL     1      44.873  25.323   1.933  1.00  0.00     0.046 C
ENDBRANCH  26  27
ENDBRANCH  24  26
ENDBRANCH  23  24
ENDBRANCH   3  22
BRANCH   6  31
HETATM   31  C34 UNL     1      35.698  23.617   8.014  1.00  0.00     0.014 C
HETATM   32  C35 UNL     1      34.463  24.459   7.683  1.00  0.00     0.015 C
HETATM   33  C36 UNL     1      35.636  23.384   9.457  1.00  0.00     0.015 C
ENDBRANCH   6  31
BRANCH   4  34
HETATM   34  C22 UNL     1      38.484  23.032   4.015  1.00  0.00     0.155 C
BRANCH  34  35
HETATM   35  O6  UNL     1      37.763  21.894   3.870  1.00  0.00    -0.391 OA
ATOM     36  H6  UNL     1      38.109  21.333   3.187  1.00  0.00     0.210 HD
ENDBRANCH  34  35
BRANCH  34  37
HETATM   37  C23 UNL     1      37.939  24.039   2.956  1.00  0.00     0.040 C
BRANCH  37  38
HETATM   38  C24 UNL     1      38.713  23.895   1.639  1.00  0.00    -0.020 C
HETATM   39  C25 UNL     1      39.982  23.080   1.806  1.00  0.00     0.009 C
HETATM   40  C26 UNL     1      39.307  25.353   1.446  1.00  0.00     0.009 C
ENDBRANCH  37  38
ENDBRANCH  34  37
ENDBRANCH   4  34
BRANCH   5  41
HETATM   41  O7  UNL     1      36.504  22.142   5.768  1.00  0.00    -0.254 OA
BRANCH  41  42
HETATM   42  C28 UNL     1      35.187  22.389   5.251  1.00  0.00     0.411 C
HETATM   43  O8  UNL     1      35.042  23.416   4.526  1.00  0.00    -0.229 OA
BRANCH  42  44
HETATM   44  O9  UNL     1      34.098  21.596   5.479  1.00  0.00    -0.297 OA
BRANCH  44  45
HETATM   45  C29 UNL     1      33.963  20.923   6.695  1.00  0.00     0.185 C
BRANCH  45  46
HETATM   46  C30 UNL     1      32.553  21.070   7.214  1.00  0.00     0.002 C
HETATM   47  C31 UNL     1      31.771  22.163   6.542  1.00  0.00     0.011 C
HETATM   48  C32 UNL     1      32.565  21.419   8.705  1.00  0.00     0.011 C
ENDBRANCH  45  46
ENDBRANCH  44  45
ENDBRANCH  42  44
ENDBRANCH  41  42
ENDBRANCH   5  41
TORSDOF 19
ENDMDL