MODEL 3
REMARK VINA RESULT: -9.895038039      1.231      1.821
REMARK  13 active torsions:
REMARK  status: ('A' for Active; 'I' for Inactive)
REMARK    1  A    between atoms: C4_4  and  C5_5
REMARK    2  A    between atoms: C5_5  and  C6_6
REMARK    3  A    between atoms: C6_6  and  C7_7
REMARK    4  A    between atoms: C9_9  and  C10_10
REMARK    5  A    between atoms: C10_10  and  C11_11
REMARK    6  A    between atoms: C11_11  and  C12_12
REMARK    7  A    between atoms: C22_24  and  O3_26
REMARK    8  A    between atoms: C24_28  and  C25_29
REMARK    9  A    between atoms: C24_28  and  C26_31
REMARK   10  A    between atoms: C26_31  and  C27_32
REMARK   11  A    between atoms: C27_32  and  C28_33
REMARK   12  A    between atoms: C28_33  and  C29_34
REMARK   13  A    between atoms: C34_39  and  O5_40
ROOT
HETATM    1  C12 UNL     1      32.650  21.778   7.674  1.00  0.00     0.183 C
HETATM    2  C13 UNL     1      31.647  22.399   6.770  1.00  0.00     0.061 C
HETATM    3  O1  UNL     1      33.344  22.998   8.198  1.00  0.00    -0.216 OA
HETATM    4  O2  UNL     1      33.584  23.672   7.092  1.00  0.00    -0.198 OA
HETATM    5  C14 UNL     1      34.754  23.213   6.475  1.00  0.00     0.214 C
HETATM    6  C15 UNL     1      34.599  23.232   5.023  1.00  0.00     0.074 C
HETATM    7  C16 UNL     1      35.792  23.983   4.531  1.00  0.00     0.016 C
HETATM    8  C17 UNL     1      36.834  24.036   5.677  1.00  0.00    -0.027 C
HETATM    9  C18 UNL     1      37.307  22.554   5.738  1.00  0.00     0.016 C
HETATM   10  C19 UNL     1      37.982  24.851   5.367  1.00  0.00     0.006 C
HETATM   11  C20 UNL     1      38.077  24.764   3.839  1.00  0.00     0.009 C
HETATM   12  C21 UNL     1      39.280  25.333   3.227  1.00  0.00     0.039 C
HETATM   13  C22 UNL     1      39.994  26.308   4.041  1.00  0.00     0.069 C
HETATM   14  C23 UNL     1      41.276  25.778   4.512  1.00  0.00     0.047 C
HETATM   15  C24 UNL     1      39.111  27.087   5.040  1.00  0.00     0.053 C
HETATM   16  C32 UNL     1      38.300  26.192   5.946  1.00  0.00     0.003 C
HETATM   17  C33 UNL     1      39.102  25.988   7.224  1.00  0.00     0.019 C
HETATM   18  C34 UNL     1      37.103  26.961   6.433  1.00  0.00     0.128 C
HETATM   19  C35 UNL     1      36.320  26.357   7.543  1.00  0.00     0.033 C
HETATM   20  C36 UNL     1      35.235  25.508   6.914  1.00  0.00     0.018 C
HETATM   21  C37 UNL     1      35.939  24.142   6.818  1.00  0.00     0.024 C
HETATM   22  C38 UNL     1      36.323  23.653   8.158  1.00  0.00     0.022 C
HETATM   23  O6  UNL     1      34.952  21.911   6.917  1.00  0.00    -0.277 OA
HETATM   24  C39 UNL     1      33.792  21.098   7.068  1.00  0.00     0.299 C
HETATM   25  O7  UNL     1      33.865  19.903   6.675  1.00  0.00    -0.262 OA
ENDROOT
BRANCH   1  26
HETATM   26  C11 UNL     1      32.109  21.107   8.873  1.00  0.00     0.078 C
BRANCH  26  27
HETATM   27  C10 UNL     1      31.463  21.861   9.944  1.00  0.00    -0.023 C
BRANCH  27  28
HETATM   28  C9  UNL     1      31.321  21.330  11.286  1.00  0.00    -0.002 C
HETATM   29  C7  UNL     1      30.884  22.069  12.315  1.00  0.00    -0.084 C
HETATM   30  C8  UNL     1      30.513  23.495  12.144  1.00  0.00     0.043 C
BRANCH  29  31
HETATM   31  C6  UNL     1      30.761  21.464  13.664  1.00  0.00     0.037 C
BRANCH  31  32
HETATM   32  C5  UNL     1      29.539  22.130  14.310  1.00  0.00     0.031 C
BRANCH  32  33
HETATM   33  C4  UNL     1      28.401  21.214  14.438  1.00  0.00    -0.024 C
HETATM   34  C2  UNL     1      27.209  21.576  14.008  1.00  0.00    -0.091 C
HETATM   35  C1  UNL     1      26.066  20.642  14.142  1.00  0.00     0.042 C
HETATM   36  C3  UNL     1      26.956  22.909  13.378  1.00  0.00     0.042 C
ENDBRANCH  32  33
ENDBRANCH  31  32
ENDBRANCH  29  31
ENDBRANCH  27  28
ENDBRANCH  26  27
ENDBRANCH   1  26
BRANCH  18  37
HETATM   37  O5  UNL     1      36.202  27.378   5.478  1.00  0.00    -0.395 OA
ATOM     38  H5  UNL     1      35.404  26.871   5.391  1.00  0.00     0.210 HD
ENDBRANCH  18  37
BRANCH  15  39
HETATM   39  C25 UNL     1      38.214  27.852   4.082  1.00  0.00     0.244 C
HETATM   40  O4  UNL     1      38.336  29.026   3.819  1.00  0.00    -0.306 OA
ENDBRANCH  15  39
BRANCH  15  41
HETATM   41  C26 UNL     1      40.078  28.033   5.631  1.00  0.00     0.020 C
BRANCH  41  42
HETATM   42  C27 UNL     1      39.823  29.325   6.196  1.00  0.00     0.002 C
BRANCH  42  43
HETATM   43  C28 UNL     1      39.590  29.471   7.673  1.00  0.00     0.004 C
BRANCH  43  44
HETATM   44  C29 UNL     1      38.304  29.974   8.175  1.00  0.00    -0.023 C
HETATM   45  C30 UNL     1      37.612  30.586   6.913  1.00  0.00     0.009 C
HETATM   46  C31 UNL     1      38.312  31.087   9.163  1.00  0.00     0.009 C
ENDBRANCH  43  44
ENDBRANCH  42  43
ENDBRANCH  41  42
ENDBRANCH  15  41
BRANCH  13  47
HETATM   47  O3  UNL     1      40.409  27.358   3.151  1.00  0.00    -0.389 OA
ATOM     48  H3  UNL     1      41.292  27.145   2.876  1.00  0.00     0.210 HD
ENDBRANCH  13  47
TORSDOF 13
ENDMDL