MODEL 5
REMARK VINA RESULT: -7.853662988      1.126      2.489
REMARK  16 active torsions:
REMARK  status: ('A' for Active; 'I' for Inactive)
REMARK    1  A    between atoms: C2_2  and  C3_3
REMARK    2  A    between atoms: C3_3  and  C4_4
REMARK    3  A    between atoms: C5_5  and  C7_7
REMARK    4  A    between atoms: C7_7  and  C8_8
REMARK    5  A    between atoms: C10_10  and  O1_11
REMARK    6  A    between atoms: C15_19  and  C16_20
REMARK    7  A    between atoms: C16_20  and  O4_21
REMARK    8  A    between atoms: C16_20  and  C17_23
REMARK    9  A    between atoms: C17_23  and  C18_24
REMARK   10  A    between atoms: C18_24  and  C19_25
REMARK   11  A    between atoms: C24_32  and  O7_34
REMARK   12  A    between atoms: O7_34  and  C26_35
REMARK   13  A    between atoms: C26_35  and  O8_36
REMARK   14  A    between atoms: C26_35  and  C27_38
REMARK   15  A    between atoms: C28_39  and  O9_40
REMARK   16  A    between atoms: C34_47  and  C36_49
ROOT
HETATM    1  C8  UNL     1      37.288  25.807   4.409  1.00  0.00     0.033 C
HETATM    2  C9  UNL     1      36.708  24.537   3.717  1.00  0.00     0.045 C
HETATM    3  C10 UNL     1      36.394  23.559   4.812  1.00  0.00     0.187 C
HETATM    4  C11 UNL     1      36.752  24.308   6.095  1.00  0.00     0.258 C
HETATM    5  O2  UNL     1      35.675  25.156   6.346  1.00  0.00    -0.191 OA
HETATM    6  O3  UNL     1      34.918  24.491   7.147  1.00  0.00    -0.189 OA
HETATM    7  C12 UNL     1      35.648  23.509   7.765  1.00  0.00     0.262 C
HETATM    8  C13 UNL     1      35.716  23.790   9.263  1.00  0.00     0.081 C
HETATM    9  C14 UNL     1      34.367  23.360   9.752  1.00  0.00     0.021 C
HETATM   10  C15 UNL     1      33.872  22.330   8.780  1.00  0.00     0.090 C
HETATM   11  C23 UNL     1      34.942  22.220   7.735  1.00  0.00     0.198 C
HETATM   12  O5  UNL     1      35.094  21.213   7.070  1.00  0.00    -0.291 OA
HETATM   13  O6  UNL     1      36.914  23.512   7.156  1.00  0.00    -0.302 OA
HETATM   14  C24 UNL     1      37.955  25.138   5.592  1.00  0.00     0.132 C
HETATM   15  C25 UNL     1      38.955  24.150   5.064  1.00  0.00     0.053 C
ENDROOT
BRANCH   3  16
HETATM   16  O1  UNL     1      37.064  22.382   4.652  1.00  0.00    -0.390 OA
ATOM     17  H1  UNL     1      37.943  22.420   5.012  1.00  0.00     0.210 HD
ENDBRANCH   3  16
BRANCH  14  18
HETATM   18  O7  UNL     1      38.550  25.820   6.573  1.00  0.00    -0.313 OA
BRANCH  18  19
HETATM   19  C26 UNL     1      38.601  26.597   7.547  1.00  0.00     0.193 C
BRANCH  19  20
HETATM   20  O8  UNL     1      38.609  25.750   8.631  1.00  0.00    -0.340 OA
ATOM     21  H8  UNL     1      39.499  25.814   8.955  1.00  0.00     0.220 HD
ENDBRANCH  19  20
BRANCH  19  22
HETATM   22  C27 UNL     1      38.632  27.920   8.099  1.00  0.00     0.065 A
HETATM   23  C28 UNL     1      37.329  28.471   8.231  1.00  0.00     0.082 A
HETATM   24  C29 UNL     1      37.197  29.797   8.481  1.00  0.00     0.044 A
HETATM   25  C30 UNL     1      38.283  30.624   8.613  1.00  0.00    -0.059 A
HETATM   26  C31 UNL     1      38.114  32.070   8.895  1.00  0.00     0.048 C
HETATM   27  C32 UNL     1      39.503  30.064   8.492  1.00  0.00     0.019 A
HETATM   28  C33 UNL     1      39.781  28.667   8.234  1.00  0.00    -0.016 A
HETATM   29  C34 UNL     1      41.144  28.272   8.442  1.00  0.00    -0.073 C
HETATM   30  C35 UNL     1      42.172  29.155   7.700  1.00  0.00     0.044 C
BRANCH  23  31
HETATM   31  O9  UNL     1      36.220  27.676   8.123  1.00  0.00    -0.360 OA
ATOM     32  H9  UNL     1      35.966  27.311   7.284  1.00  0.00     0.217 HD
ENDBRANCH  23  31
BRANCH  29  33
HETATM   33  C36 UNL     1      41.770  27.135   9.119  1.00  0.00     0.030 C
HETATM   34  C37 UNL     1      42.672  27.494  10.303  1.00  0.00     0.010 C
ENDBRANCH  29  33
ENDBRANCH  19  22
ENDBRANCH  18  19
ENDBRANCH  14  18
BRANCH   1  35
HETATM   35  C7  UNL     1      38.297  26.416   3.492  1.00  0.00     0.042 C
BRANCH  35  36
HETATM   36  C5  UNL     1      38.895  27.696   3.954  1.00  0.00    -0.076 C
HETATM   37  C4  UNL     1      38.061  28.751   4.198  1.00  0.00     0.053 C
HETATM   38  C6  UNL     1      40.317  27.855   4.186  1.00  0.00     0.044 C
BRANCH  37  39
HETATM   39  C3  UNL     1      38.506  30.034   4.685  1.00  0.00    -0.156 C
BRANCH  39  40
HETATM   40  C2  UNL     1      38.880  31.103   5.100  1.00  0.00     0.080 C
HETATM   41  C1  UNL     1      40.361  31.446   5.188  1.00  0.00     0.017 C
ENDBRANCH  39  40
ENDBRANCH  37  39
ENDBRANCH  35  36
ENDBRANCH   1  35
BRANCH  10  42
HETATM   42  C16 UNL     1      32.575  22.702   8.141  1.00  0.00     0.130 C
BRANCH  42  43
HETATM   43  O4  UNL     1      32.467  22.084   6.888  1.00  0.00    -0.395 OA
ATOM     44  H4  UNL     1      33.292  22.153   6.422  1.00  0.00     0.210 HD
ENDBRANCH  42  43
BRANCH  42  45
HETATM   45  C17 UNL     1      31.343  22.318   8.923  1.00  0.00     0.036 C
BRANCH  45  46
HETATM   46  C18 UNL     1      31.556  21.075   9.749  1.00  0.00     0.030 C
BRANCH  46  47
HETATM   47  C19 UNL     1      31.316  21.438  11.186  1.00  0.00    -0.025 C
HETATM   48  C20 UNL     1      31.200  20.475  12.089  1.00  0.00    -0.091 C
HETATM   49  C21 UNL     1      31.299  19.043  11.700  1.00  0.00     0.042 C
HETATM   50  C22 UNL     1      30.958  20.868  13.501  1.00  0.00     0.042 C
ENDBRANCH  46  47
ENDBRANCH  45  46
ENDBRANCH  42  45
ENDBRANCH  10  42
TORSDOF 16
ENDMDL