MODEL 5
REMARK VINA RESULT: -8.407927385      3.689      6.293
REMARK  14 active torsions:
REMARK  status: ('A' for Active; 'I' for Inactive)
REMARK    1  A    between atoms: C2_2  and  C4_4
REMARK    2  A    between atoms: C16_19  and  C17_20
REMARK    3  A    between atoms: C17_20  and  C18_21
REMARK    4  A    between atoms: C18_21  and  C20_23
REMARK    5  A    between atoms: C20_23  and  C21_24
REMARK    6  A    between atoms: C21_24  and  C22_25
REMARK    7  A    between atoms: C21_24  and  C24_33
REMARK    8  A    between atoms: C22_25  and  C23_26
REMARK    9  A    between atoms: C23_26  and  O4_27
REMARK   10  A    between atoms: N1_29  and  O5_31
REMARK   11  A    between atoms: C24_33  and  C25_34
REMARK   12  A    between atoms: C25_34  and  C26_35
REMARK   13  A    between atoms: C25_34  and  C28_37
REMARK   14  A    between atoms: C31_40  and  O6_41
ROOT
HETATM    1  C4  UNL     1      41.973  23.886   2.949  1.00  0.00     0.161 C
HETATM    2  O1  UNL     1      43.114  24.206   2.342  1.00  0.00    -0.348 OA
HETATM    3  C5  UNL     1      44.054  25.061   2.578  1.00  0.00     0.292 A
HETATM    4  O2  UNL     1      44.351  25.750   1.255  1.00  0.00    -0.346 OA
HETATM    5  C6  UNL     1      44.180  26.417   2.423  1.00  0.00     0.209 A
HETATM    6  C7  UNL     1      43.017  27.384   2.657  1.00  0.00     0.164 C
HETATM    7  O3  UNL     1      43.172  27.715   4.004  1.00  0.00    -0.372 OA
HETATM    8  C8  UNL     1      42.408  26.800   4.751  1.00  0.00     0.059 C
HETATM    9  C9  UNL     1      41.694  27.757   5.757  1.00  0.00     0.046 C
HETATM   10  C10 UNL     1      43.256  25.939   5.598  1.00  0.00     0.046 C
HETATM   11  C11 UNL     1      41.447  26.237   3.813  1.00  0.00     0.040 C
HETATM   12  C12 UNL     1      41.151  24.774   3.734  1.00  0.00     0.063 C
HETATM   13  C13 UNL     1      39.657  24.776   3.559  1.00  0.00    -0.010 A
HETATM   14  C14 UNL     1      38.961  24.005   4.461  1.00  0.00    -0.043 A
HETATM   15  C15 UNL     1      39.694  23.297   5.556  1.00  0.00     0.049 C
HETATM   16  C16 UNL     1      37.556  23.891   4.409  1.00  0.00    -0.017 A
HETATM   17  C31 UNL     1      36.935  24.594   3.402  1.00  0.00     0.081 A
HETATM   18  C32 UNL     1      37.643  25.391   2.476  1.00  0.00     0.006 A
HETATM   19  C33 UNL     1      36.906  26.125   1.411  1.00  0.00     0.054 C
HETATM   20  C34 UNL     1      38.981  25.484   2.554  1.00  0.00     0.086 A
HETATM   21  O7  UNL     1      39.580  26.326   1.588  1.00  0.00    -0.339 OA
HETATM   22  C35 UNL     1      40.556  27.378   1.825  1.00  0.00     0.067 C
HETATM   23  C36 UNL     1      40.964  27.781   0.391  1.00  0.00     0.047 C
HETATM   24  C37 UNL     1      39.956  28.563   2.437  1.00  0.00     0.047 C
HETATM   25  C38 UNL     1      41.712  26.750   2.446  1.00  0.00     0.059 C
ENDROOT
BRANCH  16  26
HETATM   26  C17 UNL     1      36.815  23.084   5.403  1.00  0.00     0.046 C
BRANCH  26  27
HETATM   27  C18 UNL     1      36.131  23.873   6.447  1.00  0.00    -0.014 C
HETATM   28  C19 UNL     1      34.633  23.770   6.464  1.00  0.00     0.010 C
BRANCH  27  29
HETATM   29  C20 UNL     1      36.694  23.843   7.800  1.00  0.00     0.009 C
BRANCH  29  30
HETATM   30  C21 UNL     1      36.394  24.910   8.774  1.00  0.00    -0.006 C
BRANCH  30  31
HETATM   31  C22 UNL     1      36.040  24.191  10.093  1.00  0.00     0.090 C
BRANCH  31  32
HETATM   32  C23 UNL     1      34.694  24.667  10.574  1.00  0.00     0.135 C
HETATM   33  N1  UNL     1      33.616  23.990  10.410  1.00  0.00    -0.251 N
ATOM     34  H1  UNL     1      32.741  24.379  10.764  1.00  0.00     0.196 HD
BRANCH  32  35
HETATM   35  O4  UNL     1      34.594  25.891  11.224  1.00  0.00    -0.348 OA
ATOM     36  H4  UNL     1      33.746  26.308  11.307  1.00  0.00     0.219 HD
ENDBRANCH  32  35
BRANCH  33  37
HETATM   37  O5  UNL     1      33.579  22.769   9.785  1.00  0.00    -0.288 OA
ATOM     38  H5  UNL     1      33.157  22.623   8.946  1.00  0.00     0.244 HD
ENDBRANCH  33  37
ENDBRANCH  31  32
ENDBRANCH  30  31
BRANCH  30  39
HETATM   39  C24 UNL     1      37.492  25.844   9.091  1.00  0.00     0.010 C
BRANCH  39  40
HETATM   40  C25 UNL     1      37.351  27.256   8.527  1.00  0.00    -0.011 C
BRANCH  40  41
HETATM   41  C26 UNL     1      35.973  27.403   7.982  1.00  0.00     0.000 C
HETATM   42  C27 UNL     1      35.091  28.369   8.708  1.00  0.00     0.005 C
ENDBRANCH  40  41
BRANCH  40  43
HETATM   43  C28 UNL     1      38.454  27.344   7.486  1.00  0.00    -0.019 C
HETATM   44  C29 UNL     1      37.780  27.194   6.109  1.00  0.00     0.010 C
HETATM   45  C30 UNL     1      39.479  26.268   7.559  1.00  0.00     0.010 C
ENDBRANCH  40  43
ENDBRANCH  39  40
ENDBRANCH  30  39
ENDBRANCH  29  30
ENDBRANCH  27  29
ENDBRANCH  26  27
ENDBRANCH  16  26
BRANCH  17  46
HETATM   46  O6  UNL     1      35.576  24.567   3.225  1.00  0.00    -0.359 OA
ATOM     47  H6  UNL     1      35.007  25.239   3.582  1.00  0.00     0.217 HD
ENDBRANCH  17  46
BRANCH   1  48
HETATM   48  C2  UNL     1      41.245  23.097   1.902  1.00  0.00    -0.064 C
HETATM   49  C1  UNL     1      41.375  23.440   0.591  1.00  0.00     0.016 C
HETATM   50  C3  UNL     1      40.384  21.914   2.095  1.00  0.00     0.045 C
ENDBRANCH   1  48
TORSDOF 14
ENDMDL