MODEL 4
REMARK VINA RESULT: -6.152985740      0.985      1.060
REMARK  5 active torsions:
REMARK  status: ('A' for Active; 'I' for Inactive)
REMARK    1  A    between atoms: C2_2  and  N1_3
REMARK       I    between atoms: N1_3  and  C4_5
REMARK       I    between atoms: C4_5  and  N2_7
REMARK    2  A    between atoms: N2_7  and  C5_9
REMARK    3  A    between atoms: C8_15  and  N3_16
REMARK       I    between atoms: N3_16  and  C9_18
REMARK    4  A    between atoms: C9_18  and  O4_20
REMARK    5  A    between atoms: O4_20  and  C10_21
ROOT
HETATM    1  C5  UNL     1      27.655  39.288   1.441  1.00  0.00     0.138 C
HETATM    2  C6  UNL     1      27.595  39.560   2.932  1.00  0.00     0.199 C
HETATM    3  O2  UNL     1      27.058  40.808   3.106  1.00  0.00    -0.348 OA
HETATM    4  C7  UNL     1      26.346  41.135   1.952  1.00  0.00     0.238 C
HETATM    5 CL1  UNL     1      24.924  40.071   1.894  1.00  0.00    -0.068 Cl
HETATM    6 CL2  UNL     1      25.957  42.826   1.825  1.00  0.00    -0.068 Cl
HETATM    7  C8  UNL     1      27.354  40.682   0.885  1.00  0.00     0.178 C
ENDROOT
BRANCH   7   8
HETATM    8  N3  UNL     1      28.495  41.531   1.006  1.00  0.00    -0.325 N
HETATM    9  C9  UNL     1      29.020  42.316  -0.061  1.00  0.00     0.361 C
HETATM   10  O3  UNL     1      28.430  42.245  -1.169  1.00  0.00    -0.238 OA
ATOM     11  H3  UNL     1      28.963  41.578   1.910  1.00  0.00     0.165 HD
BRANCH   9  12
HETATM   12  O4  UNL     1      30.110  43.128   0.051  1.00  0.00    -0.294 OA
BRANCH  12  13
HETATM   13  C10 UNL     1      31.403  42.834  -0.430  1.00  0.00     0.061 C
HETATM   14  C11 UNL     1      31.729  43.581  -1.698  1.00  0.00     0.046 C
HETATM   15  C12 UNL     1      31.627  41.374  -0.681  1.00  0.00     0.046 C
HETATM   16  C13 UNL     1      32.396  43.289   0.629  1.00  0.00     0.046 C
ENDBRANCH  12  13
ENDBRANCH   9  12
ENDBRANCH   7   8
BRANCH   1  17
HETATM   17  N2  UNL     1      28.928  38.794   1.015  1.00  0.00    -0.334 N
HETATM   18  C4  UNL     1      29.031  38.020  -0.144  1.00  0.00     0.318 C
HETATM   19  N1  UNL     1      30.276  37.523  -0.579  1.00  0.00    -0.339 N
HETATM   20  O1  UNL     1      27.994  37.760  -0.814  1.00  0.00    -0.247 OA
HETATM   21  C3  UNL     1      30.364  36.729  -1.811  1.00  0.00     0.154 C
ATOM     22  H2  UNL     1      29.764  39.008   1.559  1.00  0.00     0.164 HD
BRANCH  19  23
HETATM   23  C2  UNL     1      31.463  37.800   0.196  1.00  0.00     0.122 C
HETATM   24  C1  UNL     1      32.650  37.013  -0.317  1.00  0.00     0.026 C
ENDBRANCH  19  23
ENDBRANCH   1  17
TORSDOF 5
ENDMDL