MODEL 4
REMARK VINA RESULT: -5.296614435      5.714      7.571
REMARK  4 active torsions:
REMARK  status: ('A' for Active; 'I' for Inactive)
REMARK    1  A    between atoms: N1_2  and  C2_4
REMARK    2  A    between atoms: C2_4  and  C6_15
REMARK    3  A    between atoms: N2_5  and  C3_7
REMARK    4  A    between atoms: C6_15  and  O1_18
ROOT
HETATM    1  C2  UNL     1      19.822  40.390   5.465  1.00  0.00     0.113 C
HETATM    2  N2  UNL     1      20.331  40.673   4.347  1.00  0.00    -0.324 N
ATOM      3  H2  UNL     1      19.688  40.632   3.556  1.00  0.00     0.169 HD
ENDROOT
BRANCH   2   4
HETATM    4  C3  UNL     1      21.655  41.037   4.025  1.00  0.00     0.152 A
HETATM    5  N3  UNL     1      22.805  40.397   4.180  1.00  0.00    -0.329 N
HETATM    6  C4  UNL     1      23.913  40.945   3.803  1.00  0.00     0.106 A
ATOM      7  H3  UNL     1      22.817  39.468   4.599  1.00  0.00     0.168 HD
HETATM    8 BR1  UNL     1      25.631  40.063   4.002  1.00  0.00    -0.029 Br
HETATM    9  C5  UNL     1      23.854  42.198   3.245  1.00  0.00     0.089 A
HETATM   10 BR2  UNL     1      25.277  43.297   2.582  1.00  0.00    -0.040 Br
HETATM   11  S1  UNL     1      22.161  42.502   3.305  1.00  0.00    -0.043 SA
ENDBRANCH   2   4
BRANCH   1  12
HETATM   12  N1  UNL     1      18.450  40.054   5.500  1.00  0.00    -0.382 N
HETATM   13  C1  UNL     1      17.772  39.720   4.281  1.00  0.00     0.147 C
ATOM     14  H1  UNL     1      17.945  40.050   6.387  1.00  0.00     0.160 HD
ENDBRANCH   1  12
BRANCH   1  15
HETATM   15  C6  UNL     1      20.565  40.389   6.718  1.00  0.00     0.108 C
HETATM   16  C7  UNL     1      19.609  39.942   7.815  1.00  0.00     0.054 C
HETATM   17  C8  UNL     1      21.099  41.769   7.080  1.00  0.00     0.054 C
BRANCH  15  18
HETATM   18  O1  UNL     1      21.648  39.527   6.653  1.00  0.00    -0.383 OA
ATOM     19  H1  UNL     1      21.431  38.679   7.021  1.00  0.00     0.211 HD
ENDBRANCH  15  18
ENDBRANCH   1  15
TORSDOF 4
ENDMDL