MODEL 5
REMARK VINA RESULT: -5.889967452      3.409      6.438
REMARK  4 active torsions:
REMARK  status: ('A' for Active; 'I' for Inactive)
REMARK    1  A    between atoms: O1_2  and  C2_3
REMARK       I    between atoms: C2_3  and  N1_5
REMARK    2  A    between atoms: N1_5  and  N2_7
REMARK    3  A    between atoms: C3_9  and  C4_10
REMARK    4  A    between atoms: C7_14  and  O3_15
ROOT
HETATM    1  C4  UNL     1      25.519  40.508   2.483  1.00  0.00    -0.000 A
HETATM    2  C5  UNL     1      25.206  39.686   1.422  1.00  0.00     0.036 A
HETATM    3  C6  UNL     1      25.700  39.982   0.152  1.00  0.00     0.045 A
HETATM    4 BR1  UNL     1      25.275  38.857  -1.316  1.00  0.00    -0.048 Br
HETATM    5  C7  UNL     1      26.498  41.082  -0.075  1.00  0.00     0.084 A
HETATM    6  C8  UNL     1      26.809  41.903   0.990  1.00  0.00     0.057 A
HETATM    7  C9  UNL     1      26.317  41.610   2.264  1.00  0.00     0.025 A
HETATM    8 BR2  UNL     1      26.727  42.722   3.758  1.00  0.00    -0.050 Br
ENDROOT
BRANCH   1   9
HETATM    9  C3  UNL     1      25.017  40.226   3.833  1.00  0.00     0.120 C
HETATM   10  N2  UNL     1      23.761  39.992   3.981  1.00  0.00    -0.307 N
ATOM     11  H2  UNL     1      23.131  40.004   3.179  1.00  0.00     0.186 HD
BRANCH  10  12
HETATM   12  N1  UNL     1      23.282  39.726   5.256  1.00  0.00    -0.246 N
HETATM   13  C2  UNL     1      21.942  40.038   5.574  1.00  0.00     0.379 C
HETATM   14  O2  UNL     1      21.180  40.553   4.717  1.00  0.00    -0.237 OA
ATOM     15  H1  UNL     1      23.893  39.308   5.958  1.00  0.00     0.192 HD
BRANCH  13  16
HETATM   16  O1  UNL     1      21.430  39.783   6.842  1.00  0.00    -0.308 OA
HETATM   17  C1  UNL     1      20.136  40.124   7.252  1.00  0.00     0.215 C
ENDBRANCH  13  16
ENDBRANCH  10  12
ENDBRANCH   1   9
BRANCH   5  18
HETATM   18  O3  UNL     1      26.996  41.390  -1.334  1.00  0.00    -0.359 OA
ATOM     19  H3  UNL     1      27.201  42.281  -1.595  1.00  0.00     0.217 HD
ENDBRANCH   5  18
TORSDOF 4
ENDMDL