MODEL 5
REMARK VINA RESULT: -7.390556307      1.226      2.231
REMARK  4 active torsions:
REMARK  status: ('A' for Active; 'I' for Inactive)
REMARK    1  A    between atoms: C7_7  and  C8_8
REMARK       I    between atoms: C8_8  and  N1_10
REMARK    2  A    between atoms: N1_10  and  C9_12
REMARK    3  A    between atoms: C9_12  and  N2_14
REMARK    4  A    between atoms: N2_14  and  N3_16
ROOT
HETATM    1  C9  UNL     1      25.821  41.410   2.421  1.00  0.00     0.193 C
HETATM    2  S1  UNL     1      26.788  42.312   3.454  1.00  0.00    -0.039 SA
ENDROOT
BRANCH   1   3
HETATM    3  N1  UNL     1      26.420  40.706   1.376  1.00  0.00    -0.302 N
HETATM    4  C8  UNL     1      25.777  39.867   0.453  1.00  0.00     0.228 C
HETATM    5  O1  UNL     1      24.555  39.671   0.489  1.00  0.00    -0.273 OA
ATOM      6  H1  UNL     1      27.430  40.811   1.272  1.00  0.00     0.171 HD
BRANCH   4   7
HETATM    7  C7  UNL     1      26.518  39.160  -0.631  1.00  0.00     0.082 C
HETATM    8  C2  UNL     1      25.631  38.366  -1.528  1.00  0.00    -0.006 C
HETATM    9  C1  UNL     1      25.468  39.003  -2.903  1.00  0.00     0.011 C
HETATM   10  C3  UNL     1      26.212  36.980  -1.688  1.00  0.00     0.005 C
HETATM   11  C4  UNL     1      27.671  37.016  -2.071  1.00  0.00     0.000 C
HETATM   12  C5  UNL     1      28.463  37.662  -0.963  1.00  0.00     0.001 C
HETATM   13  C6  UNL     1      27.578  38.318   0.054  1.00  0.00     0.014 C
ENDBRANCH   4   7
ENDBRANCH   1   3
BRANCH   1  14
HETATM   14  N2  UNL     1      24.434  41.435   2.699  1.00  0.00    -0.276 N
ATOM     15  H2  UNL     1      23.846  42.151   2.274  1.00  0.00     0.189 HD
BRANCH  14  16
HETATM   16  N3  UNL     1      23.857  40.476   3.559  1.00  0.00    -0.304 N
HETATM   17  C10 UNL     1      22.829  40.757   4.248  1.00  0.00     0.032 C
HETATM   18  C11 UNL     1      22.117  42.057   4.255  1.00  0.00     0.225 C
HETATM   19  C13 UNL     1      22.106  39.876   5.191  1.00  0.00     0.129 C
HETATM   20  O2  UNL     1      21.148  41.995   5.224  1.00  0.00    -0.346 OA
HETATM   21  C12 UNL     1      20.846  40.667   5.460  1.00  0.00     0.221 C
HETATM   22 CL1  UNL     1      20.387  40.379   7.154  1.00  0.00    -0.070 Cl
HETATM   23 CL2  UNL     1      19.523  40.080   4.419  1.00  0.00    -0.070 Cl
ATOM     24  H3  UNL     1      24.271  39.546   3.627  1.00  0.00     0.186 HD
ENDBRANCH  14  16
ENDBRANCH   1  14
TORSDOF 4
ENDMDL