MODEL 2
REMARK VINA RESULT: -5.617054365      3.659      4.343
REMARK  4 active torsions:
REMARK  status: ('A' for Active; 'I' for Inactive)
REMARK    1  A    between atoms: C2_2  and  O1_4
REMARK    2  A    between atoms: O1_4  and  C4_5
REMARK    3  A    between atoms: C5_6  and  C6_7
REMARK       I    between atoms: C6_7  and  N1_9
REMARK    4  A    between atoms: N1_9  and  N2_11
ROOT
HETATM    1  C4  UNL     1      26.332  41.002   0.227  1.00  0.00     0.111 A
HETATM    2  C5  UNL     1      27.135  41.894   0.851  1.00  0.00     0.110 A
HETATM    3  S1  UNL     1      28.503  41.974  -0.243  1.00  0.00    -0.073 SA
HETATM    4  C7  UNL     1      27.973  40.885  -1.418  1.00  0.00     0.072 A
HETATM    5 BR1  UNL     1      28.873  40.341  -3.045  1.00  0.00    -0.042 Br
HETATM    6  C8  UNL     1      26.755  40.473  -0.954  1.00  0.00     0.070 A
HETATM    7 BR2  UNL     1      25.740  39.200  -2.040  1.00  0.00    -0.046 Br
ENDROOT
BRANCH   2   8
HETATM    8  C6  UNL     1      27.052  42.689   2.066  1.00  0.00     0.279 C
HETATM    9  O2  UNL     1      25.982  43.360   2.273  1.00  0.00    -0.265 OA
HETATM   10  N1  UNL     1      28.064  42.752   3.014  1.00  0.00    -0.272 N
ATOM     11  H1  UNL     1      28.916  42.212   2.863  1.00  0.00     0.189 HD
BRANCH  10  12
HETATM   12  N2  UNL     1      27.951  43.548   4.193  1.00  0.00    -0.342 N
ATOM     13  H22 UNL     1      27.019  43.854   4.475  1.00  0.00     0.176 HD
ATOM     14  H21 UNL     1      28.764  43.812   4.749  1.00  0.00     0.176 HD
ENDBRANCH  10  12
ENDBRANCH   2   8
BRANCH   1  15
HETATM   15  O1  UNL     1      25.064  40.582   0.781  1.00  0.00    -0.344 OA
BRANCH  15  16
HETATM   16  C2  UNL     1      25.070  39.529   1.729  1.00  0.00     0.121 C
HETATM   17  C1  UNL     1      26.378  38.831   1.957  1.00  0.00     0.040 C
HETATM   18  C3  UNL     1      24.678  40.114   3.095  1.00  0.00     0.040 C
ENDBRANCH  15  16
ENDBRANCH   1  15
TORSDOF 4
ENDMDL