MODEL 4
REMARK VINA RESULT: -7.597805569      4.314      5.778
REMARK  4 active torsions:
REMARK  status: ('A' for Active; 'I' for Inactive)
REMARK    1  A    between atoms: C3_5  and  N2_6
REMARK    2  A    between atoms: N2_6  and  C4_8
REMARK    3  A    between atoms: C4_8  and  O1_9
REMARK    4  A    between atoms: C4_8  and  C5_11
ROOT
HETATM    1  C5  UNL     1      24.955  40.994   3.530  1.00  0.00     0.000 A
HETATM    2  C6  UNL     1      24.439  40.110   4.453  1.00  0.00     0.054 A
HETATM    3  C7  UNL     1      23.105  40.018   4.750  1.00  0.00     0.118 A
HETATM    4  F1  UNL     1      22.651  39.129   5.667  1.00  0.00    -0.206 F
HETATM    5  C8  UNL     1      22.213  40.841   4.108  1.00  0.00     0.065 A
HETATM    6  C9  UNL     1      22.691  41.735   3.181  1.00  0.00     0.054 A
HETATM    7  C10 UNL     1      21.759  42.591   2.515  1.00  0.00     0.100 C
HETATM    8  N3  UNL     1      21.018  43.288   1.970  1.00  0.00    -0.191 NA
HETATM    9  C11 UNL     1      24.049  41.826   2.882  1.00  0.00    -0.030 A
HETATM   10  C12 UNL     1      24.563  42.787   1.887  1.00  0.00     0.050 C
ENDROOT
BRANCH   1  11
HETATM   11  C4  UNL     1      26.395  41.017   3.284  1.00  0.00     0.254 C
BRANCH  11  12
HETATM   12  N2  UNL     1      27.012  39.711   3.396  1.00  0.00    -0.340 N
ATOM     13  H2  UNL     1      27.120  39.243   4.296  1.00  0.00     0.164 HD
BRANCH  12  14
HETATM   14  C3  UNL     1      27.421  39.164   2.279  1.00  0.00     0.148 A
HETATM   15  N1  UNL     1      28.670  38.891   1.911  1.00  0.00    -0.339 N
HETATM   16  C2  UNL     1      28.864  38.334   0.736  1.00  0.00     0.032 A
ATOM     17  H1  UNL     1      29.456  39.108   2.524  1.00  0.00     0.168 HD
HETATM   18  C1  UNL     1      30.249  37.982   0.223  1.00  0.00     0.070 C
HETATM   19  C13 UNL     1      27.766  38.072  -0.033  1.00  0.00     0.077 A
HETATM   20  S1  UNL     1      26.494  38.633   0.958  1.00  0.00    -0.045 SA
HETATM   21 BR1  UNL     1      27.699  37.273  -1.781  1.00  0.00    -0.041 Br
ENDBRANCH  12  14
ENDBRANCH  11  12
BRANCH  11  22
HETATM   22  O1  UNL     1      27.013  41.826   4.244  1.00  0.00    -0.372 OA
ATOM     23  H1  UNL     1      26.313  42.263   4.715  1.00  0.00     0.212 HD
ENDBRANCH  11  22
ENDBRANCH   1  11
TORSDOF 4
ENDMDL