MODEL 5
REMARK VINA RESULT: -6.970147816      4.622      7.940
REMARK  5 active torsions:
REMARK  status: ('A' for Active; 'I' for Inactive)
REMARK    1  A    between atoms: C2_2  and  O1_5
REMARK    2  A    between atoms: O1_5  and  C5_6
REMARK       I    between atoms: C5_6  and  N1_8
REMARK    3  A    between atoms: C12_15  and  C13_16
REMARK    4  A    between atoms: C13_16  and  N2_17
REMARK       I    between atoms: N2_17  and  C14_18
REMARK    5  A    between atoms: C14_18  and  C15_20
ROOT
HETATM    1  C5  UNL     1      26.105  41.160   0.934  1.00  0.00     0.364 C
HETATM    2  O2  UNL     1      27.150  41.858   1.065  1.00  0.00    -0.238 OA
HETATM    3  N1  UNL     1      26.217  39.916   0.275  1.00  0.00    -0.317 N
HETATM    4  C6  UNL     1      24.974  39.155   0.112  1.00  0.00     0.133 C
HETATM    5  C7  UNL     1      25.034  38.321  -1.149  1.00  0.00     0.004 C
HETATM    6  C8  UNL     1      25.371  39.113  -2.380  1.00  0.00     0.007 C
HETATM    7  C9  UNL     1      26.877  39.096  -2.512  1.00  0.00     0.007 C
HETATM    8  C10 UNL     1      27.363  38.377  -1.245  1.00  0.00     0.015 C
HETATM    9  C11 UNL     1      26.238  37.404  -1.045  1.00  0.00     0.013 C
HETATM   10  C12 UNL     1      27.476  39.438  -0.192  1.00  0.00     0.145 C
ENDROOT
BRANCH  10  11
HETATM   11  C13 UNL     1      28.411  39.057   0.952  1.00  0.00     0.184 C
BRANCH  11  12
HETATM   12  N2  UNL     1      29.625  38.499   0.633  1.00  0.00    -0.382 NA
HETATM   13  C14 UNL     1      30.824  37.949   0.319  1.00  0.00     0.346 C
HETATM   14  O3  UNL     1      31.927  38.208   0.900  1.00  0.00    -0.252 OA
BRANCH  13  15
HETATM   15  C15 UNL     1      31.001  36.933  -0.787  1.00  0.00     0.268 C
HETATM   16  C16 UNL     1      30.896  37.667  -2.093  1.00  0.00     0.082 C
HETATM   17  F1  UNL     1      29.996  35.982  -0.759  1.00  0.00    -0.214 F
HETATM   18 CL1  UNL     1      32.622  36.198  -0.713  1.00  0.00    -0.072 Cl
ENDBRANCH  13  15
ENDBRANCH  11  12
ENDBRANCH  10  11
BRANCH   1  19
HETATM   19  O1  UNL     1      24.943  41.671   1.444  1.00  0.00    -0.294 OA
BRANCH  19  20
HETATM   20  C2  UNL     1      24.748  41.708   2.840  1.00  0.00     0.061 C
HETATM   21  C1  UNL     1      25.245  40.423   3.467  1.00  0.00     0.046 C
HETATM   22  C3  UNL     1      23.232  41.787   3.058  1.00  0.00     0.046 C
HETATM   23  C4  UNL     1      25.419  42.914   3.466  1.00  0.00     0.046 C
ENDBRANCH  19  20
ENDBRANCH   1  19
TORSDOF 5
ENDMDL