MODEL 1
REMARK VINA RESULT: -7.979200193      0.000      0.000
REMARK  5 active torsions:
REMARK  status: ('A' for Active; 'I' for Inactive)
REMARK    1  A    between atoms: C5_9  and  O1_10
REMARK    2  A    between atoms: C5_9  and  C6_12
REMARK    3  A    between atoms: C6_12  and  N2_13
REMARK       I    between atoms: N2_13  and  C7_15
REMARK    4  A    between atoms: C7_15  and  O3_17
REMARK    5  A    between atoms: O3_17  and  C8_18
ROOT
HETATM    1  C1  UNL     1      27.236  41.936  -0.137  1.00  0.00     0.150 C
HETATM    2  N1  UNL     1      26.441  41.109   0.688  1.00  0.00    -0.344 N
HETATM    3  C2  UNL     1      26.305  39.787   0.268  1.00  0.00     0.337 C
HETATM    4  F1  UNL     1      25.323  39.784  -0.741  1.00  0.00    -0.181 F
HETATM    5  F2  UNL     1      27.477  39.451  -0.433  1.00  0.00    -0.181 F
HETATM    6  C3  UNL     1      25.995  38.754   1.271  1.00  0.00     0.180 C
HETATM    7 CL1  UNL     1      27.490  37.791   1.561  1.00  0.00    -0.117 Cl
HETATM    8  C4  UNL     1      25.366  39.197   2.541  1.00  0.00     0.070 C
HETATM    9  C5  UNL     1      25.303  40.660   2.778  1.00  0.00     0.100 C
HETATM   10  C12 UNL     1      26.331  41.445   2.037  1.00  0.00     0.065 C
HETATM   11  C13 UNL     1      26.138  42.930   2.121  1.00  0.00     0.034 C
HETATM   12  C14 UNL     1      26.461  43.325   3.524  1.00  0.00     0.003 C
HETATM   13  C15 UNL     1      27.595  42.425   3.866  1.00  0.00     0.003 C
HETATM   14  C16 UNL     1      27.641  41.329   2.823  1.00  0.00     0.034 C
ENDROOT
BRANCH   9  15
HETATM   15  O1  UNL     1      25.586  40.844   4.155  1.00  0.00    -0.386 OA
ATOM     16  H1  UNL     1      25.266  40.065   4.594  1.00  0.00     0.210 HD
ENDBRANCH   9  15
BRANCH   9  17
HETATM   17  C6  UNL     1      23.901  41.194   2.610  1.00  0.00     0.165 C
BRANCH  17  18
HETATM   18  N2  UNL     1      23.123  41.109   3.832  1.00  0.00    -0.334 N
HETATM   19  C7  UNL     1      21.988  41.956   3.926  1.00  0.00     0.361 C
HETATM   20  O2  UNL     1      21.643  42.753   3.014  1.00  0.00    -0.238 OA
ATOM     21  H2  UNL     1      23.379  40.473   4.586  1.00  0.00     0.164 HD
BRANCH  19  22
HETATM   22  O3  UNL     1      21.218  41.920   5.053  1.00  0.00    -0.294 OA
BRANCH  22  23
HETATM   23  C8  UNL     1      20.614  40.768   5.592  1.00  0.00     0.061 C
HETATM   24  C9  UNL     1      19.463  40.265   4.749  1.00  0.00     0.046 C
HETATM   25  C10 UNL     1      21.573  39.660   5.876  1.00  0.00     0.046 C
HETATM   26  C11 UNL     1      20.005  41.190   6.933  1.00  0.00     0.046 C
ENDBRANCH  22  23
ENDBRANCH  19  22
ENDBRANCH  17  18
ENDBRANCH   9  17
TORSDOF 5
ENDMDL