MODEL 2
REMARK VINA RESULT: -5.337510871      2.351      3.201
REMARK  3 active torsions:
REMARK  status: ('A' for Active; 'I' for Inactive)
REMARK    1  A    between atoms: O1_1  and  C1_3
REMARK    2  A    between atoms: C1_3  and  C2_4
REMARK    3  A    between atoms: C2_4  and  N1_5
ROOT
HETATM    1  N1  UNL     1      25.563  42.214   2.624  1.00  0.00    -0.366 N
HETATM    2  C3  UNL     1      24.408  42.369   3.480  1.00  0.00     0.220 C
HETATM    3  S1  UNL     1      23.566  40.799   3.816  1.00  0.00    -0.035 SA
HETATM    4  N2  UNL     1      24.504  39.571   2.958  1.00  0.00    -0.327 N
ATOM      5  H2  UNL     1      24.543  38.617   3.315  1.00  0.00     0.174 HD
HETATM    6  C4  UNL     1      25.199  39.914   1.777  1.00  0.00     0.066 A
HETATM    7  C5  UNL     1      25.371  38.976   0.784  1.00  0.00     0.052 A
HETATM    8  C6  UNL     1      26.050  39.296  -0.379  1.00  0.00     0.030 A
HETATM    9 BR1  UNL     1      26.237  37.946  -1.689  1.00  0.00    -0.050 Br
HETATM   10  C7  UNL     1      26.552  40.570  -0.524  1.00  0.00     0.030 A
HETATM   11 BR2  UNL     1      27.483  40.986  -2.136  1.00  0.00    -0.050 Br
HETATM   12  C8  UNL     1      26.370  41.497   0.484  1.00  0.00     0.052 A
HETATM   13  C9  UNL     1      25.701  41.210   1.648  1.00  0.00     0.059 A
ENDROOT
BRANCH   1  14
HETATM   14  C2  UNL     1      26.633  43.169   2.801  1.00  0.00     0.150 C
BRANCH  14  15
HETATM   15  C1  UNL     1      27.639  42.696   3.865  1.00  0.00     0.183 C
BRANCH  15  16
HETATM   16  O1  UNL     1      27.431  43.413   5.045  1.00  0.00    -0.399 OA
ATOM     17  H1  UNL     1      26.624  43.118   5.452  1.00  0.00     0.209 HD
ENDBRANCH  15  16
ENDBRANCH  14  15
ENDBRANCH   1  14
TORSDOF 3
ENDMDL