MODEL 2
REMARK VINA RESULT: -7.270128810      2.249      2.791
REMARK  5 active torsions:
REMARK  status: ('A' for Active; 'I' for Inactive)
REMARK    1  A    between atoms: C2_2  and  O1_4
REMARK    2  A    between atoms: O1_4  and  C4_5
REMARK       I    between atoms: C4_5  and  N1_7
REMARK    3  A    between atoms: N1_7  and  N2_8
REMARK    4  A    between atoms: C5_10  and  C6_11
REMARK    5  A    between atoms: C7_12  and  O3_13
ROOT
HETATM    1  C6  UNL     1      25.061  41.760   3.060  1.00  0.00     0.080 C
HETATM    2  C7  UNL     1      24.438  40.386   3.184  1.00  0.00     0.130 C
HETATM    3  C8  UNL     1      25.245  39.485   2.281  1.00  0.00     0.055 C
HETATM    4  C9  UNL     1      26.548  40.175   2.007  1.00  0.00     0.038 C
HETATM    5  C10 UNL     1      27.703  39.336   2.487  1.00  0.00     0.029 C
HETATM    6 BR1  UNL     1      26.698  40.316   0.065  1.00  0.00    -0.084 Br
HETATM    7  C11 UNL     1      26.483  41.536   2.593  1.00  0.00     0.061 C
HETATM    8  C12 UNL     1      27.403  41.774   3.762  1.00  0.00     0.035 C
HETATM    9 CL1  UNL     1      26.918  42.740   1.328  1.00  0.00    -0.117 Cl
ENDROOT
BRANCH   1  10
HETATM   10  C5  UNL     1      24.354  42.566   2.054  1.00  0.00     0.103 C
HETATM   11  N2  UNL     1      23.131  42.678   2.032  1.00  0.00    -0.245 N
ATOM     12  H2  UNL     1      22.815  43.277   1.269  1.00  0.00     0.200 HD
BRANCH  11  13
HETATM   13  N1  UNL     1      22.143  42.224   2.738  1.00  0.00    -0.259 NA
HETATM   14  C4  UNL     1      21.119  41.754   3.468  1.00  0.00     0.458 C
HETATM   15  O2  UNL     1      19.974  41.308   3.081  1.00  0.00    -0.219 OA
BRANCH  14  16
HETATM   16  O1  UNL     1      21.179  41.684   4.908  1.00  0.00    -0.287 OA
BRANCH  16  17
HETATM   17  C2  UNL     1      20.585  40.619   5.616  1.00  0.00     0.126 C
HETATM   18  C1  UNL     1      20.016  41.160   6.892  1.00  0.00     0.040 C
HETATM   19  C3  UNL     1      21.731  39.647   6.020  1.00  0.00     0.040 C
ENDBRANCH  16  17
ENDBRANCH  14  16
ENDBRANCH  11  13
ENDBRANCH   1  10
BRANCH   2  20
HETATM   20  O3  UNL     1      24.496  39.874   4.474  1.00  0.00    -0.395 OA
ATOM     21  H3  UNL     1      23.799  39.256   4.662  1.00  0.00     0.210 HD
ENDBRANCH   2  20
TORSDOF 5
ENDMDL