MODEL 3
REMARK VINA RESULT: -6.202050671      2.168      6.128
REMARK  9 active torsions:
REMARK  status: ('A' for Active; 'I' for Inactive)
REMARK    1  A    between atoms: C2_2  and  C3_3
REMARK    2  A    between atoms: C3_3  and  C4_4
REMARK    3  A    between atoms: C3_3  and  C6_6
REMARK    4  A    between atoms: C6_6  and  C7_7
REMARK    5  A    between atoms: C6_6  and  N2_12
REMARK    6  A    between atoms: C7_7  and  N1_8
REMARK    7  A    between atoms: N2_12  and  C8_14
REMARK    8  A    between atoms: C8_14  and  C9_15
REMARK    9  A    between atoms: C9_15  and  C10_16
ROOT
HETATM    1  N2  UNL     1      17.363   4.674  14.956  1.00  0.00    -0.415 N
ATOM      2  H2  UNL     1      18.018   4.046  15.420  1.00  0.00     0.153 HD
ENDROOT
BRANCH   1   3
HETATM    3  C6  UNL     1      16.007   4.308  14.813  1.00  0.00     0.105 C
BRANCH   3   4
HETATM    4  C3  UNL     1      15.595   3.021  15.475  1.00  0.00     0.009 C
BRANCH   4   5
HETATM    5  C2  UNL     1      16.838   2.314  15.992  1.00  0.00     0.002 C
HETATM    6  C1  UNL     1      16.855   0.886  15.444  1.00  0.00     0.005 C
ENDBRANCH   4   5
BRANCH   4   7
HETATM    7  C4  UNL     1      14.609   3.245  16.595  1.00  0.00     0.002 C
HETATM    8  C5  UNL     1      13.840   1.999  16.959  1.00  0.00     0.005 C
ENDBRANCH   4   7
ENDBRANCH   3   4
BRANCH   3   9
HETATM    9  C7  UNL     1      15.018   5.425  15.114  1.00  0.00     0.254 C
BRANCH   9  10
HETATM   10  N1  UNL     1      14.273   5.876  13.989  1.00  0.00    -0.077 N
ATOM     11  H13 UNL     1      14.760   5.642  13.125  1.00  0.00     0.274 HD
ATOM     12  H12 UNL     1      13.431   5.313  13.874  1.00  0.00     0.274 HD
ATOM     13  H11 UNL     1      14.037   6.868  14.006  1.00  0.00     0.274 HD
ENDBRANCH   9  10
ENDBRANCH   3   9
ENDBRANCH   1   3
BRANCH   1  14
HETATM   14  C8  UNL     1      17.804   5.915  14.451  1.00  0.00     0.119 C
BRANCH  14  15
HETATM   15  C9  UNL     1      17.699   5.985  12.919  1.00  0.00     0.060 C
BRANCH  15  16
HETATM   16  C10 UNL     1      18.712   5.178  12.241  1.00  0.00    -0.026 A
HETATM   17  C11 UNL     1      18.492   3.941  11.693  1.00  0.00    -0.027 A
HETATM   18  C12 UNL     1      19.699   3.536  11.163  1.00  0.00     0.018 A
HETATM   19  C19 UNL     1      17.354   2.998  11.539  1.00  0.00     0.041 C
HETATM   20  N3  UNL     1      20.596   4.505  11.395  1.00  0.00    -0.357 N
HETATM   21  C16 UNL     1      19.741   2.215  10.501  1.00  0.00     0.058 C
HETATM   22  C13 UNL     1      21.993   4.401  10.962  1.00  0.00     0.156 C
HETATM   23  C14 UNL     1      20.031   5.523  12.050  1.00  0.00     0.014 A
HETATM   24  C15 UNL     1      20.757   6.759  12.462  1.00  0.00     0.069 C
HETATM   25  C17 UNL     1      18.933   1.158  11.180  1.00  0.00     0.006 C
HETATM   26  C18 UNL     1      17.832   1.657  12.053  1.00  0.00     0.005 C
ENDBRANCH  15  16
ENDBRANCH  14  15
ENDBRANCH   1  14
TORSDOF 9
ENDMDL