MODEL 3
REMARK VINA RESULT: -6.546672097      2.448      5.244
REMARK  7 active torsions:
REMARK  status: ('A' for Active; 'I' for Inactive)
REMARK    1  A    between atoms: S1_2  and  C2_3
REMARK    2  A    between atoms: C2_3  and  C3_4
REMARK    3  A    between atoms: C3_4  and  N1_5
REMARK       I    between atoms: N1_5  and  C4_7
REMARK    4  A    between atoms: C4_7  and  C5_9
REMARK    5  A    between atoms: C5_9  and  C6_10
REMARK    6  A    between atoms: C6_10  and  N2_11
REMARK    7  A    between atoms: N2_11  and  C7_13
ROOT
HETATM    1  C5  UNL     1      16.459   2.374  15.817  1.00  0.00     0.072 C
HETATM    2  C14 UNL     1      16.004   1.854  17.129  1.00  0.00     0.025 C
HETATM    3  C15 UNL     1      14.480   1.790  16.908  1.00  0.00     0.002 C
HETATM    4  C16 UNL     1      14.270   3.176  16.344  1.00  0.00     0.002 C
HETATM    5  C17 UNL     1      15.315   3.225  15.259  1.00  0.00     0.025 C
ENDROOT
BRANCH   1   6
HETATM    6  C4  UNL     1      16.594   1.214  14.866  1.00  0.00     0.231 C
HETATM    7  N1  UNL     1      16.861   1.417  13.500  1.00  0.00    -0.359 N
ATOM      8  H1  UNL     1      16.972   2.368  13.149  1.00  0.00     0.162 HD
HETATM    9  O1  UNL     1      16.462   0.067  15.323  1.00  0.00    -0.272 OA
BRANCH   7  10
HETATM   10  C3  UNL     1      16.982   0.312  12.587  1.00  0.00     0.132 C
BRANCH  10  11
HETATM   11  C2  UNL     1      17.074   0.734  11.146  1.00  0.00     0.093 C
BRANCH  11  12
HETATM   12  S1  UNL     1      17.896   2.359  11.013  1.00  0.00    -0.172 SA
HETATM   13  C1  UNL     1      19.688   2.108  11.048  1.00  0.00     0.089 C
ENDBRANCH  11  12
ENDBRANCH  10  11
ENDBRANCH   7  10
ENDBRANCH   1   6
BRANCH   1  14
HETATM   14  C6  UNL     1      17.692   3.221  15.829  1.00  0.00     0.075 C
BRANCH  14  15
HETATM   15  N2  UNL     1      18.053   3.888  14.665  1.00  0.00    -0.396 N
ATOM     16  H2  UNL     1      17.932   3.403  13.776  1.00  0.00     0.159 HD
BRANCH  15  17
HETATM   17  C7  UNL     1      18.571   5.181  14.642  1.00  0.00     0.085 C
HETATM   18  C8  UNL     1      19.072   5.420  13.201  1.00  0.00     0.030 C
HETATM   19  C9  UNL     1      18.062   6.318  12.544  1.00  0.00    -0.012 C
HETATM   20  C10 UNL     1      18.405   7.736  12.945  1.00  0.00     0.005 C
HETATM   21  C13 UNL     1      16.839   6.110  13.445  1.00  0.00     0.011 C
HETATM   22  C11 UNL     1      18.359   7.596  14.470  1.00  0.00     0.007 C
HETATM   23  C12 UNL     1      17.607   6.314  14.761  1.00  0.00     0.009 C
ENDBRANCH  15  17
ENDBRANCH  14  15
ENDBRANCH   1  14
TORSDOF 7
ENDMDL