MODEL 2
REMARK VINA RESULT: -7.217731926      1.514      1.846
REMARK  7 active torsions:
REMARK  status: ('A' for Active; 'I' for Inactive)
REMARK    1  A    between atoms: S1_2  and  C2_3
REMARK    2  A    between atoms: C2_3  and  C3_4
REMARK    3  A    between atoms: C3_4  and  C4_5
REMARK    4  A    between atoms: C4_5  and  N1_6
REMARK    5  A    between atoms: C4_5  and  C12_15
REMARK    6  A    between atoms: N1_6  and  C5_8
REMARK       I    between atoms: C12_15  and  N2_17
REMARK    7  A    between atoms: N2_17  and  C13_19
ROOT
HETATM    1  C4  UNL     1      17.378   4.379  13.147  1.00  0.00     0.074 C
ENDROOT
BRANCH   1   2
HETATM    2  C3  UNL     1      17.230   5.750  12.754  1.00  0.00     0.073 C
BRANCH   2   3
HETATM    3  C2  UNL     1      15.835   6.336  12.850  1.00  0.00     0.079 C
BRANCH   3   4
HETATM    4  S1  UNL     1      15.605   7.485  11.466  1.00  0.00    -0.173 SA
HETATM    5  C1  UNL     1      14.002   8.283  11.482  1.00  0.00     0.089 C
ENDBRANCH   3   4
ENDBRANCH   2   3
ENDBRANCH   1   2
BRANCH   1   6
HETATM    6  N1  UNL     1      18.269   3.463  12.561  1.00  0.00    -0.384 N
ATOM      7  H1  UNL     1      19.222   3.471  12.926  1.00  0.00     0.160 HD
BRANCH   6   8
HETATM    8  C5  UNL     1      18.022   2.569  11.571  1.00  0.00     0.086 C
HETATM    9  C6  UNL     1      18.922   1.468  11.154  1.00  0.00     0.030 C
HETATM   10  C7  UNL     1      18.129   0.179  11.414  1.00  0.00    -0.012 C
HETATM   11  C8  UNL     1      17.124   0.035  10.331  1.00  0.00     0.005 C
HETATM   12  C11 UNL     1      17.218   0.649  12.561  1.00  0.00     0.011 C
HETATM   13  C9  UNL     1      16.253   1.288  10.515  1.00  0.00     0.007 C
HETATM   14  C10 UNL     1      16.671   1.860  11.825  1.00  0.00     0.009 C
ENDBRANCH   6   8
ENDBRANCH   1   6
BRANCH   1  15
HETATM   15  C12 UNL     1      17.343   3.948  14.575  1.00  0.00     0.264 C
HETATM   16  O1  UNL     1      18.305   4.051  15.337  1.00  0.00    -0.266 OA
HETATM   17  N2  UNL     1      16.117   3.350  15.053  1.00  0.00    -0.351 N
ATOM     18  H2  UNL     1      15.333   3.301  14.401  1.00  0.00     0.163 HD
BRANCH  17  19
HETATM   19  C13 UNL     1      15.920   2.832  16.342  1.00  0.00     0.084 C
HETATM   20  C14 UNL     1      14.493   3.138  16.856  1.00  0.00     0.025 C
HETATM   21  C15 UNL     1      14.548   2.294  18.136  1.00  0.00     0.002 C
HETATM   22  C16 UNL     1      15.063   0.982  17.598  1.00  0.00     0.002 C
HETATM   23  C17 UNL     1      15.896   1.321  16.389  1.00  0.00     0.025 C
ENDBRANCH  17  19
ENDBRANCH   1  15
TORSDOF 7
ENDMDL