MODEL 1
REMARK VINA RESULT: -6.932216388      0.000      0.000
REMARK  8 active torsions:
REMARK  status: ('A' for Active; 'I' for Inactive)
REMARK    1  A    between atoms: C2_2  and  C3_3
REMARK    2  A    between atoms: C3_3  and  C4_4
REMARK    3  A    between atoms: C4_4  and  C5_5
REMARK    4  A    between atoms: C5_5  and  C6_6
REMARK    5  A    between atoms: C6_6  and  N1_7
REMARK    6  A    between atoms: C8_9  and  C9_10
REMARK    7  A    between atoms: C10_11  and  O1_12
REMARK    8  A    between atoms: C12_15  and  O2_16
ROOT
HETATM    1  N1  UNL     1      16.826   2.574  14.351  1.00  0.00    -0.331 N
HETATM    2  C7  UNL     1      16.546   3.811  14.957  1.00  0.00     0.081 C
HETATM    3  C8  UNL     1      16.611   5.063  14.129  1.00  0.00     0.018 C
HETATM    4  C11 UNL     1      17.735   5.899  14.745  1.00  0.00     0.051 C
HETATM    5  C12 UNL     1      19.102   5.390  14.375  1.00  0.00     0.119 C
HETATM    6  C13 UNL     1      19.283   5.257  12.883  1.00  0.00     0.036 C
HETATM    7  C14 UNL     1      18.009   5.752  12.193  1.00  0.00    -0.010 C
HETATM    8  C15 UNL     1      18.139   5.637  10.700  1.00  0.00     0.010 C
HETATM    9  C16 UNL     1      16.810   4.913  12.669  1.00  0.00     0.015 C
HETATM   10  C17 UNL     1      16.946   3.583  12.062  1.00  0.00     0.109 C
HETATM   11  C18 UNL     1      17.153   2.468  12.991  1.00  0.00     0.223 C
HETATM   12  O3  UNL     1      17.634   1.399  12.552  1.00  0.00    -0.273 OA
ENDROOT
BRANCH   1  13
HETATM   13  C6  UNL     1      16.772   1.374  15.140  1.00  0.00     0.131 C
BRANCH  13  14
HETATM   14  C5  UNL     1      16.574   1.621  16.600  1.00  0.00     0.020 C
BRANCH  14  15
HETATM   15  C4  UNL     1      15.329   0.958  17.143  1.00  0.00     0.002 C
BRANCH  15  16
HETATM   16  C3  UNL     1      14.072   1.758  16.915  1.00  0.00    -0.000 C
BRANCH  16  17
HETATM   17  C2  UNL     1      14.278   3.080  17.658  1.00  0.00    -0.005 C
HETATM   18  C1  UNL     1      14.631   2.868  19.098  1.00  0.00     0.005 C
ENDBRANCH  16  17
ENDBRANCH  15  16
ENDBRANCH  14  15
ENDBRANCH  13  14
ENDBRANCH   1  13
BRANCH   3  19
HETATM   19  C9  UNL     1      15.330   5.777  14.486  1.00  0.00     0.012 C
HETATM   20  C10 UNL     1      14.313   6.084  13.516  1.00  0.00     0.128 C
BRANCH  20  21
HETATM   21  O1  UNL     1      14.603   6.905  12.440  1.00  0.00    -0.373 OA
ATOM     22  H1  UNL     1      14.633   7.847  12.553  1.00  0.00     0.216 HD
ENDBRANCH  20  21
ENDBRANCH   3  19
BRANCH   5  23
HETATM   23  O2  UNL     1      19.516   4.280  15.097  1.00  0.00    -0.396 OA
ATOM     24  H2  UNL     1      20.296   3.858  14.757  1.00  0.00     0.210 HD
ENDBRANCH   5  23
TORSDOF 8
ENDMDL