MODEL 5
REMARK VINA RESULT: -6.513473054      2.968      6.000
REMARK  8 active torsions:
REMARK  status: ('A' for Active; 'I' for Inactive)
REMARK    1  A    between atoms: N2_6  and  C4_8
REMARK    2  A    between atoms: C4_8  and  C6_10
REMARK    3  A    between atoms: C6_10  and  C7_11
REMARK    4  A    between atoms: C7_11  and  C8_12
REMARK    5  A    between atoms: C8_12  and  C9_13
REMARK    6  A    between atoms: C9_13  and  C10_14
REMARK    7  A    between atoms: C10_14  and  C11_15
REMARK    8  A    between atoms: C13_19  and  N4_20
ROOT
HETATM    1  C1  UNL     1      14.994   5.454  14.944  1.00  0.00     0.064 C
HETATM    2  C2  UNL     1      15.802   5.321  13.903  1.00  0.00     0.127 A
HETATM    3  N1  UNL     1      16.192   6.446  13.118  1.00  0.00    -0.177 N
ATOM      4  H1  UNL     1      15.859   7.385  13.339  1.00  0.00     0.185 HD
HETATM    5  C3  UNL     1      17.059   6.213  12.019  1.00  0.00     0.694 A
HETATM    6  N2  UNL     1      17.427   7.215  11.292  1.00  0.00    -0.221 N
ATOM      7  H2  UNL     1      18.050   7.030  10.507  1.00  0.00     0.178 HD
HETATM    8  N3  UNL     1      17.494   4.896  11.752  1.00  0.00    -0.022 N
ATOM      9  H3  UNL     1      18.117   4.762  10.955  1.00  0.00     0.203 HD
HETATM   10  C13 UNL     1      17.173   3.856  12.425  1.00  0.00     0.696 A
HETATM   11  N5  UNL     1      16.303   4.048  13.537  1.00  0.00    -0.176 N
ATOM     12  H5  UNL     1      16.030   3.237  14.091  1.00  0.00     0.185 HD
ENDROOT
BRANCH   6  13
HETATM   13  C4  UNL     1      17.013   8.582  11.521  1.00  0.00     0.095 C
HETATM   14  C5  UNL     1      18.292   9.421  11.373  1.00  0.00     0.032 C
BRANCH  13  15
HETATM   15  C6  UNL     1      16.018   8.987  10.427  1.00  0.00     0.025 C
BRANCH  15  16
HETATM   16  C7  UNL     1      14.647   9.210  11.011  1.00  0.00     0.002 C
BRANCH  16  17
HETATM   17  C8  UNL     1      13.630   8.233  10.468  1.00  0.00     0.000 C
BRANCH  17  18
HETATM   18  C9  UNL     1      14.198   7.590   9.233  1.00  0.00     0.000 C
BRANCH  18  19
HETATM   19  C10 UNL     1      13.115   7.360   8.172  1.00  0.00    -0.000 C
BRANCH  19  20
HETATM   20  C11 UNL     1      12.127   8.498   8.362  1.00  0.00    -0.005 C
HETATM   21  C12 UNL     1      12.320   9.586   7.334  1.00  0.00     0.005 C
ENDBRANCH  19  20
ENDBRANCH  18  19
ENDBRANCH  17  18
ENDBRANCH  16  17
ENDBRANCH  15  16
ENDBRANCH  13  15
ENDBRANCH   6  13
BRANCH  10  22
HETATM   22  N4  UNL     1      17.644   2.549  12.108  1.00  0.00    -0.217 N
HETATM   23  C14 UNL     1      16.988   1.341  12.569  1.00  0.00     0.141 C
HETATM   24  C15 UNL     1      16.726   0.356  11.473  1.00  0.00     0.020 C
HETATM   25  C16 UNL     1      17.842   0.259  10.469  1.00  0.00     0.003 C
HETATM   26  C17 UNL     1      19.076   0.942  11.036  1.00  0.00     0.020 C
HETATM   27  C18 UNL     1      18.831   2.400  11.288  1.00  0.00     0.141 C
ENDBRANCH  10  22
TORSDOF 8
ENDMDL