MODEL 4
REMARK VINA RESULT: -6.504354623      3.158      7.138
REMARK  7 active torsions:
REMARK  status: ('A' for Active; 'I' for Inactive)
REMARK    1  A    between atoms: N1_2  and  C2_5
REMARK    2  A    between atoms: C2_5  and  C3_6
REMARK    3  A    between atoms: C3_6  and  C4_7
REMARK    4  A    between atoms: C4_7  and  C5_8
REMARK    5  A    between atoms: C5_8  and  C6_9
REMARK    6  A    between atoms: C12_15  and  C13_16
REMARK    7  A    between atoms: C13_16  and  N2_17
ROOT
HETATM    1  C5  UNL     1      19.183   6.832  13.375  1.00  0.00     0.064 C
HETATM    2  C10 UNL     1      17.743   7.187  13.005  1.00  0.00     0.039 C
HETATM    3  C11 UNL     1      16.861   5.955  13.024  1.00  0.00     0.011 C
HETATM    4  C12 UNL     1      16.941   5.492  14.483  1.00  0.00     0.027 C
HETATM    5  C18 UNL     1      18.350   5.092  14.707  1.00  0.00     0.175 C
HETATM    6  O1  UNL     1      19.290   5.540  13.873  1.00  0.00    -0.379 OA
ENDROOT
BRANCH   1   7
HETATM    7  C4  UNL     1      19.914   6.771  12.081  1.00  0.00     0.040 C
BRANCH   7   8
HETATM    8  C3  UNL     1      21.283   6.182  12.072  1.00  0.00     0.030 C
BRANCH   8   9
HETATM    9  C2  UNL     1      21.163   4.900  11.207  1.00  0.00     0.231 C
BRANCH   9  10
HETATM   10  N1  UNL     1      20.820   3.780  12.064  1.00  0.00    -0.079 N
HETATM   11  C1  UNL     1      19.895   2.937  11.336  1.00  0.00     0.266 C
ATOM     12  H12 UNL     1      20.459   4.072  12.973  1.00  0.00     0.276 HD
ATOM     13  H11 UNL     1      21.638   3.273  12.401  1.00  0.00     0.276 HD
ENDBRANCH   9  10
ENDBRANCH   8   9
ENDBRANCH   7   8
ENDBRANCH   1   7
BRANCH   1  14
HETATM   14  C6  UNL     1      19.557   7.734  14.444  1.00  0.00     0.020 C
HETATM   15  C7  UNL     1      20.292   8.993  14.317  1.00  0.00     0.007 C
HETATM   16  C8  UNL     1      19.671   9.368  15.691  1.00  0.00     0.001 C
HETATM   17  C9  UNL     1      18.502   8.478  15.218  1.00  0.00     0.007 C
ENDBRANCH   1  14
BRANCH   4  18
HETATM   18  C13 UNL     1      15.939   4.421  14.727  1.00  0.00     0.127 C
BRANCH  18  19
HETATM   19  N2  UNL     1      16.469   3.204  15.249  1.00  0.00    -0.380 N
HETATM   20  C14 UNL     1      15.806   2.613  16.195  1.00  0.00     0.072 C
HETATM   21  C15 UNL     1      14.518   3.053  16.828  1.00  0.00     0.077 C
HETATM   22  N3  UNL     1      16.134   1.399  16.865  1.00  0.00    -0.380 N
HETATM   23  C16 UNL     1      13.838   1.767  17.248  1.00  0.00     0.027 C
HETATM   24  C17 UNL     1      14.956   0.780  17.440  1.00  0.00     0.121 C
ATOM     25  H3  UNL     1      17.076   1.015  16.931  1.00  0.00     0.160 HD
ATOM     26  H2  UNL     1      17.340   2.812  14.891  1.00  0.00     0.160 HD
ENDBRANCH  18  19
ENDBRANCH   4  18
TORSDOF 7
ENDMDL