MODEL 5
REMARK VINA RESULT: -6.350515460      3.110      6.339
REMARK  7 active torsions:
REMARK  status: ('A' for Active; 'I' for Inactive)
REMARK    1  A    between atoms: S1_2  and  C2_3
REMARK    2  A    between atoms: C2_3  and  C3_4
REMARK    3  A    between atoms: C3_4  and  C4_5
REMARK    4  A    between atoms: C4_5  and  C5_6
REMARK       I    between atoms: C5_6  and  N1_8
REMARK    5  A    between atoms: N1_8  and  C6_10
REMARK    6  A    between atoms: C10_14  and  C11_15
REMARK    7  A    between atoms: C11_15  and  N2_16
ROOT
HETATM    1  C6  UNL     1      17.487   5.949  14.135  1.00  0.00     0.084 C
HETATM    2  C7  UNL     1      18.140   7.276  14.316  1.00  0.00     0.025 C
HETATM    3  C8  UNL     1      19.533   7.326  13.698  1.00  0.00     0.002 C
HETATM    4  C9  UNL     1      19.561   6.365  12.552  1.00  0.00     0.006 C
HETATM    5  C10 UNL     1      19.471   4.972  13.085  1.00  0.00     0.005 C
HETATM    6  C16 UNL     1      18.555   4.858  14.282  1.00  0.00     0.031 C
ENDROOT
BRANCH   1   7
HETATM    7  N1  UNL     1      16.431   5.792  15.085  1.00  0.00    -0.356 N
HETATM    8  C5  UNL     1      15.368   4.827  14.947  1.00  0.00     0.217 C
HETATM    9  O1  UNL     1      15.431   4.118  13.913  1.00  0.00    -0.274 OA
ATOM     10  H1  UNL     1      16.429   6.395  15.907  1.00  0.00     0.162 HD
BRANCH   8  11
HETATM   11  C4  UNL     1      14.313   4.713  15.954  1.00  0.00     0.103 C
BRANCH  11  12
HETATM   12  C3  UNL     1      14.540   3.723  17.038  1.00  0.00     0.019 C
BRANCH  12  13
HETATM   13  C2  UNL     1      14.105   2.326  16.760  1.00  0.00     0.074 C
BRANCH  13  14
HETATM   14  S1  UNL     1      15.454   1.128  16.989  1.00  0.00    -0.173 SA
HETATM   15  C1  UNL     1      16.908   1.688  16.061  1.00  0.00     0.089 C
ENDBRANCH  13  14
ENDBRANCH  12  13
ENDBRANCH  11  12
ENDBRANCH   8  11
ENDBRANCH   1   7
BRANCH   5  16
HETATM   16  C11 UNL     1      19.122   3.959  12.016  1.00  0.00     0.125 C
BRANCH  16  17
HETATM   17  N2  UNL     1      18.129   3.038  12.476  1.00  0.00    -0.380 N
HETATM   18  C12 UNL     1      17.996   1.835  12.070  1.00  0.00     0.072 C
HETATM   19  C13 UNL     1      18.785   1.082  11.059  1.00  0.00     0.077 C
HETATM   20  N3  UNL     1      17.000   0.935  12.541  1.00  0.00    -0.380 N
HETATM   21  C14 UNL     1      17.695   0.172  10.475  1.00  0.00     0.027 C
HETATM   22  C15 UNL     1      16.999  -0.275  11.739  1.00  0.00     0.121 C
ATOM     23  H3  UNL     1      16.377   1.115  13.329  1.00  0.00     0.160 HD
ATOM     24  H2  UNL     1      17.475   3.369  13.186  1.00  0.00     0.160 HD
ENDBRANCH  16  17
ENDBRANCH   5  16
TORSDOF 7
ENDMDL