MODEL 4
REMARK VINA RESULT: -6.533837514      1.956      6.074
REMARK  9 active torsions:
REMARK  status: ('A' for Active; 'I' for Inactive)
REMARK    1  A    between atoms: C2_2  and  O1_5
REMARK    2  A    between atoms: O1_5  and  C5_6
REMARK    3  A    between atoms: C5_6  and  C6_7
REMARK    4  A    between atoms: C6_7  and  C7_8
REMARK    5  A    between atoms: C7_8  and  C8_9
REMARK    6  A    between atoms: C8_9  and  C9_10
REMARK    7  A    between atoms: C9_10  and  C10_11
REMARK       I    between atoms: C10_11  and  N1_13
REMARK    8  A    between atoms: N1_13  and  C11_15
REMARK    9  A    between atoms: C17_21  and  N2_22
ROOT
HETATM    1  C10 UNL     1      17.080   5.243  10.929  1.00  0.00     0.218 C
HETATM    2  O2  UNL     1      16.126   6.046  10.760  1.00  0.00    -0.274 OA
HETATM    3  N1  UNL     1      17.450   4.811  12.235  1.00  0.00    -0.351 N
ATOM      4  H1  UNL     1      18.228   4.160  12.344  1.00  0.00     0.163 HD
ENDROOT
BRANCH   3   5
HETATM    5  C11 UNL     1      16.779   5.256  13.353  1.00  0.00     0.043 C
HETATM    6  C12 UNL     1      16.900   6.715  13.770  1.00  0.00     0.037 C
HETATM    7  C13 UNL     1      16.545   6.142  15.149  1.00  0.00    -0.003 C
HETATM    8  C14 UNL     1      15.127   5.710  14.899  1.00  0.00     0.012 C
HETATM    9  C18 UNL     1      17.380   4.948  14.734  1.00  0.00     0.049 C
HETATM   10  C15 UNL     1      15.372   4.842  13.648  1.00  0.00     0.016 C
HETATM   11  C16 UNL     1      15.564   3.438  14.175  1.00  0.00     0.040 C
HETATM   12  C17 UNL     1      16.726   3.674  15.151  1.00  0.00     0.190 C
BRANCH  12  13
HETATM   13  N2  UNL     1      17.637   2.560  15.147  1.00  0.00    -0.075 N
ATOM     14  H23 UNL     1      17.763   2.173  16.083  1.00  0.00     0.274 HD
ATOM     15  H22 UNL     1      17.229   1.741  14.695  1.00  0.00     0.274 HD
ATOM     16  H21 UNL     1      18.529   2.818  14.724  1.00  0.00     0.274 HD
ENDBRANCH  12  13
ENDBRANCH   3   5
BRANCH   1  17
HETATM   17  C9  UNL     1      17.786   4.780   9.711  1.00  0.00     0.103 C
BRANCH  17  18
HETATM   18  C8  UNL     1      19.265   4.866   9.770  1.00  0.00     0.009 C
BRANCH  18  19
HETATM   19  C7  UNL     1      20.013   3.584   9.821  1.00  0.00     0.002 C
BRANCH  19  20
HETATM   20  C6  UNL     1      20.243   3.083  11.232  1.00  0.00     0.026 C
BRANCH  20  21
HETATM   21  C5  UNL     1      19.531   1.753  11.351  1.00  0.00     0.168 C
BRANCH  21  22
HETATM   22  O1  UNL     1      18.323   1.908  12.027  1.00  0.00    -0.381 OA
BRANCH  22  23
HETATM   23  C2  UNL     1      17.364   1.010  11.640  1.00  0.00     0.050 C
HETATM   24  C1  UNL     1      16.155   1.664  11.010  1.00  0.00     0.045 C
HETATM   25  C3  UNL     1      17.982   0.122  10.564  1.00  0.00     0.045 C
HETATM   26  C4  UNL     1      16.885   0.111  12.734  1.00  0.00     0.045 C
ENDBRANCH  22  23
ENDBRANCH  21  22
ENDBRANCH  20  21
ENDBRANCH  19  20
ENDBRANCH  18  19
ENDBRANCH  17  18
ENDBRANCH   1  17
TORSDOF 9
ENDMDL