MODEL 4
REMARK VINA RESULT: -6.907852778      0.472      1.146
REMARK  8 active torsions:
REMARK  status: ('A' for Active; 'I' for Inactive)
REMARK    1  A    between atoms: C3_3  and  N1_4
REMARK    2  A    between atoms: N1_4  and  C4_6
REMARK    3  A    between atoms: C4_6  and  C5_7
REMARK    4  A    between atoms: C5_7  and  N2_8
REMARK    5  A    between atoms: N2_8  and  C6_10
REMARK    6  A    between atoms: C6_10  and  C7_11
REMARK    7  A    between atoms: C7_11  and  N3_12
REMARK    8  A    between atoms: N3_12  and  C8_15
ROOT
HETATM    1  C7  UNL     1      20.237   3.878  11.408  1.00  0.00     0.277 C
ENDROOT
BRANCH   1   2
HETATM    2  C6  UNL     1      19.908   2.505  10.974  1.00  0.00     0.082 C
BRANCH   2   3
HETATM    3  N2  UNL     1      19.014   1.733  11.735  1.00  0.00    -0.399 N
ATOM      4  H2  UNL     1      19.358   1.138  12.489  1.00  0.00     0.158 HD
BRANCH   3   5
HETATM    5  C5  UNL     1      17.626   1.792  11.442  1.00  0.00     0.138 C
BRANCH   5   6
HETATM    6  C4  UNL     1      16.918   1.091  12.622  1.00  0.00     0.139 C
BRANCH   6   7
HETATM    7  N1  UNL     1      17.329   1.901  13.779  1.00  0.00    -0.392 N
ATOM      8  H1  UNL     1      18.262   2.310  13.825  1.00  0.00     0.159 HD
BRANCH   7   9
HETATM    9  C3  UNL     1      16.484   2.079  14.727  1.00  0.00     0.004 C
HETATM   10  C2  UNL     1      16.378   1.135  15.814  1.00  0.00     0.020 C
HETATM   11  C1  UNL     1      15.728   1.475  16.899  1.00  0.00    -0.025 C
HETATM   12  C20 UNL     1      15.078   2.771  17.115  1.00  0.00     0.027 C
HETATM   13  C19 UNL     1      14.798   3.547  15.879  1.00  0.00     0.010 C
HETATM   14  C18 UNL     1      15.633   3.272  14.692  1.00  0.00     0.057 C
ENDBRANCH   7   9
ENDBRANCH   6   7
ENDBRANCH   5   6
ENDBRANCH   3   5
ENDBRANCH   2   3
ENDBRANCH   1   2
BRANCH   1  15
HETATM   15  N3  UNL     1      19.979   4.200  12.770  1.00  0.00    -0.062 N
ATOM     16  H32 UNL     1      19.558   3.410  13.260  1.00  0.00     0.278 HD
ATOM     17  H31 UNL     1      20.847   4.277  13.300  1.00  0.00     0.278 HD
BRANCH  15  18
HETATM   18  C8  UNL     1      19.167   5.401  12.916  1.00  0.00     0.127 C
HETATM   19  C9  UNL     1      18.040   5.509  11.946  1.00  0.00     0.043 C
HETATM   20  C10 UNL     1      17.249   6.758  12.273  1.00  0.00    -0.012 C
HETATM   21  C11 UNL     1      16.606   6.562  13.622  1.00  0.00     0.009 C
HETATM   22  C15 UNL     1      18.075   8.009  12.228  1.00  0.00     0.009 C
HETATM   23  C12 UNL     1      17.705   6.502  14.646  1.00  0.00    -0.012 C
HETATM   24  C13 UNL     1      18.585   7.731  14.601  1.00  0.00     0.009 C
HETATM   25  C17 UNL     1      18.572   5.310  14.335  1.00  0.00     0.043 C
HETATM   26  C14 UNL     1      19.202   7.845  13.243  1.00  0.00    -0.012 C
HETATM   27  C16 UNL     1      20.035   6.616  12.887  1.00  0.00     0.043 C
ENDBRANCH  15  18
ENDBRANCH   1  15
TORSDOF 8
ENDMDL