MODEL 1
REMARK VINA RESULT: -6.912151369      0.000      0.000
REMARK  2 active torsions:
REMARK  status: ('A' for Active; 'I' for Inactive)
REMARK    1  A    between atoms: C2_2  and  C3_3
REMARK    2  A    between atoms: C6_6  and  C7_7
ROOT
HETATM    1  C3  UNL     1      18.485   2.941  12.138  1.00  0.00     0.186 C
HETATM    2  C4  UNL     1      17.372   3.791  11.626  1.00  0.00     0.035 C
HETATM    3  C5  UNL     1      16.226   3.513  12.608  1.00  0.00     0.035 C
HETATM    4  C6  UNL     1      16.991   2.964  13.762  1.00  0.00     0.191 C
HETATM    5  N1  UNL     1      17.856   2.004  13.056  1.00  0.00    -0.066 N
ATOM      6  H11 UNL     1      18.479   1.438  13.632  1.00  0.00     0.278 HD
ATOM      7  H12 UNL     1      17.397   1.194  12.640  1.00  0.00     0.278 HD
ENDROOT
BRANCH   4   8
HETATM    8  C7  UNL     1      16.181   2.327  14.828  1.00  0.00     0.025 A
HETATM    9  C8  UNL     1      15.865   3.288  15.984  1.00  0.00     0.002 A
HETATM   10  C9  UNL     1      14.536   3.105  16.672  1.00  0.00     0.084 C
HETATM   11  C12 UNL     1      16.667   2.060  16.185  1.00  0.00     0.002 A
HETATM   12  C10 UNL     1      14.759   2.007  17.665  1.00  0.00     0.244 C
HETATM   13  F1  UNL     1      15.111   2.491  18.909  1.00  0.00    -0.206 F
HETATM   14  F2  UNL     1      13.630   1.212  17.844  1.00  0.00    -0.206 F
HETATM   15  C11 UNL     1      15.833   1.156  17.059  1.00  0.00     0.084 C
ENDBRANCH   4   8
BRANCH   1  16
HETATM   16  C2  UNL     1      19.279   2.251  11.072  1.00  0.00     0.028 C
HETATM   17  C1  UNL     1      19.156   0.758  11.110  1.00  0.00     0.007 C
ENDBRANCH   1  16
TORSDOF 2
ENDMDL