MODEL 1
REMARK VINA RESULT: -5.347995538      0.000      0.000
REMARK  3 active torsions:
REMARK  status: ('A' for Active; 'I' for Inactive)
REMARK    1  A    between atoms: C2_2  and  N1_3
REMARK    2  A    between atoms: N1_3  and  C3_5
REMARK    3  A    between atoms: C3_5  and  C4_7
ROOT
HETATM    1  C4  UNL     1      16.313   5.290  13.294  1.00  0.00     0.082 C
HETATM    2  C5  UNL     1      16.200   6.642  12.576  1.00  0.00     0.030 C
HETATM    3  C6  UNL     1      17.157   5.464  14.524  1.00  0.00    -0.023 C
HETATM    4  C7  UNL     1      17.709   4.270  15.215  1.00  0.00     0.016 C
HETATM    5  C8  UNL     1      18.214   6.546  14.415  1.00  0.00     0.016 C
HETATM    6  C9  UNL     1      15.888   5.891  15.251  1.00  0.00     0.090 C
HETATM    7  C10 UNL     1      15.131   5.106  14.169  1.00  0.00     0.258 C
HETATM    8  F1  UNL     1      14.766   3.847  14.523  1.00  0.00    -0.205 F
HETATM    9  F2  UNL     1      13.984   5.837  13.826  1.00  0.00    -0.205 F
ENDROOT
BRANCH   1  10
HETATM   10  C3  UNL     1      16.722   4.238  12.367  1.00  0.00     0.088 C
HETATM   11  S1  UNL     1      17.919   4.505  11.238  1.00  0.00    -0.065 SA
BRANCH  10  12
HETATM   12  N1  UNL     1      16.152   2.950  12.337  1.00  0.00    -0.384 N
ATOM     13  H1  UNL     1      15.135   2.911  12.272  1.00  0.00     0.160 HD
BRANCH  12  14
HETATM   14  C2  UNL     1      16.830   1.688  12.387  1.00  0.00     0.116 C
HETATM   15  C1  UNL     1      16.547   0.848  11.140  1.00  0.00     0.026 C
ENDBRANCH  12  14
ENDBRANCH  10  12
ENDBRANCH   1  10
TORSDOF 3
ENDMDL