MODEL 3
REMARK VINA RESULT: -6.702704690      2.629      5.481
REMARK  3 active torsions:
REMARK  status: ('A' for Active; 'I' for Inactive)
REMARK    1  A    between atoms: C3_3  and  O1_6
REMARK    2  A    between atoms: O1_6  and  C6_7
REMARK    3  A    between atoms: C6_7  and  C7_8
ROOT
HETATM    1  C1  UNL     1      16.899   1.241  15.834  1.00  0.00     0.015 C
HETATM    2  C2  UNL     1      16.661   2.284  15.281  1.00  0.00    -0.080 C
HETATM    3  C3  UNL     1      16.376   3.578  14.624  1.00  0.00     0.115 C
HETATM    4  C4  UNL     1      17.598   4.442  14.756  1.00  0.00     0.060 C
HETATM    5  C5  UNL     1      15.245   4.207  15.407  1.00  0.00     0.060 C
ENDROOT
BRANCH   3   6
HETATM    6  O1  UNL     1      15.962   3.391  13.328  1.00  0.00    -0.368 OA
BRANCH   6   7
HETATM    7  C6  UNL     1      16.935   3.848  12.467  1.00  0.00     0.174 C
BRANCH   7   8
HETATM    8  C7  UNL     1      17.370   2.800  11.459  1.00  0.00     0.010 C
HETATM    9  C8  UNL     1      18.636   2.128  11.857  1.00  0.00     0.013 C
HETATM   10  C9  UNL     1      18.870   0.857  11.110  1.00  0.00     0.079 C
HETATM   11  C10 UNL     1      17.695  -0.067  11.444  1.00  0.00     0.243 C
HETATM   12  F1  UNL     1      17.478   0.068  12.806  1.00  0.00    -0.206 F
HETATM   13  F2  UNL     1      17.915  -1.349  11.054  1.00  0.00    -0.206 F
HETATM   14  C11 UNL     1      16.502   0.550  10.735  1.00  0.00     0.079 C
HETATM   15  C12 UNL     1      16.209   1.910  11.230  1.00  0.00     0.013 C
ENDBRANCH   7   8
ENDBRANCH   6   7
ENDBRANCH   3   6
TORSDOF 3
ENDMDL