MODEL 4
REMARK VINA RESULT: -5.964010769      2.825      4.389
REMARK  2 active torsions:
REMARK  status: ('A' for Active; 'I' for Inactive)
REMARK    1  A    between atoms: C2_2  and  N1_3
REMARK    2  A    between atoms: N1_3  and  C3_5
ROOT
HETATM    1  C3  UNL     1      17.516   3.653  12.817  1.00  0.00     0.085 C
HETATM    2  C4  UNL     1      17.867   4.844  13.702  1.00  0.00     0.009 C
HETATM    3  C5  UNL     1      16.864   5.935  13.392  1.00  0.00     0.007 C
HETATM    4  C6  UNL     1      15.496   5.343  13.661  1.00  0.00     0.006 C
HETATM    5  C7  UNL     1      15.513   3.971  14.228  1.00  0.00     0.001 C
HETATM    6  C8  UNL     1      16.371   2.970  13.477  1.00  0.00     0.018 C
HETATM    7  C9  UNL     1      16.777   1.988  14.541  1.00  0.00     0.086 C
HETATM    8  C10 UNL     1      16.233   2.552  15.866  1.00  0.00     0.248 C
HETATM    9  F1  UNL     1      17.011   2.191  16.930  1.00  0.00    -0.206 F
HETATM   10  F2  UNL     1      14.934   2.172  15.985  1.00  0.00    -0.206 F
HETATM   11  C11 UNL     1      16.322   4.035  15.536  1.00  0.00     0.063 C
HETATM   12  C12 UNL     1      17.697   4.480  15.178  1.00  0.00     0.017 C
ENDROOT
BRANCH   1  13
HETATM   13  N1  UNL     1      18.597   2.891  12.360  1.00  0.00    -0.417 N
ATOM     14  H1  UNL     1      19.473   2.836  12.878  1.00  0.00     0.153 HD
BRANCH  13  15
HETATM   15  C2  UNL     1      18.402   2.192  11.127  1.00  0.00     0.110 C
HETATM   16  C1  UNL     1      19.108   0.841  11.132  1.00  0.00     0.026 C
ENDBRANCH  13  15
ENDBRANCH   1  13
TORSDOF 2
ENDMDL