MODEL 4
REMARK VINA RESULT: -6.589100772      3.097      4.465
REMARK  2 active torsions:
REMARK  status: ('A' for Active; 'I' for Inactive)
REMARK    1  A    between atoms: C4_6  and  N1_7
REMARK    2  A    between atoms: N1_7  and  C5_10
ROOT
HETATM    1  N1  UNL     1      15.845   3.612  14.613  1.00  0.00    -0.066 N
ATOM      2  H11 UNL     1      15.057   3.982  14.082  1.00  0.00     0.278 HD
ATOM      3  H12 UNL     1      16.370   3.214  13.834  1.00  0.00     0.278 HD
ENDROOT
BRANCH   1   4
HETATM    4  C4  UNL     1      15.439   2.608  15.572  1.00  0.00     0.192 C
HETATM    5  C3  UNL     1      16.625   2.023  16.317  1.00  0.00     0.039 C
HETATM    6  C2  UNL     1      15.940   1.354  17.492  1.00  0.00     0.081 C
HETATM    7  C1  UNL     1      14.684   2.166  17.765  1.00  0.00     0.245 C
HETATM    8  F1  UNL     1      14.680   2.671  19.057  1.00  0.00    -0.206 F
HETATM    9  F2  UNL     1      13.578   1.371  17.516  1.00  0.00    -0.206 F
HETATM   10  C12 UNL     1      14.697   3.274  16.739  1.00  0.00     0.112 C
ENDBRANCH   1   4
BRANCH   1  11
HETATM   11  C5  UNL     1      16.589   4.661  15.305  1.00  0.00     0.188 C
HETATM   12  C6  UNL     1      17.817   5.042  14.503  1.00  0.00     0.042 C
HETATM   13  C7  UNL     1      17.289   6.419  14.423  1.00  0.00    -0.037 C
HETATM   14  C8  UNL     1      18.087   7.536  15.014  1.00  0.00     0.010 C
HETATM   15  C10 UNL     1      17.298   7.129  13.123  1.00  0.00     0.010 C
HETATM   16  C11 UNL     1      16.003   6.056  15.047  1.00  0.00     0.042 C
HETATM   17  C9  UNL     1      18.599   7.788  13.595  1.00  0.00     0.002 C
ENDBRANCH   1  11
TORSDOF 2
ENDMDL