MODEL 4
REMARK VINA RESULT: -6.687124212      3.654      5.869
REMARK  2 active torsions:
REMARK  status: ('A' for Active; 'I' for Inactive)
REMARK    1  A    between atoms: C5_5  and  N1_6
REMARK    2  A    between atoms: N1_6  and  C6_9
ROOT
HETATM    1  N1  UNL     1      17.031   3.729  12.561  1.00  0.00    -0.066 N
ATOM      2  H11 UNL     1      16.489   3.916  11.717  1.00  0.00     0.278 HD
ATOM      3  H12 UNL     1      17.718   4.475  12.449  1.00  0.00     0.278 HD
ENDROOT
BRANCH   1   4
HETATM    4  C5  UNL     1      17.636   2.395  12.563  1.00  0.00     0.186 C
HETATM    5  C4  UNL     1      18.767   2.360  11.586  1.00  0.00     0.033 C
HETATM    6  C3  UNL     1      19.152   0.989  11.155  1.00  0.00     0.006 C
HETATM    7  C2  UNL     1      18.032   0.104  10.731  1.00  0.00    -0.019 C
HETATM    8  C1  UNL     1      18.262  -1.290  11.331  1.00  0.00     0.010 C
HETATM    9  C12 UNL     1      16.671   0.590  11.105  1.00  0.00     0.006 C
HETATM   10  C11 UNL     1      16.620   1.317  12.406  1.00  0.00     0.033 C
ENDBRANCH   1   4
BRANCH   1  11
HETATM   11  C6  UNL     1      16.251   3.865  13.764  1.00  0.00     0.201 C
HETATM   12  C7  UNL     1      15.321   5.057  13.796  1.00  0.00     0.113 C
HETATM   13  C8  UNL     1      15.684   5.202  15.258  1.00  0.00     0.250 C
HETATM   14  F1  UNL     1      15.894   6.493  15.684  1.00  0.00    -0.206 F
HETATM   15  F2  UNL     1      14.741   4.526  16.022  1.00  0.00    -0.206 F
HETATM   16  C9  UNL     1      16.942   4.419  14.960  1.00  0.00     0.085 C
HETATM   17  C10 UNL     1      18.094   5.354  14.702  1.00  0.00     0.018 C
ENDBRANCH   1  11
TORSDOF 2
ENDMDL