MODEL 2
REMARK VINA RESULT: -6.495854950      3.010      4.307
REMARK  2 active torsions:
REMARK  status: ('A' for Active; 'I' for Inactive)
REMARK    1  A    between atoms: C5_7  and  N1_8
REMARK    2  A    between atoms: N1_8  and  C6_11
ROOT
HETATM    1  N1  UNL     1      15.511   3.081  14.494  1.00  0.00    -0.060 N
ATOM      2  H11 UNL     1      14.539   2.984  14.202  1.00  0.00     0.278 HD
ATOM      3  H12 UNL     1      15.881   2.284  13.977  1.00  0.00     0.278 HD
ENDROOT
BRANCH   1   4
HETATM    4  C5  UNL     1      15.694   2.965  15.941  1.00  0.00     0.258 C
HETATM    5  C1  UNL     1      16.404   1.701  16.332  1.00  0.00     0.271 C
HETATM    6  F1  UNL     1      17.752   1.918  16.582  1.00  0.00    -0.204 F
HETATM    7  F2  UNL     1      16.275   0.704  15.397  1.00  0.00    -0.204 F
HETATM    8  C2  UNL     1      15.731   1.341  17.651  1.00  0.00     0.081 C
HETATM    9  C3  UNL     1      14.281   1.630  17.356  1.00  0.00     0.008 C
HETATM   10  C4  UNL     1      14.372   2.981  16.670  1.00  0.00     0.039 C
ENDBRANCH   1   4
BRANCH   1  11
HETATM   11  C6  UNL     1      16.097   4.328  14.102  1.00  0.00     0.191 C
HETATM   12  C7  UNL     1      17.216   4.773  15.044  1.00  0.00     0.038 C
HETATM   13  C8  UNL     1      16.959   6.255  15.082  1.00  0.00    -0.012 C
HETATM   14  C9  UNL     1      17.033   6.788  13.679  1.00  0.00     0.005 C
HETATM   15  C12 UNL     1      15.446   6.236  15.300  1.00  0.00     0.011 C
HETATM   16  C10 UNL     1      15.702   6.453  13.009  1.00  0.00     0.007 C
HETATM   17  C11 UNL     1      15.133   5.471  14.016  1.00  0.00     0.017 C
ENDBRANCH   1  11
TORSDOF 2
ENDMDL