MODEL 5
REMARK VINA RESULT: -5.889110582      3.409      4.605
REMARK  3 active torsions:
REMARK  status: ('A' for Active; 'I' for Inactive)
REMARK    1  A    between atoms: C1_2  and  C2_4
REMARK    2  A    between atoms: C2_4  and  N1_5
REMARK    3  A    between atoms: N1_5  and  C3_7
ROOT
HETATM    1  C3  UNL     1      16.716   2.848  13.239  1.00  0.00     0.030 C
HETATM    2  C4  UNL     1      17.888   3.751  13.330  1.00  0.00     0.035 C
HETATM    3  C5  UNL     1      17.853   4.422  14.698  1.00  0.00    -0.012 C
HETATM    4  C6  UNL     1      16.625   5.267  14.896  1.00  0.00     0.009 C
HETATM    5  C7  UNL     1      15.410   4.371  14.750  1.00  0.00    -0.012 C
HETATM    6  C8  UNL     1      15.381   3.281  15.780  1.00  0.00     0.009 C
HETATM    7  C9  UNL     1      16.675   2.489  15.711  1.00  0.00    -0.012 C
HETATM    8  C10 UNL     1      17.862   3.402  15.832  1.00  0.00     0.009 C
HETATM    9  C11 UNL     1      16.786   1.812  14.364  1.00  0.00     0.035 C
HETATM   10  C12 UNL     1      15.475   3.740  13.401  1.00  0.00     0.035 C
ENDROOT
BRANCH   1  11
HETATM   11  N1  UNL     1      16.506   2.134  12.024  1.00  0.00    -0.388 N
ATOM     12  H1  UNL     1      16.137   2.599  11.194  1.00  0.00     0.159 HD
BRANCH  11  13
HETATM   13  C2  UNL     1      16.825   0.768  12.009  1.00  0.00     0.126 C
BRANCH  13  14
HETATM   14  C1  UNL     1      18.023   0.547  11.094  1.00  0.00     0.391 C
HETATM   15  F1  UNL     1      19.206   1.002  11.627  1.00  0.00    -0.209 F
HETATM   16  F2  UNL     1      18.132  -0.784  10.737  1.00  0.00    -0.209 F
ENDBRANCH  13  14
ENDBRANCH  11  13
ENDBRANCH   1  11
TORSDOF 3
ENDMDL