MODEL 2
REMARK VINA RESULT: -6.269246527      0.287      1.200
REMARK  2 active torsions:
REMARK  status: ('A' for Active; 'I' for Inactive)
REMARK    1  A    between atoms: C2_2  and  N1_3
REMARK    2  A    between atoms: C2_2  and  C8_12
ROOT
HETATM    1  N1  UNL     1      16.374   3.264  14.844  1.00  0.00    -0.369 N
ATOM      2  H1  UNL     1      16.349   2.858  13.908  1.00  0.00     0.165 HD
HETATM    3  C3  UNL     1      15.757   2.507  15.781  1.00  0.00    -0.008 C
HETATM    4  C4  UNL     1      14.546   3.174  16.479  1.00  0.00     0.058 C
HETATM    5  C5  UNL     1      13.984   1.924  17.175  1.00  0.00     0.085 C
HETATM    6  C6  UNL     1      15.249   1.415  17.844  1.00  0.00     0.248 C
HETATM    7  F1  UNL     1      15.201   0.082  18.140  1.00  0.00    -0.206 F
HETATM    8  F2  UNL     1      15.426   2.165  19.008  1.00  0.00    -0.206 F
HETATM    9  C7  UNL     1      16.373   1.763  16.859  1.00  0.00     0.131 C
ENDROOT
BRANCH   1  10
HETATM   10  C2  UNL     1      17.028   4.471  14.904  1.00  0.00    -0.010 C
HETATM   11  C1  UNL     1      18.513   4.445  15.194  1.00  0.00     0.064 C
BRANCH  10  12
HETATM   12  C8  UNL     1      16.614   5.592  13.993  1.00  0.00    -0.013 C
HETATM   13  C9  UNL     1      16.693   5.076  12.570  1.00  0.00     0.021 C
HETATM   14  C10 UNL     1      15.112   5.911  14.198  1.00  0.00     0.021 C
HETATM   15  C11 UNL     1      17.314   6.877  14.131  1.00  0.00     0.021 C
ENDBRANCH  10  12
ENDBRANCH   1  10
TORSDOF 2
ENDMDL