MODEL 2
REMARK VINA RESULT: -8.626133138      2.156      2.582
REMARK  8 active torsions:
REMARK  status: ('A' for Active; 'I' for Inactive)
REMARK    1  A    between atoms: C4_4  and  N1_5
REMARK    2  A    between atoms: N1_5  and  C5_7
REMARK    3  A    between atoms: C7_9  and  C8_10
REMARK    4  A    between atoms: C11_19  and  N5_20
REMARK    5  A    between atoms: N5_20  and  C12_22
REMARK    6  A    between atoms: C13_25  and  N7_26
REMARK    7  A    between atoms: N7_26  and  C14_28
REMARK    8  A    between atoms: C14_28  and  C15_29
ROOT
HETATM    1  C12 UNL     1      -2.409   4.135  10.512  1.00  0.00     0.161 A
HETATM    2  N6  UNL     1      -2.729   2.955  11.051  1.00  0.00    -0.174 N
ATOM      3  H6  UNL     1      -3.706   2.771  11.277  1.00  0.00     0.186 HD
HETATM    4  C13 UNL     1      -1.815   1.997  11.310  1.00  0.00     0.680 A
HETATM    5  N8  UNL     1      -0.529   2.265  11.002  1.00  0.00    -0.180 N
ATOM      6  H8  UNL     1       0.167   1.546  11.195  1.00  0.00     0.185 HD
HETATM    7  C18 UNL     1      -0.109   3.414  10.460  1.00  0.00     0.155 A
HETATM    8  C19 UNL     1       1.268   3.670  10.143  1.00  0.00     0.120 C
HETATM    9  N9  UNL     1       2.384   3.866   9.891  1.00  0.00    -0.190 NA
HETATM   10  C20 UNL     1      -1.088   4.383  10.206  1.00  0.00     0.117 A
HETATM   11 CL1  UNL     1      -0.665   5.915   9.505  1.00  0.00    -0.077 Cl
ENDROOT
BRANCH   4  12
HETATM   12  N7  UNL     1      -2.143   0.863  11.832  1.00  0.00    -0.226 N
ATOM     13  H7  UNL     1      -1.504   0.070  11.815  1.00  0.00     0.177 HD
BRANCH  12  14
HETATM   14  C14 UNL     1      -3.452   0.757  12.442  1.00  0.00     0.142 C
BRANCH  14  15
HETATM   15  C15 UNL     1      -4.202  -0.461  11.945  1.00  0.00    -0.004 C
HETATM   16  C16 UNL     1      -3.179  -1.487  11.506  1.00  0.00     0.011 C
HETATM   17  C17 UNL     1      -4.940  -0.021  10.675  1.00  0.00     0.011 C
ENDBRANCH  14  15
ENDBRANCH  12  14
ENDBRANCH   4  12
BRANCH   1  18
HETATM   18  N5  UNL     1      -3.394   5.124  10.252  1.00  0.00    -0.174 N
ATOM     19  H5  UNL     1      -3.517   5.485   9.305  1.00  0.00     0.186 HD
BRANCH  18  20
HETATM   20  C11 UNL     1      -4.136   5.566  11.212  1.00  0.00     0.685 A
HETATM   21  N4  UNL     1      -3.804   5.263  12.481  1.00  0.00    -0.176 N
HETATM   22  C4  UNL     1      -4.537   5.694  13.542  1.00  0.00     0.124 A
ATOM     23  H4  UNL     1      -2.976   4.692  12.651  1.00  0.00     0.186 HD
HETATM   24  C3  UNL     1      -5.637   6.456  13.252  1.00  0.00     0.074 A
HETATM   25  C2  UNL     1      -6.010   6.788  11.966  1.00  0.00     0.026 A
HETATM   26  C1  UNL     1      -7.212   7.619  11.691  1.00  0.00     0.069 C
HETATM   27  N10 UNL     1      -5.231   6.322  10.971  1.00  0.00    -0.196 N
ATOM     28  H10 UNL     1      -5.473   6.546  10.006  1.00  0.00     0.184 HD
BRANCH  22  29
HETATM   29  N1  UNL     1      -4.127   5.335  14.849  1.00  0.00    -0.327 N
ATOM     30  H1  UNL     1      -3.849   6.079  15.488  1.00  0.00     0.169 HD
BRANCH  29  31
HETATM   31  C5  UNL     1      -4.088   4.118  15.273  1.00  0.00     0.123 A
HETATM   32  C6  UNL     1      -5.188   3.442  15.746  1.00  0.00     0.076 A
HETATM   33  C7  UNL     1      -4.792   2.175  16.113  1.00  0.00     0.033 A
HETATM   34  N2  UNL     1      -3.482   2.121  15.857  1.00  0.00    -0.303 N
HETATM   35  N3  UNL     1      -3.057   3.270  15.358  1.00  0.00    -0.285 N
ATOM     36  H2  UNL     1      -2.892   1.306  16.022  1.00  0.00     0.186 HD
ATOM     37  H3  UNL     1      -2.097   3.476  15.082  1.00  0.00     0.188 HD
BRANCH  33  38
HETATM   38  C8  UNL     1      -5.690   1.130  16.674  1.00  0.00     0.037 A
HETATM   39  C9  UNL     1      -7.053   1.650  17.071  1.00  0.00     0.011 A
HETATM   40  C10 UNL     1      -6.058   1.296  18.151  1.00  0.00     0.011 A
ENDBRANCH  33  38
ENDBRANCH  29  31
ENDBRANCH  22  29
ENDBRANCH  18  20
ENDBRANCH   1  18
TORSDOF 8
ENDMDL