MODEL 1
REMARK VINA RESULT: -7.782058765      0.000      0.000
REMARK  7 active torsions:
REMARK  status: ('A' for Active; 'I' for Inactive)
REMARK    1  A    between atoms: C2_2  and  C4_4
REMARK    2  A    between atoms: C4_4  and  C5_5
REMARK    3  A    between atoms: C5_5  and  N1_6
REMARK    4  A    between atoms: N1_6  and  C6_8
REMARK    5  A    between atoms: C6_8  and  C7_12
REMARK    6  A    between atoms: C19_30  and  C20_31
REMARK    7  A    between atoms: C20_31  and  O2_32
ROOT
HETATM    1  C7  UNL     1      -4.554   4.812  13.214  1.00  0.00     0.256 C
HETATM    2  C8  UNL     1      -3.550   3.685  13.186  1.00  0.00     0.083 C
HETATM    3  C9  UNL     1      -2.389   4.027  12.307  1.00  0.00    -0.001 A
HETATM    4  C10 UNL     1      -2.406   3.503  11.022  1.00  0.00     0.174 A
HETATM    5  F1  UNL     1      -3.448   2.727  10.619  1.00  0.00    -0.201 F
HETATM    6  C11 UNL     1      -1.404   3.730  10.112  1.00  0.00     0.189 A
HETATM    7  N3  UNL     1      -0.364   4.498  10.498  1.00  0.00    -0.282 N
HETATM    8  C12 UNL     1      -0.342   5.002  11.723  1.00  0.00     0.257 A
HETATM    9  O1  UNL     1       0.679   5.720  12.013  1.00  0.00    -0.267 OA
HETATM   10  C13 UNL     1      -1.336   4.796  12.676  1.00  0.00     0.020 A
HETATM   11  C14 UNL     1      -1.128   5.441  13.975  1.00  0.00     0.045 C
HETATM   12  C15 UNL     1      -1.619   6.810  14.175  1.00  0.00     0.010 C
HETATM   13  C16 UNL     1      -2.284   7.460  12.981  1.00  0.00     0.007 C
HETATM   14  C17 UNL     1      -2.220   8.977  13.074  1.00  0.00     0.011 C
HETATM   15  C18 UNL     1      -3.747   7.077  13.030  1.00  0.00     0.237 C
HETATM   16  N4  UNL     1      -3.945   5.935  13.903  1.00  0.00    -0.063 N
ATOM     17  H41 UNL     1      -3.072   5.661  14.353  1.00  0.00     0.278 HD
ATOM     18  H42 UNL     1      -4.482   6.194  14.731  1.00  0.00     0.278 HD
HETATM   19  C19 UNL     1       0.585   4.602   9.374  1.00  0.00     0.153 C
HETATM   20  C21 UNL     1      -0.269   4.224   8.213  1.00  0.00     0.085 C
HETATM   21  C22 UNL     1       0.504   3.647   7.077  1.00  0.00     0.048 C
HETATM   22  C23 UNL     1      -1.027   5.439   7.660  1.00  0.00     0.048 C
HETATM   23  O3  UNL     1      -1.196   3.328   8.801  1.00  0.00    -0.320 OA
ENDROOT
BRANCH   1  24
HETATM   24  C6  UNL     1      -5.781   4.481  13.980  1.00  0.00     0.102 C
HETATM   25  N2  UNL     1      -6.732   5.336  14.018  1.00  0.00    -0.387 N
ATOM     26  H22 UNL     1      -7.576   5.109  14.544  1.00  0.00     0.157 HD
ATOM     27  H21 UNL     1      -6.654   6.231  13.535  1.00  0.00     0.157 HD
BRANCH  24  28
HETATM   28  N1  UNL     1      -5.891   3.215  14.663  1.00  0.00    -0.378 N
ATOM     29  H1  UNL     1      -5.839   2.337  14.146  1.00  0.00     0.160 HD
BRANCH  28  30
HETATM   30  C5  UNL     1      -6.078   3.217  16.089  1.00  0.00     0.121 C
BRANCH  30  31
HETATM   31  C4  UNL     1      -5.226   2.120  16.717  1.00  0.00     0.023 C
BRANCH  31  32
HETATM   32  C2  UNL     1      -6.038   1.445  17.800  1.00  0.00    -0.021 C
HETATM   33  C1  UNL     1      -7.388   1.054  17.205  1.00  0.00     0.009 C
HETATM   34  C3  UNL     1      -6.245   2.351  18.975  1.00  0.00     0.009 C
ENDBRANCH  31  32
ENDBRANCH  30  31
ENDBRANCH  28  30
ENDBRANCH  24  28
ENDBRANCH   1  24
BRANCH  19  35
HETATM   35  C20 UNL     1       1.693   3.633   9.683  1.00  0.00     0.193 C
BRANCH  35  36
HETATM   36  O2  UNL     1       2.756   4.209  10.351  1.00  0.00    -0.399 OA
ATOM     37  H2  UNL     1       2.876   5.129  10.146  1.00  0.00     0.209 HD
ENDBRANCH  35  36
ENDBRANCH  19  35
TORSDOF 7
ENDMDL