MODEL 1
REMARK VINA RESULT: -8.331271376      0.000      0.000
REMARK  5 active torsions:
REMARK  status: ('A' for Active; 'I' for Inactive)
REMARK    1  A    between atoms: C6_7  and  O1_8
REMARK    2  A    between atoms: O1_8  and  C7_9
REMARK    3  A    between atoms: C7_9  and  C8_10
REMARK    4  A    between atoms: C10_17  and  C11_18
REMARK    5  A    between atoms: N5_23  and  C14_25
ROOT
HETATM    1  C8  UNL     1      -5.369   1.439  16.465  1.00  0.00     0.065 A
HETATM    2  N2  UNL     1      -6.081   0.875  17.418  1.00  0.00    -0.300 N
ATOM      3  H2  UNL     1      -5.992  -0.103  17.698  1.00  0.00     0.186 HD
HETATM    4  N3  UNL     1      -6.938   1.747  17.976  1.00  0.00    -0.275 N
ATOM      5  H3  UNL     1      -7.590   1.539  18.732  1.00  0.00     0.189 HD
HETATM    6  C9  UNL     1      -6.794   2.924  17.380  1.00  0.00     0.216 A
HETATM    7  F1  UNL     1      -7.445   4.115  17.602  1.00  0.00    -0.184 F
HETATM    8  C10 UNL     1      -5.813   2.772  16.418  1.00  0.00     0.059 A
ENDROOT
BRANCH   8   9
HETATM    9  C11 UNL     1      -5.316   3.771  15.475  1.00  0.00    -0.002 A
HETATM   10  C12 UNL     1      -3.989   4.150  15.470  1.00  0.00     0.102 A
HETATM   11  N4  UNL     1      -3.494   5.072  14.636  1.00  0.00    -0.350 N
HETATM   12  C13 UNL     1      -4.261   5.731  13.703  1.00  0.00     0.126 A
ATOM     13  H4  UNL     1      -2.501   5.297  14.695  1.00  0.00     0.166 HD
HETATM   14  N5  UNL     1      -3.719   6.561  12.945  1.00  0.00    -0.368 N
HETATM   15  C18 UNL     1      -5.584   5.366  13.696  1.00  0.00     0.090 A
ATOM     16  H5  UNL     1      -2.720   6.632  13.140  1.00  0.00     0.161 HD
HETATM   17  N7  UNL     1      -6.456   5.993  12.765  1.00  0.00    -0.098 NA
HETATM   18  C19 UNL     1      -6.125   4.402  14.560  1.00  0.00     0.044 A
BRANCH  14  19
HETATM   19  C14 UNL     1      -4.082   7.414  11.913  1.00  0.00     0.110 C
HETATM   20  C15 UNL     1      -3.859   6.646  10.594  1.00  0.00     0.054 C
HETATM   21  C16 UNL     1      -2.635   7.246   9.988  1.00  0.00     0.234 C
HETATM   22  N6  UNL     1      -2.661   8.608  10.418  1.00  0.00    -0.073 N
HETATM   23  C17 UNL     1      -3.254   8.657  11.717  1.00  0.00     0.257 C
ATOM     24  H62 UNL     1      -1.740   9.046  10.390  1.00  0.00     0.277 HD
ATOM     25  H61 UNL     1      -3.126   9.222   9.749  1.00  0.00     0.277 HD
ENDBRANCH  14  19
ENDBRANCH   8   9
BRANCH   1  26
HETATM   26  C7  UNL     1      -4.290   0.946  15.591  1.00  0.00     0.227 C
BRANCH  26  27
HETATM   27  O1  UNL     1      -4.570   0.083  14.617  1.00  0.00    -0.380 OA
BRANCH  27  28
HETATM   28  C6  UNL     1      -4.534   0.397  13.309  1.00  0.00     0.126 C
HETATM   29  C5  UNL     1      -3.527   1.584  13.243  1.00  0.00     0.072 C
HETATM   30  C2  UNL     1      -3.385   2.149  11.883  1.00  0.00     0.155 C
HETATM   31  N1  UNL     1      -2.939   1.111  10.988  1.00  0.00     0.102 N
HETATM   32  C3  UNL     1      -4.616   2.872  11.467  1.00  0.00     0.049 C
HETATM   33  C4  UNL     1      -2.253   3.178  11.950  1.00  0.00     0.049 C
HETATM   34  C1  UNL     1      -1.578   0.740  11.371  1.00  0.00     0.311 C
HETATM   35  C21 UNL     1      -3.749  -0.075  11.003  1.00  0.00     0.155 C
HETATM   36  C20 UNL     1      -3.985  -0.627  12.368  1.00  0.00     0.072 C
HETATM   37  C22 UNL     1      -2.975  -1.148  10.220  1.00  0.00     0.049 C
HETATM   38  C23 UNL     1      -5.060   0.108  10.244  1.00  0.00     0.049 C
ENDBRANCH  27  28
ENDBRANCH  26  27
ENDBRANCH   1  26
TORSDOF 5
ENDMDL