MODEL 4
REMARK VINA RESULT: -6.550608617      3.310      5.207
REMARK  7 active torsions:
REMARK  status: ('A' for Active; 'I' for Inactive)
REMARK    1  A    between atoms: C2_2  and  C3_3
REMARK    2  A    between atoms: C3_3  and  C4_4
REMARK    3  A    between atoms: C4_4  and  C5_5
REMARK    4  A    between atoms: C5_5  and  O1_7
REMARK    5  A    between atoms: O1_7  and  C6_8
REMARK    6  A    between atoms: C13_21  and  C14_22
REMARK       I    between atoms: N3_25  and  C15_26
REMARK       I    between atoms: C15_26  and  N4_28
REMARK    7  A    between atoms: N4_28  and  C16_30
ROOT
HETATM    1  C4  UNL     1      -2.061   5.706  12.282  1.00  0.00     0.134 C
HETATM    2  C8  UNL     1      -0.705   5.412  11.754  1.00  0.00     0.048 C
HETATM    3  N1  UNL     1       0.436   5.527  12.615  1.00  0.00    -0.338 N
ATOM      4  H1  UNL     1       0.304   5.394  13.618  1.00  0.00     0.168 HD
HETATM    5  C9  UNL     1       1.746   5.819  12.134  1.00  0.00     0.138 C
HETATM    6  N2  UNL     1       2.788   5.182  12.563  1.00  0.00    -0.380 N
ATOM      7  H21 UNL     1       3.725   5.391  12.220  1.00  0.00     0.158 HD
ATOM      8  H22 UNL     1       2.704   4.445  13.263  1.00  0.00     0.158 HD
HETATM    9  S1  UNL     1       1.897   7.124  10.893  1.00  0.00    -0.090 SA
HETATM   10  C10 UNL     1       0.214   7.164  10.137  1.00  0.00     0.118 C
HETATM   11  C11 UNL     1      -0.349   5.829  10.365  1.00  0.00    -0.042 C
HETATM   12  C12 UNL     1      -1.381   5.364   9.426  1.00  0.00     0.073 C
HETATM   13  C13 UNL     1      -2.716   5.846   9.803  1.00  0.00     0.195 C
HETATM   14  N3  UNL     1      -2.976   6.102  11.200  1.00  0.00    -0.299 N
HETATM   15  C15 UNL     1      -4.206   6.748  11.458  1.00  0.00     0.320 C
HETATM   16  O4  UNL     1      -4.715   7.002  12.576  1.00  0.00    -0.247 OA
HETATM   17  N4  UNL     1      -5.078   7.225  10.430  1.00  0.00    -0.335 N
ATOM     18  H4  UNL     1      -4.804   7.100   9.456  1.00  0.00     0.165 HD
ENDROOT
BRANCH   1  19
HETATM   19  C3  UNL     1      -2.202   6.440  13.536  1.00  0.00     0.043 C
BRANCH  19  20
HETATM   20  C2  UNL     1      -1.680   7.708  13.962  1.00  0.00    -0.002 C
HETATM   21  C1  UNL     1      -2.010   8.278  15.308  1.00  0.00     0.005 C
ENDBRANCH  19  20
ENDBRANCH   1  19
BRANCH   1  22
HETATM   22  C5  UNL     1      -2.636   4.284  12.676  1.00  0.00     0.341 C
HETATM   23  F1  UNL     1      -2.819   4.184  14.041  1.00  0.00    -0.217 F
BRANCH  22  24
HETATM   24  O1  UNL     1      -1.731   3.278  12.412  1.00  0.00    -0.354 OA
BRANCH  24  25
HETATM   25  C6  UNL     1      -2.351   2.177  11.910  1.00  0.00     0.167 C
HETATM   26  C7  UNL     1      -1.640   1.797  10.607  1.00  0.00     0.033 C
ENDBRANCH  24  25
ENDBRANCH  22  24
ENDBRANCH   1  22
BRANCH  13  27
HETATM   27  C14 UNL     1      -3.651   4.852   9.195  1.00  0.00     0.197 C
HETATM   28  O2  UNL     1      -4.313   4.041   9.868  1.00  0.00    -0.646 OA
HETATM   29  O3  UNL     1      -3.794   4.826   7.820  1.00  0.00    -0.646 OA
ENDBRANCH  13  27
BRANCH  17  30
HETATM   30  C16 UNL     1      -6.335   7.879  10.721  1.00  0.00     0.023 C
HETATM   31  C17 UNL     1      -7.326   7.707   9.581  1.00  0.00     0.037 C
HETATM   32  C18 UNL     1      -6.974   7.315  11.958  1.00  0.00     0.037 C
HETATM   33  C19 UNL     1      -6.159   9.372  10.918  1.00  0.00     0.037 C
ENDBRANCH  17  30
TORSDOF 7
ENDMDL