MODEL 2
REMARK VINA RESULT: -8.473249061      1.204      1.713
REMARK  7 active torsions:
REMARK  status: ('A' for Active; 'I' for Inactive)
REMARK    1  A    between atoms: C6_6  and  C7_7
REMARK    2  A    between atoms: C9_16  and  N5_17
REMARK    3  A    between atoms: N5_17  and  C10_19
REMARK    4  A    between atoms: C10_19  and  C11_20
REMARK    5  A    between atoms: C10_19  and  C12_23
REMARK    6  A    between atoms: C11_20  and  O1_21
REMARK    7  A    between atoms: C21_35  and  C22_36
ROOT
HETATM    1  C7  UNL     1      -2.217   2.059  11.050  1.00  0.00     0.118 A
HETATM    2  N1  UNL     1      -2.268   0.734  10.781  1.00  0.00    -0.183 N
ATOM      3  H1  UNL     1      -1.679   0.395  10.021  1.00  0.00     0.184 HD
HETATM    4  C8  UNL     1      -3.010  -0.161  11.411  1.00  0.00     0.723 A
HETATM    5  N2  UNL     1      -3.434  -1.439  11.583  1.00  0.00    -0.115 N
ATOM      6  H2  UNL     1      -3.248  -2.342  11.147  1.00  0.00     0.207 HD
HETATM    7  N3  UNL     1      -4.188  -0.997  12.555  1.00  0.00    -0.205 N
ATOM      8  H3  UNL     1      -4.839  -1.463  13.188  1.00  0.00     0.210 HD
HETATM    9  N4  UNL     1      -3.810   0.264  12.434  1.00  0.00    -0.050 N
HETATM   10  C9  UNL     1      -3.832   1.561  12.781  1.00  0.00     0.184 A
HETATM   11  C17 UNL     1      -3.028   2.475  12.082  1.00  0.00     0.192 A
HETATM   12  F1  UNL     1      -3.077   3.759  12.455  1.00  0.00    -0.199 F
ENDROOT
BRANCH   1  13
HETATM   13  C6  UNL     1      -1.360   2.955  10.286  1.00  0.00     0.063 A
HETATM   14  C5  UNL     1      -0.074   3.337  10.433  1.00  0.00     0.041 A
HETATM   15  C4  UNL     1       0.291   4.232   9.416  1.00  0.00    -0.025 A
HETATM   16  C2  UNL     1       1.566   4.944   9.116  1.00  0.00    -0.005 C
HETATM   17  C18 UNL     1      -0.848   4.361   8.653  1.00  0.00     0.017 A
HETATM   18  C1  UNL     1       2.691   4.187   9.785  1.00  0.00     0.021 C
HETATM   19  C3  UNL     1       1.487   6.286   9.858  1.00  0.00     0.021 C
HETATM   20  C21 UNL     1       1.770   5.151   7.661  1.00  0.00     0.099 C
HETATM   21  C20 UNL     1       0.561   4.924   6.798  1.00  0.00     0.022 C
HETATM   22  C19 UNL     1      -0.738   5.275   7.475  1.00  0.00     0.058 C
HETATM   23  N6  UNL     1      -1.818   3.599   9.181  1.00  0.00    -0.357 N
ATOM     24  H6  UNL     1      -2.763   3.515   8.806  1.00  0.00     0.166 HD
BRANCH  20  25
HETATM   25  C22 UNL     1       2.894   4.337   7.148  1.00  0.00     0.178 C
HETATM   26  O2  UNL     1       4.010   4.903   6.881  1.00  0.00    -0.648 OA
HETATM   27  O3  UNL     1       2.825   2.960   6.930  1.00  0.00    -0.648 OA
ENDBRANCH  20  25
ENDBRANCH   1  13
BRANCH  10  28
HETATM   28  N5  UNL     1      -4.533   2.048  13.708  1.00  0.00    -0.365 N
ATOM     29  H5  UNL     1      -5.400   2.487  13.398  1.00  0.00     0.161 HD
BRANCH  28  30
HETATM   30  C10 UNL     1      -4.323   2.091  15.094  1.00  0.00     0.110 C
BRANCH  30  31
HETATM   31  C11 UNL     1      -3.706   3.424  15.555  1.00  0.00     0.189 C
BRANCH  31  32
HETATM   32  O1  UNL     1      -2.315   3.336  15.556  1.00  0.00    -0.399 OA
ATOM     33  H1  UNL     1      -1.936   4.138  15.894  1.00  0.00     0.209 HD
ENDBRANCH  31  32
ENDBRANCH  30  31
BRANCH  30  34
HETATM   34  C12 UNL     1      -5.596   1.865  15.887  1.00  0.00     0.010 C
HETATM   35  C13 UNL     1      -6.268   3.173  16.170  1.00  0.00     0.007 C
HETATM   36  C14 UNL     1      -7.079   2.947  17.430  1.00  0.00     0.000 C
HETATM   37  C15 UNL     1      -6.254   1.962  18.210  1.00  0.00     0.000 C
HETATM   38  C16 UNL     1      -5.371   1.224  17.213  1.00  0.00     0.007 C
ENDBRANCH  30  34
ENDBRANCH  28  30
ENDBRANCH  10  28
TORSDOF 7
ENDMDL