MODEL 1
REMARK VINA RESULT: -8.380571835      0.000      0.000
REMARK  9 active torsions:
REMARK  status: ('A' for Active; 'I' for Inactive)
REMARK    1  A    between atoms: N1_1  and  C1_4
REMARK    2  A    between atoms: C1_4  and  C2_6
REMARK    3  A    between atoms: C5_10  and  N3_11
REMARK    4  A    between atoms: N3_11  and  C6_13
REMARK    5  A    between atoms: C7_16  and  C8_17
REMARK    6  A    between atoms: C9_20  and  N6_21
REMARK    7  A    between atoms: N6_21  and  C10_23
REMARK    8  A    between atoms: C16_31  and  C17_32
REMARK    9  A    between atoms: C21_38  and  O1_39
ROOT
HETATM    1  C6  UNL     1      -3.515   5.825  11.952  1.00  0.00     0.138 A
HETATM    2  N4  UNL     1      -3.884   4.637  12.450  1.00  0.00    -0.325 N
ATOM      3  H4  UNL     1      -4.873   4.391  12.413  1.00  0.00     0.169 HD
HETATM    4  C7  UNL     1      -3.019   3.732  13.006  1.00  0.00     0.135 A
HETATM    5  N8  UNL     1      -1.756   4.111  13.022  1.00  0.00    -0.348 N
ATOM      6  H8  UNL     1      -1.082   3.463  13.428  1.00  0.00     0.167 HD
HETATM    7  C20 UNL     1      -1.285   5.260  12.556  1.00  0.00     0.130 A
HETATM    8  C21 UNL     1      -2.143   6.160  12.006  1.00  0.00     0.125 A
ENDROOT
BRANCH   4   9
HETATM    9  C8  UNL     1      -3.536   2.470  13.523  1.00  0.00     0.101 A
HETATM   10  N5  UNL     1      -3.859   2.410  14.844  1.00  0.00    -0.188 N
HETATM   11  C9  UNL     1      -4.321   1.298  15.424  1.00  0.00     0.678 A
ATOM     12  H5  UNL     1      -3.743   3.248  15.414  1.00  0.00     0.184 HD
HETATM   13  N7  UNL     1      -4.465   0.210  14.648  1.00  0.00    -0.201 N
HETATM   14  C15 UNL     1      -4.163   0.212  13.339  1.00  0.00     0.116 A
ATOM     15  H7  UNL     1      -4.818  -0.649  15.069  1.00  0.00     0.183 HD
HETATM   16  C16 UNL     1      -3.679   1.370  12.723  1.00  0.00    -0.007 A
BRANCH  11  17
HETATM   17  N6  UNL     1      -4.630   1.247  16.683  1.00  0.00    -0.221 N
ATOM     18  H6  UNL     1      -3.890   1.460  17.352  1.00  0.00     0.178 HD
BRANCH  17  19
HETATM   19  C10 UNL     1      -5.913   0.921  17.216  1.00  0.00     0.099 C
HETATM   20  C11 UNL     1      -6.059   1.238  18.679  1.00  0.00     0.026 C
HETATM   21  C12 UNL     1      -6.316   2.708  18.750  1.00  0.00     0.002 C
HETATM   22  C13 UNL     1      -6.986   3.077  17.425  1.00  0.00     0.002 C
HETATM   23  C14 UNL     1      -6.936   1.831  16.573  1.00  0.00     0.026 C
ENDBRANCH  17  19
ENDBRANCH  11  17
BRANCH  16  24
HETATM   24  C17 UNL     1      -3.366   1.438  11.300  1.00  0.00     0.022 A
HETATM   25  C18 UNL     1      -3.070   0.139  10.549  1.00  0.00     0.010 A
HETATM   26  C19 UNL     1      -1.970   1.110  10.775  1.00  0.00     0.010 A
ENDBRANCH  16  24
ENDBRANCH   4   9
BRANCH   1  27
HETATM   27  N3  UNL     1      -4.260   6.652  11.461  1.00  0.00    -0.369 N
ATOM     28  H3  UNL     1      -4.189   7.445  12.099  1.00  0.00     0.161 HD
BRANCH  27  29
HETATM   29  C5  UNL     1      -5.139   7.081  10.514  1.00  0.00     0.083 C
HETATM   30  C4  UNL     1      -5.345   6.102   9.349  1.00  0.00     0.029 C
HETATM   31  C3  UNL     1      -5.957   6.919   8.237  1.00  0.00     0.053 C
HETATM   32  C2  UNL     1      -7.341   7.325   8.627  1.00  0.00     0.158 C
HETATM   33  F1  UNL     1      -8.240   6.311   8.275  1.00  0.00    -0.235 F
HETATM   34  C23 UNL     1      -7.525   7.779  10.025  1.00  0.00     0.053 C
HETATM   35  C22 UNL     1      -6.513   7.369  11.031  1.00  0.00     0.029 C
BRANCH  32  36
HETATM   36  C1  UNL     1      -7.697   8.498   7.746  1.00  0.00     0.127 C
HETATM   37  N2  UNL     1      -8.697   9.437   8.142  1.00  0.00    -0.084 NA
BRANCH  36  38
HETATM   38  N1  UNL     1      -7.114   8.692   6.616  1.00  0.00    -0.388 N
ATOM     39  H12 UNL     1      -7.472   9.367   5.940  1.00  0.00     0.157 HD
ATOM     40  H11 UNL     1      -6.277   8.144   6.417  1.00  0.00     0.157 HD
ENDBRANCH  36  38
ENDBRANCH  32  36
ENDBRANCH  27  29
ENDBRANCH   1  27
BRANCH   8  41
HETATM   41  O1  UNL     1      -1.708   7.396  11.494  1.00  0.00    -0.356 OA
ATOM     42  H1  UNL     1      -1.021   7.418  10.839  1.00  0.00     0.218 HD
ENDBRANCH   8  41
TORSDOF 9
ENDMDL