MODEL 5
REMARK VINA RESULT: -6.498608155      3.105      4.840
REMARK  7 active torsions:
REMARK  status: ('A' for Active; 'I' for Inactive)
REMARK    1  A    between atoms: C2_2  and  N1_3
REMARK    2  A    between atoms: N1_3  and  C3_4
REMARK    3  A    between atoms: N1_3  and  C5_6
REMARK    4  A    between atoms: C5_6  and  C6_7
REMARK    5  A    between atoms: C6_7  and  N2_8
REMARK    6  A    between atoms: C7_9  and  O1_10
REMARK    7  A    between atoms: C10_14  and  O2_15
ROOT
HETATM    1  N2  UNL     1      -3.759   5.263  11.394  1.00  0.00    -0.306 N
HETATM    2  C7  UNL     1      -4.019   5.145  10.077  1.00  0.00     0.152 A
HETATM    3  C8  UNL     1      -4.968   6.086   9.748  1.00  0.00     0.025 A
HETATM    4  C9  UNL     1      -5.307   6.809  10.890  1.00  0.00     0.014 A
HETATM    5  C10 UNL     1      -4.510   6.241  11.891  1.00  0.00     0.152 A
HETATM    6  C11 UNL     1      -6.317   7.906  10.872  1.00  0.00    -0.004 C
HETATM    7  C12 UNL     1      -7.106   7.679  12.201  1.00  0.00     0.021 C
HETATM    8  C13 UNL     1      -7.321   7.552   9.831  1.00  0.00     0.047 C
HETATM    9  C14 UNL     1      -6.827   7.141   8.493  1.00  0.00     0.051 C
HETATM   10  C15 UNL     1      -7.970   6.324   7.844  1.00  0.00     0.040 C
HETATM   11  N3  UNL     1      -6.716   8.309   7.595  1.00  0.00    -0.357 N
ATOM     12  H3  UNL     1      -6.487   8.065   6.632  1.00  0.00     0.162 HD
HETATM   13  C16 UNL     1      -6.865   9.698   7.811  1.00  0.00     0.168 C
HETATM   14  S1  UNL     1      -7.230  10.546   6.462  1.00  0.00    -0.041 SA
HETATM   15  N4  UNL     1      -6.748  10.473   9.008  1.00  0.00    -0.362 N
ATOM     16  H4  UNL     1      -7.004  11.436   8.789  1.00  0.00     0.162 HD
HETATM   17  C17 UNL     1      -6.414  10.411  10.372  1.00  0.00     0.089 C
HETATM   18  C18 UNL     1      -5.024  11.078  10.530  1.00  0.00     0.026 C
HETATM   19  C19 UNL     1      -4.505   9.652  10.241  1.00  0.00     0.010 C
HETATM   20  C20 UNL     1      -5.766   9.234  10.957  1.00  0.00     0.021 C
HETATM   21  C21 UNL     1      -5.591   6.351   8.414  1.00  0.00     0.148 C
HETATM   22 CL1  UNL     1      -4.359   7.026   7.296  1.00  0.00    -0.117 Cl
ENDROOT
BRANCH   1  23
HETATM   23  C6  UNL     1      -2.816   4.427  12.086  1.00  0.00     0.153 C
BRANCH  23  24
HETATM   24  C5  UNL     1      -3.448   3.345  12.932  1.00  0.00     0.142 C
BRANCH  24  25
HETATM   25  N1  UNL     1      -3.211   2.099  12.314  1.00  0.00    -0.393 N
BRANCH  25  26
HETATM   26  C2  UNL     1      -2.100   1.976  11.457  1.00  0.00     0.117 C
HETATM   27  C1  UNL     1      -1.739   0.487  11.325  1.00  0.00     0.026 C
ENDBRANCH  25  26
BRANCH  25  28
HETATM   28  C3  UNL     1      -4.236   1.162  12.189  1.00  0.00     0.054 C
HETATM   29  C4  UNL     1      -5.207   1.388  11.081  1.00  0.00     0.054 C
ENDBRANCH  25  28
ENDBRANCH  24  25
ENDBRANCH  23  24
ENDBRANCH   1  23
BRANCH   2  30
HETATM   30  O1  UNL     1      -3.456   4.253   9.180  1.00  0.00    -0.345 OA
ATOM     31  H1  UNL     1      -3.809   3.419   8.893  1.00  0.00     0.219 HD
ENDBRANCH   2  30
BRANCH   5  32
HETATM   32  O2  UNL     1      -4.538   6.673  13.200  1.00  0.00    -0.345 OA
ATOM     33  H2  UNL     1      -4.011   7.366  13.579  1.00  0.00     0.219 HD
ENDBRANCH   5  32
TORSDOF 7
ENDMDL