MODEL 1
REMARK VINA RESULT: -7.781530626      0.000      0.000
REMARK  9 active torsions:
REMARK  status: ('A' for Active; 'I' for Inactive)
REMARK    1  A    between atoms: N1_2  and  C2_4
REMARK    2  A    between atoms: C3_7  and  N3_8
REMARK    3  A    between atoms: C6_13  and  N5_14
REMARK    4  A    between atoms: N5_14  and  C7_16
REMARK    5  A    between atoms: C9_18  and  C10_19
REMARK    6  A    between atoms: C10_19  and  C11_20
REMARK    7  A    between atoms: C16_25  and  O1_26
REMARK    8  A    between atoms: C17_28  and  O2_29
REMARK    9  A    between atoms: C18_31  and  C19_32
ROOT
HETATM    1  C7  UNL     1      -4.619   5.586  14.168  1.00  0.00     0.050 A
HETATM    2  C8  UNL     1      -5.187   5.871  12.945  1.00  0.00     0.040 A
HETATM    3  C9  UNL     1      -4.658   6.847  12.094  1.00  0.00    -0.022 A
HETATM    4  C17 UNL     1      -3.539   7.505  12.542  1.00  0.00     0.079 A
HETATM    5  C18 UNL     1      -2.963   7.218  13.781  1.00  0.00    -0.014 A
HETATM    6  C23 UNL     1      -3.493   6.263  14.600  1.00  0.00     0.040 A
ENDROOT
BRANCH   1   7
HETATM    7  N5  UNL     1      -5.177   4.596  15.004  1.00  0.00    -0.191 N
ATOM      8  H5  UNL     1      -5.825   4.896  15.732  1.00  0.00     0.184 HD
BRANCH   7   9
HETATM    9  C6  UNL     1      -4.925   3.350  14.909  1.00  0.00     0.711 A
HETATM   10  N4  UNL     1      -4.501   2.860  13.727  1.00  0.00    -0.021 N
HETATM   11  C3  UNL     1      -4.216   1.557  13.551  1.00  0.00     0.708 A
ATOM     12  H4  UNL     1      -4.393   3.498  12.939  1.00  0.00     0.203 HD
HETATM   13  N2  UNL     1      -4.353   0.710  14.571  1.00  0.00    -0.021 N
HETATM   14  C2  UNL     1      -4.776   1.179  15.765  1.00  0.00     0.706 A
ATOM     15  H2  UNL     1      -4.140  -0.280  14.451  1.00  0.00     0.203 HD
HETATM   16  N6  UNL     1      -5.058   2.478  15.931  1.00  0.00    -0.021 N
ATOM     17  H6  UNL     1      -5.377   2.812  16.840  1.00  0.00     0.203 HD
BRANCH  11  18
HETATM   18  N3  UNL     1      -3.773   1.080  12.287  1.00  0.00    -0.225 N
HETATM   19  C4  UNL     1      -4.288  -0.167  11.758  1.00  0.00     0.168 C
HETATM   20  C5  UNL     1      -2.796   1.841  11.511  1.00  0.00     0.168 C
ENDBRANCH  11  18
BRANCH  14  21
HETATM   21  N1  UNL     1      -4.913   0.383  16.762  1.00  0.00    -0.229 N
HETATM   22  C1  UNL     1      -6.015   0.472  17.694  1.00  0.00     0.165 C
ATOM     23  H1  UNL     1      -4.214  -0.347  16.902  1.00  0.00     0.177 HD
ENDBRANCH  14  21
ENDBRANCH   7   9
ENDBRANCH   1   7
BRANCH   3  24
HETATM   24  C10 UNL     1      -5.267   7.171  10.786  1.00  0.00     0.048 C
BRANCH  24  25
HETATM   25  C11 UNL     1      -6.293   8.270  10.816  1.00  0.00     0.019 C
HETATM   26  C12 UNL     1      -7.557   7.815  10.175  1.00  0.00     0.007 C
HETATM   27  C13 UNL     1      -7.569   8.163   8.690  1.00  0.00     0.001 C
HETATM   28  C14 UNL     1      -7.682   9.650   8.582  1.00  0.00     0.002 C
HETATM   29  C15 UNL     1      -6.707  10.344   9.467  1.00  0.00     0.032 C
HETATM   30  C16 UNL     1      -5.694   9.479  10.132  1.00  0.00     0.122 C
BRANCH  30  31
HETATM   31  O1  UNL     1      -4.676   9.054   9.294  1.00  0.00    -0.395 OA
ATOM     32  H1  UNL     1      -4.076   9.777   9.153  1.00  0.00     0.210 HD
ENDBRANCH  30  31
ENDBRANCH  24  25
ENDBRANCH   3  24
BRANCH   5  33
HETATM   33  C19 UNL     1      -1.747   8.011  14.140  1.00  0.00    -0.014 A
HETATM   34  C20 UNL     1      -0.462   7.479  13.598  1.00  0.00     0.020 C
HETATM   35  C21 UNL     1      -1.689   8.374  15.630  1.00  0.00     0.015 A
HETATM   36  C22 UNL     1      -1.888   9.417  14.577  1.00  0.00     0.015 A
ENDBRANCH   5  33
BRANCH   4  37
HETATM   37  O2  UNL     1      -2.943   8.480  11.766  1.00  0.00    -0.360 OA
ATOM     38  H2  UNL     1      -1.998   8.573  11.752  1.00  0.00     0.217 HD
ENDBRANCH   4  37
TORSDOF 9
ENDMDL