MODEL 1
REMARK VINA RESULT: -8.261937256      0.000      0.000
REMARK  8 active torsions:
REMARK  status: ('A' for Active; 'I' for Inactive)
REMARK    1  A    between atoms: C5_7  and  N2_8
REMARK    2  A    between atoms: C6_13  and  N4_14
REMARK    3  A    between atoms: N4_14  and  C7_16
REMARK    4  A    between atoms: C10_19  and  O1_20
REMARK    5  A    between atoms: C15_26  and  O2_27
REMARK    6  A    between atoms: O2_27  and  C16_28
REMARK    7  A    between atoms: C16_28  and  C17_29
REMARK    8  A    between atoms: C20_32  and  C21_33
REMARK       I    between atoms: C21_33  and  N5_35
ROOT
HETATM    1  C1  UNL     1      -2.019   7.994  15.065  1.00  0.00     0.051 C
HETATM    2  C2  UNL     1      -1.861   6.903  14.060  1.00  0.00    -0.026 A
HETATM    3  C3  UNL     1      -0.605   6.632  13.512  1.00  0.00     0.040 A
HETATM    4  C4  UNL     1      -0.406   5.638  12.581  1.00  0.00     0.063 A
HETATM    5  N1  UNL     1       0.786   5.348  12.035  1.00  0.00    -0.191 N
ATOM      6  H1  UNL     1       1.602   5.891  12.319  1.00  0.00     0.184 HD
HETATM    7  C5  UNL     1       0.944   4.369  11.129  1.00  0.00     0.677 A
HETATM    8  N3  UNL     1      -0.107   3.628  10.728  1.00  0.00    -0.176 N
ATOM      9  H3  UNL     1       0.013   2.884  10.041  1.00  0.00     0.186 HD
HETATM   10  C6  UNL     1      -1.317   3.888  11.253  1.00  0.00     0.130 A
HETATM   11  C13 UNL     1      -1.514   4.896  12.194  1.00  0.00     0.038 A
HETATM   12  C14 UNL     1      -2.765   5.145  12.719  1.00  0.00     0.054 A
HETATM   13  C15 UNL     1      -2.940   6.147  13.652  1.00  0.00     0.075 A
ENDROOT
BRANCH  13  14
HETATM   14  O2  UNL     1      -4.175   6.437  14.210  1.00  0.00    -0.350 OA
BRANCH  14  15
HETATM   15  C16 UNL     1      -4.532   6.017  15.518  1.00  0.00     0.181 C
BRANCH  15  16
HETATM   16  C17 UNL     1      -5.763   5.149  15.508  1.00  0.00     0.023 C
HETATM   17  C18 UNL     1      -6.413   5.219  14.135  1.00  0.00     0.008 C
HETATM   18  C19 UNL     1      -6.393   3.728  14.026  1.00  0.00     0.015 C
HETATM   19  C20 UNL     1      -5.499   3.684  15.246  1.00  0.00     0.084 C
BRANCH  19  20
HETATM   20  C21 UNL     1      -6.051   2.765  16.259  1.00  0.00     0.223 C
HETATM   21  O3  UNL     1      -7.020   3.128  16.969  1.00  0.00    -0.273 OA
HETATM   22  N5  UNL     1      -5.525   1.463  16.470  1.00  0.00    -0.360 N
HETATM   23  C22 UNL     1      -6.067   0.562  17.464  1.00  0.00     0.152 C
HETATM   24  C23 UNL     1      -4.394   1.040  15.641  1.00  0.00     0.152 C
ENDBRANCH  19  20
ENDBRANCH  15  16
ENDBRANCH  14  15
ENDBRANCH  13  14
BRANCH  10  25
HETATM   25  N4  UNL     1      -2.362   3.212  10.912  1.00  0.00    -0.370 N
ATOM     26  H4  UNL     1      -2.914   3.557  10.127  1.00  0.00     0.161 HD
BRANCH  25  27
HETATM   27  C7  UNL     1      -2.806   1.999  11.566  1.00  0.00     0.083 C
HETATM   28  C8  UNL     1      -4.321   1.919  11.599  1.00  0.00     0.028 C
HETATM   29  C9  UNL     1      -4.797   0.517  11.358  1.00  0.00     0.034 C
HETATM   30  C10 UNL     1      -3.949  -0.524  12.038  1.00  0.00     0.118 C
HETATM   31  C11 UNL     1      -2.565  -0.477  11.455  1.00  0.00     0.034 C
HETATM   32  C12 UNL     1      -2.329   0.830  10.721  1.00  0.00     0.028 C
BRANCH  30  33
HETATM   33  O1  UNL     1      -4.560  -1.760  11.790  1.00  0.00    -0.396 OA
ATOM     34  H1  UNL     1      -4.720  -2.156  12.638  1.00  0.00     0.210 HD
ENDBRANCH  30  33
ENDBRANCH  25  27
ENDBRANCH  10  25
BRANCH   7  35
HETATM   35  N2  UNL     1       2.091   4.088  10.601  1.00  0.00    -0.234 N
ATOM     36  H22 UNL     1       2.865   4.716  10.820  1.00  0.00     0.174 HD
ATOM     37  H21 UNL     1       2.231   3.282   9.992  1.00  0.00     0.174 HD
ENDBRANCH   7  35
TORSDOF 8
ENDMDL