MODEL 3
REMARK VINA RESULT: -7.921348898      2.393      4.495
REMARK  6 active torsions:
REMARK  status: ('A' for Active; 'I' for Inactive)
REMARK    1  A    between atoms: C5_8  and  C6_9
REMARK    2  A    between atoms: C6_9  and  C7_10
REMARK    3  A    between atoms: C10_13  and  N2_14
REMARK    4  A    between atoms: N2_14  and  C11_16
REMARK    5  A    between atoms: C16_26  and  N5_27
REMARK    6  A    between atoms: N5_27  and  C17_29
ROOT
HETATM    1  C7  UNL     1      -2.201   3.189  10.879  1.00  0.00     0.019 A
HETATM    2  C8  UNL     1      -2.814   4.407  11.167  1.00  0.00     0.044 A
HETATM    3  C9  UNL     1      -3.697   4.225  12.216  1.00  0.00     0.055 A
HETATM    4  C10 UNL     1      -4.548   5.073  12.893  1.00  0.00     0.131 A
HETATM    5  N4  UNL     1      -5.283   4.548  13.887  1.00  0.00    -0.176 N
ATOM      6  H4  UNL     1      -5.919   5.159  14.400  1.00  0.00     0.186 HD
HETATM    7  C16 UNL     1      -5.214   3.249  14.236  1.00  0.00     0.681 A
HETATM    8  N6  UNL     1      -4.374   2.446  13.558  1.00  0.00    -0.176 N
ATOM      9  H6  UNL     1      -4.323   1.464  13.825  1.00  0.00     0.186 HD
HETATM   10  C22 UNL     1      -3.593   2.876  12.542  1.00  0.00     0.137 A
HETATM   11  N7  UNL     1      -2.696   2.276  11.733  1.00  0.00    -0.340 N
HETATM   12  C23 UNL     1      -2.340   0.870  11.795  1.00  0.00     0.158 C
ENDROOT
BRANCH   4  13
HETATM   13  N2  UNL     1      -4.597   6.308  12.552  1.00  0.00    -0.369 N
ATOM     14  H2  UNL     1      -4.127   6.965  13.174  1.00  0.00     0.161 HD
BRANCH  13  15
HETATM   15  C11 UNL     1      -5.229   6.871  11.407  1.00  0.00     0.108 C
HETATM   16  C12 UNL     1      -6.611   7.340  11.869  1.00  0.00     0.028 C
HETATM   17  C13 UNL     1      -7.377   7.966  10.729  1.00  0.00     0.029 C
HETATM   18  C14 UNL     1      -6.502   9.026  10.098  1.00  0.00     0.232 C
HETATM   19  N3  UNL     1      -5.311   9.274  10.882  1.00  0.00    -0.073 N
HETATM   20  C15 UNL     1      -4.467   8.107  10.985  1.00  0.00     0.257 C
ATOM     21  H32 UNL     1      -4.791  10.073  10.519  1.00  0.00     0.277 HD
ATOM     22  H31 UNL     1      -5.547   9.640  11.805  1.00  0.00     0.277 HD
ENDBRANCH  13  15
ENDBRANCH   4  13
BRANCH   7  23
HETATM   23  N5  UNL     1      -5.897   2.705  15.182  1.00  0.00    -0.221 N
ATOM     24  H5  UNL     1      -6.759   2.231  14.913  1.00  0.00     0.178 HD
BRANCH  23  25
HETATM   25  C17 UNL     1      -5.568   2.698  16.570  1.00  0.00     0.099 C
HETATM   26  C18 UNL     1      -5.047   1.307  16.905  1.00  0.00     0.026 C
HETATM   27  C19 UNL     1      -6.202   0.539  17.485  1.00  0.00     0.002 C
HETATM   28  C20 UNL     1      -7.418   1.384  17.136  1.00  0.00     0.002 C
HETATM   29  C21 UNL     1      -6.856   2.788  17.364  1.00  0.00     0.026 C
ENDBRANCH  23  25
ENDBRANCH   7  23
BRANCH   1  30
HETATM   30  C6  UNL     1      -1.198   2.990   9.817  1.00  0.00     0.114 C
BRANCH  30  31
HETATM   31  C5  UNL     1       0.075   3.633  10.278  1.00  0.00     0.022 A
HETATM   32  C2  UNL     1       1.032   4.183   9.451  1.00  0.00    -0.016 A
HETATM   33  C1  UNL     1       0.962   4.232   7.958  1.00  0.00     0.052 C
HETATM   34  C3  UNL     1       2.051   4.671  10.241  1.00  0.00     0.057 A
HETATM   35 CL1  UNL     1       3.519   5.470   9.694  1.00  0.00    -0.082 Cl
HETATM   36  C4  UNL     1       1.706   4.414  11.546  1.00  0.00     0.112 A
HETATM   37  N1  UNL     1       0.516   3.792  11.529  1.00  0.00    -0.367 N
ATOM     38  H1  UNL     1       0.014   3.482  12.361  1.00  0.00     0.165 HD
ENDBRANCH  30  31
ENDBRANCH   1  30
TORSDOF 6
ENDMDL