MODEL 4
REMARK VINA RESULT: -7.273738596      2.154      3.303
REMARK  3 active torsions:
REMARK  status: ('A' for Active; 'I' for Inactive)
REMARK    1  A    between atoms: O1_1  and  C1_3
REMARK    2  A    between atoms: N1_6  and  C4_7
REMARK    3  A    between atoms: C7_13  and  C8_14
ROOT
HETATM    1  C4  UNL     1     -24.121  -5.714  78.261  1.00  0.00     0.680 A
HETATM    2  N2  UNL     1     -25.156  -5.736  79.157  1.00  0.00    -0.199 N
ATOM      3  H2  UNL     1     -25.033  -5.246  80.043  1.00  0.00     0.183 HD
HETATM    4  C5  UNL     1     -26.312  -6.357  78.944  1.00  0.00     0.150 A
HETATM    5  C6  UNL     1     -26.485  -7.015  77.763  1.00  0.00     0.155 A
HETATM    6  F1  UNL     1     -27.652  -7.653  77.431  1.00  0.00    -0.203 F
HETATM    7  C7  UNL     1     -25.461  -7.031  76.794  1.00  0.00     0.071 A
HETATM    8  N4  UNL     1     -24.333  -6.373  77.104  1.00  0.00    -0.192 N
ATOM      9  H4  UNL     1     -23.582  -6.372  76.414  1.00  0.00     0.184 HD
ENDROOT
BRANCH   7  10
HETATM   10  C8  UNL     1     -25.659  -7.891  75.600  1.00  0.00     0.045 C
HETATM   11  C9  UNL     1     -25.320  -6.981  74.417  1.00  0.00     0.041 C
HETATM   12  C10 UNL     1     -25.580  -7.637  73.108  1.00  0.00     0.273 C
HETATM   13  N3  UNL     1     -24.730  -8.785  72.878  1.00  0.00     0.088 N
HETATM   14  C11 UNL     1     -25.283 -10.006  73.341  1.00  0.00     0.272 C
HETATM   15  C15 UNL     1     -23.413  -8.573  73.420  1.00  0.00     0.272 C
HETATM   16  C12 UNL     1     -25.296 -10.196  74.837  1.00  0.00     0.035 C
HETATM   17  C13 UNL     1     -24.663  -9.057  75.564  1.00  0.00    -0.001 C
HETATM   18  C14 UNL     1     -23.359  -8.633  74.905  1.00  0.00     0.035 C
ENDBRANCH   7  10
BRANCH   1  19
HETATM   19  N1  UNL     1     -22.929  -5.102  78.685  1.00  0.00    -0.215 N
HETATM   20  C3  UNL     1     -21.607  -4.985  78.160  1.00  0.00     0.144 C
HETATM   21  C2  UNL     1     -20.918  -3.866  78.954  1.00  0.00     0.054 C
HETATM   22  C1  UNL     1     -22.094  -3.167  79.588  1.00  0.00     0.138 C
HETATM   23  C16 UNL     1     -22.922  -4.393  80.003  1.00  0.00     0.173 C
BRANCH  22  24
HETATM   24  O1  UNL     1     -22.776  -2.441  78.611  1.00  0.00    -0.394 OA
ATOM     25  H1  UNL     1     -23.022  -3.026  77.903  1.00  0.00     0.210 HD
ENDBRANCH  22  24
ENDBRANCH   1  19
TORSDOF 3
ENDMDL