MODEL 4
REMARK VINA RESULT: -4.976622884      3.005      4.488
REMARK  4 active torsions:
REMARK  status: ('A' for Active; 'I' for Inactive)
REMARK    1  A    between atoms: N1_2  and  C3_4
REMARK    2  A    between atoms: C5_8  and  C6_9
REMARK    3  A    between atoms: C6_9  and  N2_10
REMARK    4  A    between atoms: N2_10  and  C7_13
ROOT
HETATM    1  C3  UNL     1     -25.477  -7.027  75.177  1.00  0.00     0.328 C
HETATM    2  C4  UNL     1     -25.191  -6.986  73.743  1.00  0.00     0.294 C
HETATM    3  O1  UNL     1     -25.940  -6.840  72.746  1.00  0.00    -0.263 OA
HETATM    4  O2  UNL     1     -23.809  -7.153  73.628  1.00  0.00    -0.306 OA
HETATM    5  C5  UNL     1     -23.263  -7.623  74.844  1.00  0.00     0.105 C
HETATM    6  C10 UNL     1     -22.265  -8.689  74.533  1.00  0.00     0.089 C
HETATM    7  C11 UNL     1     -22.842  -9.519  73.439  1.00  0.00     0.008 C
HETATM    8  C12 UNL     1     -22.212  -9.923  72.369  1.00  0.00     0.202 C
HETATM    9  F1  UNL     1     -22.853 -10.675  71.448  1.00  0.00    -0.218 F
HETATM   10  S1  UNL     1     -24.556  -9.967  73.682  1.00  0.00    -0.132 SA
HETATM   11  C13 UNL     1     -24.882  -9.451  75.419  1.00  0.00     0.089 C
HETATM   12  C14 UNL     1     -24.450  -8.034  75.649  1.00  0.00     0.076 C
ENDROOT
BRANCH   5  13
HETATM   13  C6  UNL     1     -22.514  -6.457  75.490  1.00  0.00     0.272 C
BRANCH  13  14
HETATM   14  N2  UNL     1     -21.669  -6.918  76.564  1.00  0.00    -0.068 N
ATOM     15  H22 UNL     1     -21.857  -7.888  76.813  1.00  0.00     0.277 HD
ATOM     16  H21 UNL     1     -20.698  -7.028  76.270  1.00  0.00     0.277 HD
BRANCH  14  17
HETATM   17  C7  UNL     1     -21.796  -6.036  77.689  1.00  0.00     0.186 A
HETATM   18  C8  UNL     1     -23.116  -5.549  78.168  1.00  0.00     0.035 A
HETATM   19  C9  UNL     1     -22.394  -6.604  78.948  1.00  0.00     0.035 A
ENDBRANCH  14  17
ENDBRANCH  13  14
ENDBRANCH   5  13
BRANCH   1  20
HETATM   20  N1  UNL     1     -26.826  -7.412  75.481  1.00  0.00     0.094 N
HETATM   21  C1  UNL     1     -27.042  -7.348  76.915  1.00  0.00     0.310 C
HETATM   22  C2  UNL     1     -27.705  -6.425  74.882  1.00  0.00     0.310 C
ENDBRANCH   1  20
TORSDOF 4
ENDMDL