MODEL 4
REMARK VINA RESULT: -6.997793947      1.726      2.563
REMARK  3 active torsions:
REMARK  status: ('A' for Active; 'I' for Inactive)
REMARK       I    between atoms: N2_8  and  C7_9
REMARK    1  A    between atoms: C7_9  and  C8_11
REMARK    2  A    between atoms: C8_11  and  N3_12
REMARK       I    between atoms: N3_12  and  C9_14
REMARK    3  A    between atoms: C9_14  and  C10_16
ROOT
HETATM    1  N1  UNL     1     -23.964  -9.484  74.673  1.00  0.00    -0.195 NA
HETATM    2  C1  UNL     1     -24.359  -8.394  74.784  1.00  0.00     0.084 C
HETATM    3  C2  UNL     1     -24.851  -7.028  74.929  1.00  0.00     0.194 C
HETATM    4  C3  UNL     1     -25.879  -6.688  73.909  1.00  0.00     0.040 C
HETATM    5  C4  UNL     1     -27.286  -6.985  74.331  1.00  0.00     0.004 C
HETATM    6  C5  UNL     1     -27.342  -7.681  75.682  1.00  0.00     0.020 C
HETATM    7  C6  UNL     1     -26.652  -6.762  76.670  1.00  0.00     0.127 C
HETATM    8  N2  UNL     1     -25.244  -6.719  76.292  1.00  0.00    -0.334 N
HETATM    9  C7  UNL     1     -24.298  -6.374  77.266  1.00  0.00     0.238 C
HETATM   10  O1  UNL     1     -23.070  -6.339  76.914  1.00  0.00    -0.272 OA
ENDROOT
BRANCH   9  11
HETATM   11  C8  UNL     1     -24.710  -6.066  78.637  1.00  0.00     0.225 C
BRANCH  11  12
HETATM   12  N3  UNL     1     -23.818  -5.181  79.350  1.00  0.00    -0.348 N
HETATM   13  C9  UNL     1     -23.978  -3.794  79.443  1.00  0.00     0.261 C
HETATM   14  O2  UNL     1     -24.936  -3.227  78.897  1.00  0.00    -0.267 OA
ATOM     15  H3  UNL     1     -23.014  -5.598  79.819  1.00  0.00     0.163 HD
BRANCH  13  16
HETATM   16  C10 UNL     1     -23.013  -3.008  80.189  1.00  0.00     0.107 A
HETATM   17  C11 UNL     1     -21.676  -2.791  79.935  1.00  0.00     0.133 A
HETATM   18  N4  UNL     1     -21.029  -2.038  80.767  1.00  0.00    -0.304 N
HETATM   19  N5  UNL     1     -21.636  -1.523  81.792  1.00  0.00    -0.269 N
ATOM     20  H4  UNL     1     -20.038  -1.849  80.616  1.00  0.00     0.186 HD
HETATM   21  S1  UNL     1     -23.213  -2.088  81.635  1.00  0.00     0.008 SA
ATOM     22  H5  UNL     1     -21.250  -0.919  82.518  1.00  0.00     0.195 HD
ENDBRANCH  13  16
ENDBRANCH  11  12
ENDBRANCH   9  11
TORSDOF 3
ENDMDL