MODEL 2
REMARK VINA RESULT: -4.819179568      8.504      9.398
REMARK  4 active torsions:
REMARK  status: ('A' for Active; 'I' for Inactive)
REMARK    1  A    between atoms: C2_2  and  O1_3
REMARK    2  A    between atoms: O1_3  and  C3_4
REMARK    3  A    between atoms: C3_4  and  C4_5
REMARK    4  A    between atoms: C4_5  and  O2_6
ROOT
HETATM    1  C4  UNL     1     -30.203  -7.853  79.624  1.00  0.00     0.151 C
HETATM    2  C5  UNL     1     -30.949  -8.910  78.853  1.00  0.00     0.196 C
HETATM    3  O3  UNL     1     -30.186  -9.847  79.592  1.00  0.00    -0.351 OA
HETATM    4  C6  UNL     1     -30.314  -8.924  80.660  1.00  0.00     0.182 C
HETATM    5 BR1  UNL     1     -29.087  -9.016  82.052  1.00  0.00    -0.048 Br
HETATM    6  C7  UNL     1     -31.793  -9.057  80.973  1.00  0.00     0.205 C
HETATM    7  O4  UNL     1     -32.358  -7.912  81.462  1.00  0.00    -0.344 OA
HETATM    8  C8  UNL     1     -33.587  -7.874  80.762  1.00  0.00     0.158 C
HETATM    9  C9  UNL     1     -34.336  -6.601  81.009  1.00  0.00     0.078 C
HETATM   10  C10 UNL     1     -34.462  -9.027  81.114  1.00  0.00     0.078 C
HETATM   11  O5  UNL     1     -33.094  -7.951  79.438  1.00  0.00    -0.345 OA
HETATM   12  C11 UNL     1     -32.291  -9.059  79.512  1.00  0.00     0.190 C
ENDROOT
BRANCH   1  13
HETATM   13  C3  UNL     1     -28.816  -7.613  79.160  1.00  0.00     0.212 C
BRANCH  13  14
HETATM   14  O1  UNL     1     -28.697  -7.476  77.786  1.00  0.00    -0.388 OA
BRANCH  14  15
HETATM   15  C2  UNL     1     -27.390  -7.200  77.402  1.00  0.00     0.163 C
HETATM   16  C1  UNL     1     -27.197  -7.116  75.926  1.00  0.00     0.033 C
ENDBRANCH  14  15
ENDBRANCH  13  14
ENDBRANCH   1  13
BRANCH   1  17
HETATM   17  O2  UNL     1     -30.874  -6.674  79.859  1.00  0.00    -0.381 OA
ATOM     18  H2  UNL     1     -31.782  -6.826  80.096  1.00  0.00     0.211 HD
ENDBRANCH   1  17
TORSDOF 4
ENDMDL