MODEL 2
REMARK VINA RESULT: -6.617654166      1.223      1.606
REMARK  3 active torsions:
REMARK  status: ('A' for Active; 'I' for Inactive)
REMARK    1  A    between atoms: C3_8  and  C4_9
REMARK       I    between atoms: C4_9  and  N3_11
REMARK    2  A    between atoms: N3_11  and  N4_13
REMARK    3  A    between atoms: C8_17  and  C9_18
ROOT
HETATM    1  C4  UNL     1     -23.815  -3.870  79.398  1.00  0.00     0.276 C
HETATM    2  O1  UNL     1     -24.551  -3.257  78.533  1.00  0.00    -0.266 OA
HETATM    3  N3  UNL     1     -23.274  -5.080  78.977  1.00  0.00    -0.284 N
ATOM      4  H3  UNL     1     -22.673  -5.602  79.615  1.00  0.00     0.184 HD
ENDROOT
BRANCH   1   5
HETATM    5  C3  UNL     1     -23.661  -3.200  80.681  1.00  0.00     0.115 A
HETATM    6  C2  UNL     1     -22.679  -2.442  81.247  1.00  0.00     0.046 A
HETATM    7  C1  UNL     1     -21.364  -2.092  80.569  1.00  0.00     0.071 C
HETATM    8  N1  UNL     1     -22.887  -2.024  82.473  1.00  0.00    -0.298 N
HETATM    9  N2  UNL     1     -23.965  -2.323  83.095  1.00  0.00    -0.269 N
ATOM     10  H1  UNL     1     -22.180  -1.452  82.937  1.00  0.00     0.187 HD
HETATM   11  S1  UNL     1     -24.817  -3.245  81.996  1.00  0.00     0.009 SA
ATOM     12  H2  UNL     1     -24.238  -2.060  84.042  1.00  0.00     0.195 HD
ENDBRANCH   1   5
BRANCH   3  13
HETATM   13  N4  UNL     1     -23.524  -5.597  77.723  1.00  0.00    -0.223 NA
HETATM   14  C5  UNL     1     -22.417  -5.848  76.869  1.00  0.00     0.114 C
HETATM   15  C6  UNL     1     -22.761  -7.049  75.998  1.00  0.00     0.018 C
HETATM   16  C7  UNL     1     -24.236  -7.217  76.246  1.00  0.00     0.023 C
HETATM   17  C8  UNL     1     -24.337  -6.791  77.712  1.00  0.00     0.089 C
BRANCH  17  18
HETATM   18  C9  UNL     1     -25.750  -6.569  78.150  1.00  0.00     0.106 C
HETATM   19 BR1  UNL     1     -26.947  -7.245  76.783  1.00  0.00    -0.095 Br
ENDBRANCH  17  18
ENDBRANCH   3  13
TORSDOF 3
ENDMDL