MODEL 5
REMARK VINA RESULT: -5.187814398      1.285      1.705
REMARK  5 active torsions:
REMARK  status: ('A' for Active; 'I' for Inactive)
REMARK    1  A    between atoms: C2_2  and  S1_4
REMARK    2  A    between atoms: S1_4  and  C4_5
REMARK    3  A    between atoms: C4_5  and  C5_7
REMARK    4  A    between atoms: C8_13  and  C9_14
REMARK    5  A    between atoms: C9_14  and  O4_15
ROOT
HETATM    1  C5  UNL     1     -23.663  -5.203  78.510  1.00  0.00     0.233 C
HETATM    2  O2  UNL     1     -22.841  -5.381  77.404  1.00  0.00    -0.371 OA
HETATM    3  C6  UNL     1     -22.981  -6.675  76.936  1.00  0.00     0.212 C
HETATM    4  C7  UNL     1     -24.357  -6.815  76.353  1.00  0.00     0.217 C
HETATM    5 BR1  UNL     1     -24.970  -8.663  76.403  1.00  0.00    -0.059 Br
HETATM    6  O3  UNL     1     -25.306  -6.023  76.939  1.00  0.00    -0.362 OA
HETATM    7  C8  UNL     1     -25.066  -5.685  78.246  1.00  0.00     0.183 C
ENDROOT
BRANCH   1   8
HETATM    8  C4  UNL     1     -23.709  -3.801  78.971  1.00  0.00     0.217 C
HETATM    9  O1  UNL     1     -24.761  -3.204  78.862  1.00  0.00    -0.282 OA
BRANCH   8  10
HETATM   10  S1  UNL     1     -22.337  -2.922  79.672  1.00  0.00    -0.086 SA
BRANCH  10  11
HETATM   11  C2  UNL     1     -22.851  -2.076  81.173  1.00  0.00     0.047 C
HETATM   12  C1  UNL     1     -21.635  -1.753  82.012  1.00  0.00     0.021 C
HETATM   13  C3  UNL     1     -23.819  -2.890  81.995  1.00  0.00     0.021 C
ENDBRANCH  10  11
ENDBRANCH   8  10
ENDBRANCH   1   8
BRANCH   7  14
HETATM   14  C9  UNL     1     -25.364  -6.815  79.211  1.00  0.00     0.199 C
BRANCH  14  15
HETATM   15  O4  UNL     1     -26.124  -6.356  80.285  1.00  0.00    -0.398 OA
ATOM     16  H4  UNL     1     -26.288  -7.058  80.904  1.00  0.00     0.209 HD
ENDBRANCH  14  15
ENDBRANCH   7  14
TORSDOF 5
ENDMDL