MODEL 2
REMARK VINA RESULT: -4.911032009      3.193      4.989
REMARK  3 active torsions:
REMARK  status: ('A' for Active; 'I' for Inactive)
REMARK    1  A    between atoms: N1_2  and  C2_5
REMARK    2  A    between atoms: C2_5  and  C3_6
REMARK    3  A    between atoms: C4_7  and  N2_8
ROOT
HETATM    1  C3  UNL     1     -23.460  -7.147  76.390  1.00  0.00     0.009 A
HETATM    2  C4  UNL     1     -24.795  -7.589  76.337  1.00  0.00     0.082 A
HETATM    3  S1  UNL     1     -25.570  -6.606  77.488  1.00  0.00    -0.064 SA
HETATM    4  C9  UNL     1     -24.252  -5.682  78.004  1.00  0.00     0.060 A
HETATM    5 BR1  UNL     1     -24.215  -4.275  79.336  1.00  0.00    -0.042 Br
HETATM    6  C10 UNL     1     -23.197  -6.162  77.257  1.00  0.00    -0.027 A
HETATM    7  C11 UNL     1     -21.812  -5.569  77.497  1.00  0.00     0.050 C
ENDROOT
BRANCH   2   8
HETATM    8  N2  UNL     1     -25.340  -8.606  75.509  1.00  0.00    -0.371 N
HETATM    9  C5  UNL     1     -24.922  -9.960  75.571  1.00  0.00     0.149 C
HETATM   10  C6  UNL     1     -24.794 -10.586  74.196  1.00  0.00     0.187 C
HETATM   11  O1  UNL     1     -25.564 -10.007  73.236  1.00  0.00    -0.388 OA
HETATM   12  C7  UNL     1     -25.676  -8.647  73.208  1.00  0.00     0.187 C
HETATM   13  C8  UNL     1     -26.352  -8.261  74.546  1.00  0.00     0.149 C
ENDBRANCH   2   8
BRANCH   1  14
HETATM   14  C2  UNL     1     -22.485  -7.867  75.471  1.00  0.00     0.273 C
BRANCH  14  15
HETATM   15  N1  UNL     1     -22.450  -7.321  74.154  1.00  0.00    -0.075 N
HETATM   16  C1  UNL     1     -21.975  -8.352  73.225  1.00  0.00     0.267 C
ATOM     17  H12 UNL     1     -21.897  -6.465  74.102  1.00  0.00     0.277 HD
ATOM     18  H11 UNL     1     -23.348  -6.929  73.872  1.00  0.00     0.277 HD
ENDBRANCH  14  15
ENDBRANCH   1  14
TORSDOF 3
ENDMDL