MODEL 2
REMARK VINA RESULT: -5.972909960      2.870      3.585
REMARK  3 active torsions:
REMARK  status: ('A' for Active; 'I' for Inactive)
REMARK    1  A    between atoms: C2_2  and  O1_3
REMARK    2  A    between atoms: O1_3  and  C3_4
REMARK    3  A    between atoms: C8_14  and  C9_15
ROOT
HETATM    1  C1  UNL     1     -25.113  -4.041  78.297  1.00  0.00     0.048 C
HETATM    2  C2  UNL     1     -24.221  -5.176  78.763  1.00  0.00     0.082 C
HETATM    3  C7  UNL     1     -23.814  -5.944  77.531  1.00  0.00     0.157 C
HETATM    4  N1  UNL     1     -25.130  -6.437  77.091  1.00  0.00    -0.390 N
ATOM      5  H1  UNL     1     -25.393  -6.610  76.120  1.00  0.00     0.159 HD
HETATM    6  C8  UNL     1     -25.903  -6.618  78.107  1.00  0.00     0.008 C
HETATM    7  C11 UNL     1     -25.165  -6.240  79.357  1.00  0.00     0.096 C
ENDROOT
BRANCH   2   8
HETATM    8  O1  UNL     1     -23.286  -4.882  79.662  1.00  0.00    -0.339 OA
BRANCH   8   9
HETATM    9  C3  UNL     1     -22.798  -3.667  79.875  1.00  0.00     0.362 C
HETATM   10  O2  UNL     1     -22.995  -3.178  81.211  1.00  0.00    -0.350 OA
HETATM   11  C4  UNL     1     -22.635  -1.831  81.120  1.00  0.00     0.198 C
HETATM   12  C5  UNL     1     -21.143  -1.774  81.306  1.00  0.00     0.205 C
HETATM   13  O3  UNL     1     -20.592  -2.774  80.425  1.00  0.00    -0.316 OA
HETATM   14  C6  UNL     1     -21.407  -3.376  79.472  1.00  0.00     0.314 C
HETATM   15  O4  UNL     1     -20.987  -3.649  78.350  1.00  0.00    -0.260 OA
ENDBRANCH   8   9
ENDBRANCH   2   8
BRANCH   6  16
HETATM   16  C9  UNL     1     -27.279  -7.091  78.134  1.00  0.00     0.032 C
HETATM   17  C10 UNL     1     -27.983  -7.137  79.245  1.00  0.00     0.058 C
HETATM   18 BR1  UNL     1     -29.780  -7.746  79.317  1.00  0.00    -0.064 Br
ENDBRANCH   6  16
TORSDOF 3
ENDMDL