MODEL 5
REMARK VINA RESULT: -6.362771189      2.008      2.413
REMARK  3 active torsions:
REMARK  status: ('A' for Active; 'I' for Inactive)
REMARK       I    between atoms: C1_2  and  N1_3
REMARK    1  A    between atoms: C1_2  and  C7_11
REMARK    2  A    between atoms: N1_3  and  C2_5
REMARK    3  A    between atoms: C9_15  and  N3_16
ROOT
HETATM    1  C7  UNL     1     -24.366  -6.433  77.370  1.00  0.00     0.091 A
HETATM    2  C8  UNL     1     -23.047  -6.100  77.203  1.00  0.00     0.115 A
HETATM    3  N2  UNL     1     -22.547  -5.179  77.953  1.00  0.00    -0.345 N
ATOM      4  H2  UNL     1     -21.568  -4.913  77.847  1.00  0.00     0.167 HD
HETATM    5  C9  UNL     1     -23.300  -4.577  78.860  1.00  0.00     0.147 A
HETATM    6  S1  UNL     1     -24.805  -5.356  78.643  1.00  0.00    -0.047 SA
ENDROOT
BRANCH   1   7
HETATM    7  C1  UNL     1     -25.165  -7.429  76.657  1.00  0.00     0.260 C
HETATM    8  O1  UNL     1     -26.355  -7.631  77.018  1.00  0.00    -0.267 OA
HETATM    9  N1  UNL     1     -24.571  -8.127  75.590  1.00  0.00    -0.352 N
ATOM     10  H1  UNL     1     -23.606  -7.943  75.319  1.00  0.00     0.163 HD
BRANCH   9  11
HETATM   11  C2  UNL     1     -25.372  -9.123  74.880  1.00  0.00     0.087 C
HETATM   12  C3  UNL     1     -24.962 -10.486  75.347  1.00  0.00     0.028 C
HETATM   13  C4  UNL     1     -24.510 -11.238  74.124  1.00  0.00     0.039 C
HETATM   14  C5  UNL     1     -23.978 -10.094  73.251  1.00  0.00     0.172 C
HETATM   15  F1  UNL     1     -22.769  -9.633  73.682  1.00  0.00    -0.249 F
HETATM   16  C6  UNL     1     -25.065  -9.074  73.382  1.00  0.00     0.062 C
ENDBRANCH   9  11
ENDBRANCH   1   7
BRANCH   5  17
HETATM   17  N3  UNL     1     -22.946  -3.556  79.769  1.00  0.00    -0.357 N
HETATM   18  C10 UNL     1     -23.904  -3.092  80.736  1.00  0.00     0.151 C
HETATM   19  C11 UNL     1     -23.128  -2.932  82.045  1.00  0.00     0.187 C
HETATM   20  O2  UNL     1     -22.162  -1.970  81.951  1.00  0.00    -0.388 OA
HETATM   21  C12 UNL     1     -21.634  -1.743  80.711  1.00  0.00     0.187 C
HETATM   22  C13 UNL     1     -21.647  -2.938  79.783  1.00  0.00     0.151 C
ENDBRANCH   5  17
TORSDOF 3
ENDMDL