MODEL 2
REMARK VINA RESULT: -6.196511995      1.324      2.051
REMARK  9 active torsions:
REMARK  status: ('A' for Active; 'I' for Inactive)
REMARK    1  A    between atoms: C2_2  and  C4_4
REMARK    2  A    between atoms: C4_4  and  C5_5
REMARK    3  A    between atoms: C5_5  and  C6_6
REMARK    4  A    between atoms: C6_6  and  C7_7
REMARK    5  A    between atoms: C7_7  and  N1_8
REMARK    6  A    between atoms: C7_7  and  N2_12
REMARK    7  A    between atoms: N3_15  and  C10_16
REMARK    8  A    between atoms: C10_16  and  C11_17
REMARK    9  A    between atoms: C11_17  and  N4_18
ROOT
HETATM    1  N2  UNL     1       1.417   4.518  81.657  1.00  0.00     0.122 N
HETATM    2  C8  UNL     1       1.681   4.072  83.002  1.00  0.00     0.305 C
HETATM    3  C9  UNL     1       0.792   4.848  83.954  1.00  0.00     0.302 C
HETATM    4  N3  UNL     1      -0.568   4.555  83.650  1.00  0.00     0.093 N
HETATM    5  C13 UNL     1      -0.822   3.883  82.420  1.00  0.00     0.302 C
HETATM    6  C14 UNL     1       0.058   4.302  81.266  1.00  0.00     0.305 C
ENDROOT
BRANCH   1   7
HETATM    7  C7  UNL     1       2.412   3.940  80.783  1.00  0.00     0.417 C
BRANCH   7   8
HETATM    8  C6  UNL     1       2.885   2.606  81.199  1.00  0.00     0.065 C
BRANCH   8   9
HETATM    9  C5  UNL     1       2.115   1.476  80.616  1.00  0.00     0.004 C
BRANCH   9  10
HETATM   10  C4  UNL     1       1.156   0.717  81.429  1.00  0.00     0.004 C
BRANCH  10  11
HETATM   11  C2  UNL     1       0.370  -0.366  80.803  1.00  0.00    -0.023 C
HETATM   12  C1  UNL     1      -1.118   0.038  80.693  1.00  0.00     0.009 C
HETATM   13  C3  UNL     1       0.432  -1.748  81.284  1.00  0.00     0.009 C
ENDBRANCH  10  11
ENDBRANCH   9  10
ENDBRANCH   8   9
ENDBRANCH   7   8
BRANCH   7  14
HETATM   14  N1  UNL     1       1.883   3.995  79.459  1.00  0.00    -0.048 N
ATOM     15  H13 UNL     1       2.501   4.531  78.851  1.00  0.00     0.276 HD
ATOM     16  H12 UNL     1       1.948   3.080  79.012  1.00  0.00     0.276 HD
ATOM     17  H11 UNL     1       0.930   4.353  79.398  1.00  0.00     0.276 HD
ENDBRANCH   7  14
ENDBRANCH   1   7
BRANCH   4  18
HETATM   18  C10 UNL     1      -1.142   3.792  84.764  1.00  0.00     0.292 C
BRANCH  18  19
HETATM   19  C11 UNL     1      -0.900   2.304  84.586  1.00  0.00     0.152 C
BRANCH  19  20
HETATM   20  N4  UNL     1      -1.839   1.602  85.428  1.00  0.00    -0.365 N
HETATM   21  C12 UNL     1      -1.460   0.658  86.203  1.00  0.00     0.197 C
HETATM   22  N5  UNL     1      -2.364  -0.043  87.035  1.00  0.00    -0.067 NA
HETATM   23  N6  UNL     1      -0.087   0.294  86.235  1.00  0.00    -0.067 NA
ATOM     24  H4  UNL     1      -2.825   1.864  85.404  1.00  0.00     0.161 HD
ENDBRANCH  19  20
ENDBRANCH  18  19
ENDBRANCH   4  18
TORSDOF 9
ENDMDL