MODEL 1
REMARK VINA RESULT: -6.938016151      0.000      0.000
REMARK  9 active torsions:
REMARK  status: ('A' for Active; 'I' for Inactive)
REMARK    1  A    between atoms: C3_5  and  N2_6
REMARK    2  A    between atoms: C3_5  and  C13_21
REMARK    3  A    between atoms: N2_6  and  C4_8
REMARK    4  A    between atoms: C4_8  and  C5_9
REMARK    5  A    between atoms: C4_8  and  C6_12
REMARK    6  A    between atoms: C5_9  and  O1_10
REMARK    7  A    between atoms: C6_12  and  C7_13
REMARK    8  A    between atoms: C7_13  and  C8_14
REMARK    9  A    between atoms: C10_18  and  C11_19
ROOT
HETATM    1  C1  UNL     1       4.467   3.685  81.001  1.00  0.00     0.123 C
HETATM    2  C2  UNL     1       3.264   3.480  81.129  1.00  0.00    -0.074 C
HETATM    3  N1  UNL     1       1.935   3.220  81.258  1.00  0.00    -0.315 N
ATOM      4  H1  UNL     1       1.628   2.347  80.829  1.00  0.00     0.176 HD
HETATM    5  C3  UNL     1       1.029   3.874  81.815  1.00  0.00     0.088 C
ENDROOT
BRANCH   5   6
HETATM    6  N2  UNL     1      -0.299   3.246  81.737  1.00  0.00    -0.372 N
ATOM      7  H2  UNL     1      -1.028   3.699  81.186  1.00  0.00     0.161 HD
BRANCH   6   8
HETATM    8  C4  UNL     1      -0.603   2.019  82.408  1.00  0.00     0.107 C
BRANCH   8   9
HETATM    9  C5  UNL     1      -1.030   0.925  81.403  1.00  0.00     0.189 C
BRANCH   9  10
HETATM   10  O1  UNL     1      -1.289   1.431  80.155  1.00  0.00    -0.399 OA
ATOM     11  H1  UNL     1      -2.179   1.262  79.871  1.00  0.00     0.209 HD
ENDBRANCH   9  10
ENDBRANCH   8   9
BRANCH   8  12
HETATM   12  C6  UNL     1      -1.689   2.210  83.395  1.00  0.00     0.046 C
BRANCH  12  13
HETATM   13  C7  UNL     1      -1.389   1.971  84.829  1.00  0.00     0.048 A
HETATM   14  C9  UNL     1      -1.117   3.071  85.815  1.00  0.00     0.029 A
HETATM   15  C10 UNL     1      -2.470   2.514  85.756  1.00  0.00     0.026 A
BRANCH  13  16
HETATM   16  C8  UNL     1      -0.775   0.677  85.244  1.00  0.00     0.240 C
HETATM   17  N3  UNL     1       0.299   0.696  86.157  1.00  0.00    -0.061 NA
HETATM   18  O2  UNL     1      -1.160  -0.436  84.821  1.00  0.00    -0.276 OA
ENDBRANCH  13  16
BRANCH  15  19
HETATM   19  C11 UNL     1      -3.091   1.663  86.773  1.00  0.00    -0.031 C
HETATM   20  C12 UNL     1      -2.731   1.786  88.040  1.00  0.00     0.007 C
ENDBRANCH  15  19
ENDBRANCH  12  13
ENDBRANCH   8  12
ENDBRANCH   6   8
ENDBRANCH   5   6
BRANCH   5  21
HETATM   21  C13 UNL     1       1.136   5.147  82.531  1.00  0.00     0.054 C
HETATM   22  C14 UNL     1       1.481   5.053  83.989  1.00  0.00     0.012 C
HETATM   23  C15 UNL     1       0.321   5.959  84.305  1.00  0.00     0.002 C
HETATM   24  C16 UNL     1      -0.166   5.811  82.891  1.00  0.00     0.012 C
ENDBRANCH   5  21
TORSDOF 9
ENDMDL