MODEL 3
REMARK VINA RESULT: -6.146229350      2.703      3.598
REMARK  7 active torsions:
REMARK  status: ('A' for Active; 'I' for Inactive)
REMARK    1  A    between atoms: C3_3  and  C4_4
REMARK    2  A    between atoms: C4_4  and  N1_5
REMARK    3  A    between atoms: N4_16  and  C10_18
REMARK    4  A    between atoms: C10_18  and  C11_19
REMARK    5  A    between atoms: C11_19  and  N5_20
REMARK    6  A    between atoms: N5_20  and  C12_21
REMARK    7  A    between atoms: N5_20  and  C14_23
ROOT
HETATM    1  C1  UNL     1      -2.699   2.170  88.550  1.00  0.00     0.012 C
HETATM    2  C2  UNL     1      -2.310   1.465  87.652  1.00  0.00    -0.116 C
HETATM    3  C3  UNL     1      -1.865   0.602  86.561  1.00  0.00     0.113 C
ENDROOT
BRANCH   3   4
HETATM    4  C4  UNL     1      -0.452   1.033  86.133  1.00  0.00     0.150 C
BRANCH   4   5
HETATM    5  N1  UNL     1      -0.568   2.234  85.390  1.00  0.00    -0.225 N
HETATM    6  C5  UNL     1      -0.653   2.384  84.131  1.00  0.00     0.694 A
HETATM    7  N2  UNL     1      -0.636   1.253  83.239  1.00  0.00    -0.176 N
HETATM    8  N6  UNL     1      -0.731   3.723  83.591  1.00  0.00    -0.022 N
HETATM    9  C6  UNL     1      -0.693   1.471  81.832  1.00  0.00     0.132 A
ATOM     10  H2  UNL     1      -0.584   0.305  83.611  1.00  0.00     0.186 HD
HETATM   11  C7  UNL     1      -0.657   0.441  81.032  1.00  0.00     0.019 C
HETATM   12  N3  UNL     1      -0.769   2.820  81.329  1.00  0.00    -0.176 N
HETATM   13  C8  UNL     1      -0.557  -0.958  81.504  1.00  0.00     0.040 C
HETATM   14  C9  UNL     1      -0.788   3.945  82.192  1.00  0.00     0.694 A
ATOM     15  H3  UNL     1      -0.811   2.970  80.321  1.00  0.00     0.186 HD
HETATM   16  N4  UNL     1      -0.823   5.138  81.769  1.00  0.00    -0.224 N
ATOM     17  H4  UNL     1      -0.837   5.887  82.460  1.00  0.00     0.177 HD
ATOM     18  H6  UNL     1      -0.746   4.521  84.227  1.00  0.00     0.203 HD
ATOM     19  H1  UNL     1      -0.587   3.093  85.940  1.00  0.00     0.177 HD
BRANCH  16  20
HETATM   20  C10 UNL     1      -0.844   5.509  80.360  1.00  0.00     0.168 C
BRANCH  20  21
HETATM   21  C11 UNL     1      -0.886   6.985  80.183  1.00  0.00     0.292 C
BRANCH  21  22
HETATM   22  N5  UNL     1      -2.153   7.512  79.759  1.00  0.00     0.089 N
BRANCH  22  23
HETATM   23  C12 UNL     1      -2.811   8.225  80.785  1.00  0.00     0.268 C
HETATM   24  C13 UNL     1      -3.725   7.512  81.698  1.00  0.00     0.037 C
ENDBRANCH  22  23
BRANCH  22  25
HETATM   25  C14 UNL     1      -2.837   6.528  79.024  1.00  0.00     0.268 C
HETATM   26  C15 UNL     1      -3.832   6.980  77.999  1.00  0.00     0.037 C
ENDBRANCH  22  25
ENDBRANCH  21  22
ENDBRANCH  20  21
ENDBRANCH  16  20
ENDBRANCH   4   5
ENDBRANCH   3   4
TORSDOF 7
ENDMDL