MODEL 5
REMARK VINA RESULT: -6.325055578      2.052      6.923
REMARK  7 active torsions:
REMARK  status: ('A' for Active; 'I' for Inactive)
REMARK    1  A    between atoms: C2_2  and  C4_4
REMARK    2  A    between atoms: C4_4  and  N1_5
REMARK    3  A    between atoms: C4_4  and  C6_9
REMARK    4  A    between atoms: N1_5  and  C5_7
REMARK       I    between atoms: C6_9  and  N2_11
REMARK    5  A    between atoms: N2_11  and  C7_13
REMARK    6  A    between atoms: C11_17  and  C12_18
REMARK       I    between atoms: C12_18  and  N3_20
REMARK    7  A    between atoms: N3_20  and  C13_22
ROOT
HETATM    1  C7  UNL     1       0.330   2.593  83.354  1.00  0.00     0.097 C
HETATM    2  C8  UNL     1      -1.149   2.476  83.018  1.00  0.00     0.026 C
HETATM    3  C9  UNL     1      -1.886   3.423  83.903  1.00  0.00     0.003 C
HETATM    4  C10 UNL     1      -0.811   4.236  84.601  1.00  0.00     0.016 C
HETATM    5  C11 UNL     1       0.305   3.221  84.708  1.00  0.00     0.100 C
ENDROOT
BRANCH   1   6
HETATM    6  N2  UNL     1       1.049   3.340  82.374  1.00  0.00    -0.354 N
HETATM    7  C6  UNL     1       2.007   2.770  81.525  1.00  0.00     0.241 C
HETATM    8  O2  UNL     1       2.212   1.528  81.670  1.00  0.00    -0.271 OA
ATOM      9  H2  UNL     1       0.857   4.338  82.287  1.00  0.00     0.162 HD
BRANCH   7  10
HETATM   10  C4  UNL     1       2.785   3.451  80.501  1.00  0.00     0.179 C
BRANCH  10  11
HETATM   11  C2  UNL     1       4.161   3.875  80.881  1.00  0.00     0.009 C
HETATM   12  C1  UNL     1       5.154   3.735  79.734  1.00  0.00     0.012 C
HETATM   13  C3  UNL     1       4.272   5.166  81.603  1.00  0.00     0.012 C
ENDBRANCH  10  11
BRANCH  10  14
HETATM   14  N1  UNL     1       2.079   4.636  80.074  1.00  0.00    -0.355 N
ATOM     15  H1  UNL     1       2.273   5.540  80.505  1.00  0.00     0.162 HD
BRANCH  14  16
HETATM   16  C5  UNL     1       1.109   4.519  79.043  1.00  0.00     0.349 C
HETATM   17  O1  UNL     1      -0.034   4.139  79.324  1.00  0.00    -0.284 OA
ENDBRANCH  14  16
ENDBRANCH  10  14
ENDBRANCH   7  10
ENDBRANCH   1   6
BRANCH   5  18
HETATM   18  C12 UNL     1      -0.170   2.165  85.670  1.00  0.00     0.224 C
HETATM   19  O3  UNL     1       0.545   1.181  85.981  1.00  0.00    -0.273 OA
HETATM   20  N3  UNL     1      -1.461   2.250  86.263  1.00  0.00    -0.356 N
ATOM     21  H3  UNL     1      -2.066   3.038  86.030  1.00  0.00     0.162 HD
BRANCH  20  22
HETATM   22  C13 UNL     1      -1.930   1.257  87.180  1.00  0.00     0.084 A
HETATM   23  C14 UNL     1      -3.339   0.879  87.300  1.00  0.00     0.027 A
HETATM   24  C15 UNL     1      -2.780   1.821  88.335  1.00  0.00     0.027 A
ENDBRANCH  20  22
ENDBRANCH   5  18
TORSDOF 7
ENDMDL