MODEL 3
REMARK VINA RESULT: -7.328374708      2.373      4.539
REMARK  7 active torsions:
REMARK  status: ('A' for Active; 'I' for Inactive)
REMARK    1  A    between atoms: N2_4  and  N3_6
REMARK    2  A    between atoms: C1_8  and  N4_9
REMARK    3  A    between atoms: C5_17  and  C6_18
REMARK       I    between atoms: C6_18  and  N6_20
REMARK    4  A    between atoms: N6_20  and  C7_22
REMARK    5  A    between atoms: C7_22  and  C8_23
REMARK    6  A    between atoms: C7_22  and  C12_27
REMARK    7  A    between atoms: C8_23  and  C9_24
ROOT
HETATM    1  N4  UNL     1       1.531   2.483  82.300  1.00  0.00    -0.356 N
ATOM      2  H4  UNL     1       1.171   2.705  83.228  1.00  0.00     0.166 HD
HETATM    3  C2  UNL     1       1.074   1.454  81.704  1.00  0.00     0.029 C
HETATM    4  C3  UNL     1       1.505   1.003  80.346  1.00  0.00     0.082 C
HETATM    5  C4  UNL     1       0.729  -0.307  80.153  1.00  0.00     0.239 C
HETATM    6  N5  UNL     1      -0.503   0.017  80.884  1.00  0.00    -0.057 N
ATOM      7  H51 UNL     1      -1.189  -0.735  80.952  1.00  0.00     0.278 HD
ATOM      8  H52 UNL     1      -1.137   0.666  80.418  1.00  0.00     0.278 HD
HETATM    9  C5  UNL     1       0.063   0.481  82.158  1.00  0.00     0.322 C
ENDROOT
BRANCH   9  10
HETATM   10  C6  UNL     1      -0.958   1.091  83.011  1.00  0.00     0.255 C
HETATM   11  O1  UNL     1      -1.925   1.723  82.482  1.00  0.00    -0.271 OA
HETATM   12  N6  UNL     1      -0.919   1.009  84.415  1.00  0.00    -0.346 N
ATOM     13  H6  UNL     1      -0.143   0.505  84.844  1.00  0.00     0.163 HD
BRANCH  12  14
HETATM   14  C7  UNL     1      -1.914   1.598  85.288  1.00  0.00     0.174 C
BRANCH  14  15
HETATM   15  C8  UNL     1      -1.576   3.010  85.707  1.00  0.00     0.039 C
BRANCH  15  16
HETATM   16  C9  UNL     1      -2.474   3.963  84.987  1.00  0.00    -0.012 A
HETATM   17  C10 UNL     1      -2.337   5.410  85.421  1.00  0.00     0.005 A
HETATM   18  C11 UNL     1      -1.940   4.990  84.062  1.00  0.00     0.005 A
ENDBRANCH  15  16
ENDBRANCH  14  15
BRANCH  14  19
HETATM   19  C12 UNL     1      -2.117   0.726  86.493  1.00  0.00     0.254 C
HETATM   20  N7  UNL     1      -3.426   0.273  86.773  1.00  0.00    -0.060 NA
HETATM   21  O2  UNL     1      -1.185   0.383  87.259  1.00  0.00    -0.275 OA
ENDBRANCH  14  19
ENDBRANCH  12  14
ENDBRANCH   9  10
BRANCH   1  22
HETATM   22  C1  UNL     1       2.515   3.337  81.737  1.00  0.00     0.199 C
HETATM   23  N3  UNL     1       3.724   3.394  82.140  1.00  0.00    -0.282 N
ATOM     24  H3  UNL     1       4.040   2.806  82.911  1.00  0.00     0.189 HD
BRANCH  23  25
HETATM   25  N2  UNL     1       4.608   4.269  81.515  1.00  0.00    -0.248 N
HETATM   26  N1  UNL     1       5.823   4.235  81.831  1.00  0.00    -0.331 N
ATOM     27  H12 UNL     1       6.141   3.571  82.537  1.00  0.00     0.178 HD
ATOM     28  H11 UNL     1       6.471   4.876  81.373  1.00  0.00     0.178 HD
ATOM     29  H2  UNL     1       4.275   4.927  80.811  1.00  0.00     0.207 HD
ENDBRANCH  23  25
ENDBRANCH   1  22
TORSDOF 7
ENDMDL