MODEL 4
REMARK VINA RESULT: -6.289827886      1.738      3.474
REMARK  8 active torsions:
REMARK  status: ('A' for Active; 'I' for Inactive)
REMARK    1  A    between atoms: C2_2  and  C3_3
REMARK    2  A    between atoms: C2_2  and  N2_14
REMARK    3  A    between atoms: C3_3  and  N1_4
REMARK    4  A    between atoms: N1_4  and  C5_7
REMARK    5  A    between atoms: C7_9  and  C8_10
REMARK    6  A    between atoms: N2_14  and  C10_16
REMARK    7  A    between atoms: C10_16  and  C11_17
REMARK    8  A    between atoms: C11_17  and  N3_18
ROOT
HETATM    1  C3  UNL     1       0.442   3.870  83.891  1.00  0.00     0.336 C
ENDROOT
BRANCH   1   2
HETATM    2  C2  UNL     1       0.778   3.780  82.441  1.00  0.00     0.110 C
HETATM    3  C1  UNL     1       1.083   5.132  81.864  1.00  0.00     0.034 C
BRANCH   2   4
HETATM    4  N2  UNL     1       1.731   2.810  82.074  1.00  0.00    -0.394 N
ATOM      5  H2  UNL     1       2.556   2.675  82.659  1.00  0.00     0.159 HD
BRANCH   4   6
HETATM    6  C10 UNL     1       1.569   2.029  80.925  1.00  0.00     0.086 C
BRANCH   6   7
HETATM    7  C11 UNL     1       1.854   0.587  81.030  1.00  0.00     0.316 C
BRANCH   7   8
HETATM    8  N3  UNL     1       0.808  -0.275  80.503  1.00  0.00     0.093 N
HETATM    9  C12 UNL     1       0.607  -1.497  81.235  1.00  0.00     0.274 C
HETATM   10  C13 UNL     1      -0.750  -1.054  81.677  1.00  0.00     0.060 C
HETATM   11  C14 UNL     1      -0.542   0.089  80.702  1.00  0.00     0.274 C
ENDBRANCH   7   8
ENDBRANCH   6   7
ENDBRANCH   4   6
ENDBRANCH   2   4
ENDBRANCH   1   2
BRANCH   1  12
HETATM   12  N1  UNL     1      -0.965   3.593  84.177  1.00  0.00     0.016 N
HETATM   13  C4  UNL     1      -1.261   2.456  83.255  1.00  0.00     0.357 C
HETATM   14  O1  UNL     1      -1.716   4.569  83.690  1.00  0.00    -0.064 OA
BRANCH  12  15
HETATM   15  C5  UNL     1      -1.235   3.124  85.463  1.00  0.00     0.256 C
HETATM   16  C6  UNL     1      -2.654   2.755  85.855  1.00  0.00     0.057 C
HETATM   17  C7  UNL     1      -1.988   1.784  86.848  1.00  0.00     0.092 C
HETATM   18  C9  UNL     1      -0.843   1.726  85.845  1.00  0.00     0.057 C
BRANCH  17  19
HETATM   19  C8  UNL     1      -2.745   0.525  87.012  1.00  0.00     0.177 C
HETATM   20  O2  UNL     1      -3.997   0.556  86.977  1.00  0.00    -0.648 OA
HETATM   21  O3  UNL     1      -2.097  -0.663  87.198  1.00  0.00    -0.648 OA
ENDBRANCH  17  19
ENDBRANCH  12  15
ENDBRANCH   1  12
TORSDOF 8
ENDMDL