MODEL 3
REMARK VINA RESULT: -6.064634147      1.801      3.262
REMARK  9 active torsions:
REMARK  status: ('A' for Active; 'I' for Inactive)
REMARK    1  A    between atoms: C2_2  and  C4_4
REMARK    2  A    between atoms: C4_4  and  N1_5
REMARK    3  A    between atoms: N1_5  and  C5_6
REMARK    4  A    between atoms: C5_6  and  C6_7
REMARK    5  A    between atoms: C6_7  and  C7_8
REMARK    6  A    between atoms: C7_8  and  C8_9
REMARK    7  A    between atoms: C8_9  and  N2_10
REMARK    8  A    between atoms: C14_18  and  O1_19
REMARK    9  A    between atoms: C15_21  and  O2_22
ROOT
HETATM    1  N1  UNL     1      -0.814   1.987  84.812  1.00  0.00    -0.036 N
HETATM    2  C13 UNL     1      -1.524   2.487  83.665  1.00  0.00     0.276 C
HETATM    3  C14 UNL     1      -0.802   1.545  82.719  1.00  0.00     0.201 C
HETATM    4  C15 UNL     1      -0.375   0.864  83.980  1.00  0.00     0.354 C
ENDROOT
BRANCH   1   5
HETATM    5  C4  UNL     1      -1.567   1.562  85.934  1.00  0.00     0.244 C
BRANCH   5   6
HETATM    6  C2  UNL     1      -2.982   2.049  86.022  1.00  0.00     0.003 C
HETATM    7  C1  UNL     1      -3.729   1.011  86.877  1.00  0.00     0.011 C
HETATM    8  C3  UNL     1      -3.095   3.348  86.786  1.00  0.00     0.011 C
ENDBRANCH   5   6
ENDBRANCH   1   5
BRANCH   1   9
HETATM    9  C5  UNL     1       0.278   2.824  85.240  1.00  0.00     0.241 C
BRANCH   9  10
HETATM   10  C6  UNL     1       0.252   4.211  84.695  1.00  0.00     0.030 C
BRANCH  10  11
HETATM   11  C7  UNL     1       1.660   4.443  84.141  1.00  0.00     0.032 C
BRANCH  11  12
HETATM   12  C8  UNL     1       1.719   4.371  82.655  1.00  0.00     0.272 C
BRANCH  12  13
HETATM   13  N2  UNL     1       2.917   3.849  82.111  1.00  0.00     0.091 N
HETATM   14  C9  UNL     1       3.583   4.812  81.258  1.00  0.00     0.291 C
HETATM   15  C10 UNL     1       2.827   5.111  79.994  1.00  0.00     0.144 C
HETATM   16  N3  UNL     1       2.399   3.960  79.269  1.00  0.00    -0.418 N
HETATM   17  C11 UNL     1       1.974   2.850  80.064  1.00  0.00     0.144 C
ATOM     18  H3  UNL     1       2.396   3.930  78.250  1.00  0.00     0.153 HD
HETATM   19  C12 UNL     1       2.714   2.664  81.339  1.00  0.00     0.291 C
ENDBRANCH  12  13
ENDBRANCH  11  12
ENDBRANCH  10  11
ENDBRANCH   9  10
ENDBRANCH   1   9
BRANCH   4  20
HETATM   20  O2  UNL     1      -1.005  -0.337  84.237  1.00  0.00    -0.367 OA
ATOM     21  H2  UNL     1      -0.431  -1.044  84.504  1.00  0.00     0.212 HD
ENDBRANCH   4  20
BRANCH   3  22
HETATM   22  O1  UNL     1      -1.654   0.758  81.942  1.00  0.00    -0.389 OA
ATOM     23  H1  UNL     1      -1.223   0.322  81.217  1.00  0.00     0.210 HD
ENDBRANCH   3  22
TORSDOF 9
ENDMDL