MODEL 2
REMARK VINA RESULT: -6.041132273      1.979      6.064
REMARK  8 active torsions:
REMARK  status: ('A' for Active; 'I' for Inactive)
REMARK    1  A    between atoms: N1_2  and  C4_5
REMARK    2  A    between atoms: C4_5  and  C5_6
REMARK    3  A    between atoms: C5_6  and  C6_7
REMARK    4  A    between atoms: C6_7  and  N2_8
REMARK       I    between atoms: N2_8  and  C7_10
REMARK       I    between atoms: C7_10  and  N4_15
REMARK    5  A    between atoms: N3_11  and  O1_13
REMARK    6  A    between atoms: N4_15  and  C8_17
REMARK    7  A    between atoms: C8_17  and  C9_18
REMARK    8  A    between atoms: C9_18  and  N5_19
ROOT
HETATM    1  N2  UNL     1      -1.187   3.902  83.710  1.00  0.00    -0.225 N
ATOM      2  H2  UNL     1      -1.107   4.519  82.901  1.00  0.00     0.177 HD
HETATM    3  C7  UNL     1      -0.502   2.657  83.663  1.00  0.00     0.693 C
HETATM    4  N3  UNL     1       0.629   2.601  84.258  1.00  0.00    -0.099 N
ATOM      5  H3  UNL     1       1.150   1.724  84.246  1.00  0.00     0.213 HD
HETATM    6  N4  UNL     1      -0.999   1.512  83.005  1.00  0.00    -0.223 N
ATOM      7  H4  UNL     1      -1.948   1.222  83.239  1.00  0.00     0.177 HD
ENDROOT
BRANCH   1   8
HETATM    8  C6  UNL     1      -1.987   4.351  84.822  1.00  0.00     0.140 C
BRANCH   8   9
HETATM    9  C5  UNL     1      -2.985   3.326  85.301  1.00  0.00     0.048 C
BRANCH   9  10
HETATM   10  C4  UNL     1      -3.030   3.109  86.764  1.00  0.00     0.237 C
BRANCH  10  11
HETATM   11  N1  UNL     1      -2.674   1.848  87.287  1.00  0.00    -0.079 N
HETATM   12  C1  UNL     1      -2.580   1.891  88.738  1.00  0.00     0.271 C
HETATM   13  C2  UNL     1      -1.459   1.269  86.795  1.00  0.00     0.271 C
HETATM   14  C3  UNL     1      -3.761   0.921  86.984  1.00  0.00     0.271 C
ENDBRANCH  10  11
ENDBRANCH   9  10
ENDBRANCH   8   9
ENDBRANCH   1   8
BRANCH   4  15
HETATM   15  O1  UNL     1       1.157   3.668  84.904  1.00  0.00    -0.276 OA
ATOM     16  H1  UNL     1       1.412   3.630  85.818  1.00  0.00     0.245 HD
ENDBRANCH   4  15
BRANCH   6  17
HETATM   17  C8  UNL     1      -0.305   0.723  82.044  1.00  0.00     0.158 C
BRANCH  17  18
HETATM   18  C9  UNL     1      -0.175   1.347  80.673  1.00  0.00     0.142 C
BRANCH  18  19
HETATM   19  N5  UNL     1       1.041   2.063  80.593  1.00  0.00    -0.388 N
HETATM   20  C10 UNL     1       2.231   1.479  81.037  1.00  0.00     0.084 C
HETATM   21  C11 UNL     1       3.217   2.566  81.422  1.00  0.00     0.212 C
HETATM   22  O2  UNL     1       2.582   3.544  82.142  1.00  0.00    -0.385 OA
HETATM   23  C12 UNL     1       1.671   4.285  81.403  1.00  0.00     0.187 C
HETATM   24  C13 UNL     1       0.992   3.452  80.344  1.00  0.00     0.148 C
ENDBRANCH  18  19
ENDBRANCH  17  18
ENDBRANCH   6  17
TORSDOF 8
ENDMDL