MODEL 4
REMARK VINA RESULT: -6.878727260      2.572      3.282
REMARK  8 active torsions:
REMARK  status: ('A' for Active; 'I' for Inactive)
REMARK    1  A    between atoms: C2_2  and  C3_3
REMARK    2  A    between atoms: C2_2  and  N4_21
REMARK    3  A    between atoms: C3_3  and  C4_4
REMARK    4  A    between atoms: C7_7  and  C8_8
REMARK    5  A    between atoms: C8_8  and  C9_9
REMARK    6  A    between atoms: C9_9  and  N1_10
REMARK    7  A    between atoms: N1_10  and  N2_12
REMARK    8  A    between atoms: C10_17  and  O1_18
ROOT
HETATM    1  C4  UNL     1      -1.336   1.890  83.513  1.00  0.00     0.126 C
HETATM    2  C5  UNL     1      -0.962   0.420  83.674  1.00  0.00     0.032 C
HETATM    3  C6  UNL     1       0.108   0.023  82.683  1.00  0.00     0.012 C
HETATM    4  C7  UNL     1      -0.527   0.114  81.302  1.00  0.00     0.042 C
HETATM    5  C10 UNL     1      -1.302   1.412  81.272  1.00  0.00     0.261 C
HETATM    6  O2  UNL     1      -0.848   2.271  82.242  1.00  0.00    -0.356 OA
ENDROOT
BRANCH   4   7
HETATM    7  C8  UNL     1       0.530   0.071  80.218  1.00  0.00     0.030 C
BRANCH   7   8
HETATM    8  C9  UNL     1       1.797   0.709  80.734  1.00  0.00     0.141 C
BRANCH   8   9
HETATM    9  N1  UNL     1       1.959   2.046  80.249  1.00  0.00    -0.323 N
ATOM     10  H1  UNL     1       2.238   2.204  79.281  1.00  0.00     0.181 HD
BRANCH   9  11
HETATM   11  N2  UNL     1       1.736   3.131  81.094  1.00  0.00    -0.254 N
HETATM   12  N3  UNL     1       2.135   3.020  82.303  1.00  0.00    -0.331 N
ATOM     13  H32 UNL     1       2.595   2.167  82.621  1.00  0.00     0.178 HD
ATOM     14  H31 UNL     1       1.972   3.815  82.922  1.00  0.00     0.178 HD
ATOM     15  H2  UNL     1       1.275   3.978  80.762  1.00  0.00     0.207 HD
ENDBRANCH   9  11
ENDBRANCH   8   9
ENDBRANCH   7   8
ENDBRANCH   4   7
BRANCH   5  16
HETATM   16  O1  UNL     1      -1.152   2.064  80.030  1.00  0.00    -0.371 OA
ATOM     17  H1  UNL     1      -1.679   2.853  79.992  1.00  0.00     0.212 HD
ENDBRANCH   5  16
BRANCH   1  18
HETATM   18  C3  UNL     1      -0.588   2.631  84.591  1.00  0.00     0.056 C
BRANCH  18  19
HETATM   19  C2  UNL     1      -1.451   3.261  85.635  1.00  0.00     0.077 C
HETATM   20  C1  UNL     1      -2.577   4.083  85.046  1.00  0.00     0.032 C
BRANCH  19  21
HETATM   21  N4  UNL     1      -1.919   2.475  86.687  1.00  0.00    -0.408 N
HETATM   22  C11 UNL     1      -1.334   1.260  87.036  1.00  0.00     0.117 C
HETATM   23  C12 UNL     1      -2.444   0.302  87.477  1.00  0.00     0.021 C
HETATM   24  C13 UNL     1      -3.675   0.922  86.861  1.00  0.00     0.021 C
HETATM   25  C14 UNL     1      -3.356   2.387  86.805  1.00  0.00     0.117 C
ENDBRANCH  19  21
ENDBRANCH  18  19
ENDBRANCH   1  18
TORSDOF 8
ENDMDL