MODEL 1
REMARK VINA RESULT: -7.238251432      0.000      0.000
REMARK  6 active torsions:
REMARK  status: ('A' for Active; 'I' for Inactive)
REMARK    1  A    between atoms: N1_2  and  C2_5
REMARK    2  A    between atoms: C2_5  and  C3_6
REMARK    3  A    between atoms: C3_6  and  C4_7
REMARK    4  A    between atoms: C4_7  and  C5_8
REMARK    5  A    between atoms: C5_8  and  N2_9
REMARK    6  A    between atoms: C13_18  and  N3_19
ROOT
HETATM    1  N2  UNL     1     -12.669   8.473 -29.238  1.00  0.00    -0.323 N
HETATM    2  C6  UNL     1     -12.225   7.314 -28.704  1.00  0.00     0.163 A
HETATM    3  O1  UNL     1     -12.474   6.449 -27.758  1.00  0.00    -0.297 OA
HETATM    4  C7  UNL     1     -11.610   5.474 -27.771  1.00  0.00     0.052 A
HETATM    5  C8  UNL     1     -11.513   4.283 -26.885  1.00  0.00     0.077 C
HETATM    6  C9  UNL     1     -10.713   5.714 -28.814  1.00  0.00     0.050 A
HETATM    7  C10 UNL     1     -11.105   6.887 -29.410  1.00  0.00     0.047 A
HETATM    8  C11 UNL     1     -10.874   7.822 -30.397  1.00  0.00     0.079 A
HETATM    9  C12 UNL     1     -11.871   8.780 -30.244  1.00  0.00     0.092 A
HETATM   10  C13 UNL     1     -11.871   9.855 -31.134  1.00  0.00     0.068 A
HETATM   11  C14 UNL     1     -10.891   9.916 -32.114  1.00  0.00     0.020 A
HETATM   12  C15 UNL     1     -10.844  10.957 -33.021  1.00  0.00     0.023 A
HETATM   13  C16 UNL     1      -9.862  11.024 -34.011  1.00  0.00    -0.055 A
HETATM   14  C17 UNL     1      -9.874  12.170 -34.949  1.00  0.00     0.049 C
HETATM   15  C18 UNL     1      -8.914  10.041 -34.097  1.00  0.00    -0.054 A
HETATM   16  C19 UNL     1      -7.843  10.067 -35.136  1.00  0.00     0.049 C
HETATM   17  C20 UNL     1      -8.967   8.998 -33.182  1.00  0.00     0.038 A
HETATM   18  C21 UNL     1      -9.925   8.906 -32.196  1.00  0.00     0.047 A
HETATM   19  N4  UNL     1      -9.929   7.857 -31.323  1.00  0.00    -0.348 N
HETATM   20  C22 UNL     1      -8.891   6.901 -31.518  1.00  0.00     0.156 C
ENDROOT
BRANCH   1  21
HETATM   21  C5  UNL     1     -13.818   9.203 -28.765  1.00  0.00     0.131 C
BRANCH  21  22
HETATM   22  C4  UNL     1     -13.474  10.204 -27.690  1.00  0.00     0.022 C
BRANCH  22  23
HETATM   23  C3  UNL     1     -14.446  11.351 -27.617  1.00  0.00     0.029 C
BRANCH  23  24
HETATM   24  C2  UNL     1     -14.702  11.749 -26.206  1.00  0.00     0.231 C
BRANCH  24  25
HETATM   25  N1  UNL     1     -14.660  10.596 -25.306  1.00  0.00    -0.079 N
HETATM   26  C1  UNL     1     -15.373  10.836 -24.083  1.00  0.00     0.266 C
ATOM     27  H12 UNL     1     -13.700  10.307 -25.122  1.00  0.00     0.276 HD
ATOM     28  H11 UNL     1     -14.998   9.753 -25.770  1.00  0.00     0.276 HD
ENDBRANCH  24  25
ENDBRANCH  23  24
ENDBRANCH  22  23
ENDBRANCH  21  22
ENDBRANCH   1  21
BRANCH  10  29
HETATM   29  N3  UNL     1     -12.763  10.745 -31.032  1.00  0.00    -0.396 N
ATOM     30  H32 UNL     1     -12.526  11.723 -30.870  1.00  0.00     0.156 HD
ATOM     31  H31 UNL     1     -13.744  10.481 -31.116  1.00  0.00     0.156 HD
ENDBRANCH  10  29
TORSDOF 6
ENDMDL