MODEL 5
REMARK VINA RESULT: -7.758611789      1.673      2.183
REMARK  7 active torsions:
REMARK  status: ('A' for Active; 'I' for Inactive)
REMARK    1  A    between atoms: N2_11  and  C9_12
REMARK    2  A    between atoms: C9_12  and  C10_17
REMARK    3  A    between atoms: N3_13  and  O1_15
REMARK    4  A    between atoms: C12_20  and  C13_21
REMARK    5  A    between atoms: C13_21  and  O2_22
REMARK    6  A    between atoms: O2_22  and  C14_23
REMARK    7  A    between atoms: C14_23  and  C15_24
ROOT
HETATM    1  C9  UNL     1     -11.588  10.148 -31.686  1.00  0.00     0.153 C
HETATM    2  N3  UNL     1     -12.181   9.991 -32.806  1.00  0.00    -0.251 N
ATOM      3  H3  UNL     1     -11.646  10.025 -33.674  1.00  0.00     0.196 HD
ENDROOT
BRANCH   1   4
HETATM    4  N2  UNL     1     -10.186  10.369 -31.713  1.00  0.00    -0.270 N
HETATM    5  C2  UNL     1      -9.525  11.471 -32.337  1.00  0.00     0.115 C
HETATM    6  C1  UNL     1     -10.100  12.811 -31.866  1.00  0.00     0.035 C
HETATM    7  C3  UNL     1      -8.119  11.388 -31.809  1.00  0.00     0.057 C
HETATM    8  C4  UNL     1      -7.100  11.410 -32.935  1.00  0.00     0.013 C
HETATM    9  C8  UNL     1      -8.071  10.064 -31.166  1.00  0.00     0.010 C
HETATM   10  C5  UNL     1      -5.760  11.067 -32.367  1.00  0.00     0.001 C
HETATM   11  C6  UNL     1      -5.790  10.747 -30.888  1.00  0.00     0.006 C
HETATM   12  C7  UNL     1      -6.758   9.574 -30.677  1.00  0.00     0.054 C
HETATM   13  N1  UNL     1      -9.243   9.549 -31.141  1.00  0.00    -0.304 N
ATOM     14  H1  UNL     1      -9.453   8.634 -30.743  1.00  0.00     0.186 HD
ENDBRANCH   1   4
BRANCH   1  15
HETATM   15  C10 UNL     1     -12.317  10.115 -30.381  1.00  0.00     0.019 A
HETATM   16  C11 UNL     1     -12.446   8.903 -29.744  1.00  0.00     0.065 A
HETATM   17  S1  UNL     1     -13.304   9.294 -28.330  1.00  0.00    -0.103 SA
HETATM   18  C12 UNL     1     -13.481  10.972 -28.566  1.00  0.00     0.007 A
HETATM   19  C20 UNL     1     -12.854  11.181 -29.765  1.00  0.00     0.032 A
BRANCH  18  20
HETATM   20  C13 UNL     1     -14.150  12.002 -27.686  1.00  0.00     0.214 C
BRANCH  20  21
HETATM   21  O2  UNL     1     -14.100  11.628 -26.352  1.00  0.00    -0.382 OA
BRANCH  21  22
HETATM   22  C14 UNL     1     -14.447  12.660 -25.485  1.00  0.00     0.202 C
BRANCH  22  23
HETATM   23  C15 UNL     1     -15.355  12.102 -24.444  1.00  0.00    -0.060 C
HETATM   24  C16 UNL     1     -16.228  12.801 -23.742  1.00  0.00    -0.022 C
HETATM   25  C17 UNL     1     -16.959  11.901 -22.793  1.00  0.00     0.028 C
HETATM   26  C18 UNL     1     -16.109  10.676 -22.713  1.00  0.00     0.008 C
HETATM   27  C19 UNL     1     -15.396  10.672 -24.059  1.00  0.00     0.036 C
ENDBRANCH  22  23
ENDBRANCH  21  22
ENDBRANCH  20  21
ENDBRANCH  18  20
ENDBRANCH   1  15
BRANCH   2  28
HETATM   28  O1  UNL     1     -13.525   9.776 -32.844  1.00  0.00    -0.288 OA
ATOM     29  H1  UNL     1     -14.125  10.511 -32.888  1.00  0.00     0.244 HD
ENDBRANCH   2  28
TORSDOF 7
ENDMDL