MODEL 3
REMARK VINA RESULT: -7.363837400      1.133      1.221
REMARK  6 active torsions:
REMARK  status: ('A' for Active; 'I' for Inactive)
REMARK    1  A    between atoms: C2_2  and  C3_3
REMARK    2  A    between atoms: C3_3  and  C4_4
REMARK    3  A    between atoms: C4_4  and  C5_5
REMARK    4  A    between atoms: C9_10  and  O2_11
REMARK    5  A    between atoms: C10_13  and  C11_14
REMARK    6  A    between atoms: C11_14  and  N1_15
ROOT
HETATM    1  C5  UNL     1     -12.628  11.593 -28.494  1.00  0.00     0.060 A
HETATM    2  O1  UNL     1     -12.585  12.468 -29.501  1.00  0.00    -0.314 OA
HETATM    3  C6  UNL     1     -12.139  11.923 -30.594  1.00  0.00     0.090 A
HETATM    4  C7  UNL     1     -11.976  12.562 -31.811  1.00  0.00     0.041 C
HETATM    5  C8  UNL     1     -11.473  12.069 -32.984  1.00  0.00     0.040 C
HETATM    6  C9  UNL     1     -10.870  10.838 -33.268  1.00  0.00     0.081 C
HETATM    7  C10 UNL     1     -10.647   9.853 -32.326  1.00  0.00     0.063 C
HETATM    8  C18 UNL     1     -11.363   9.657 -31.169  1.00  0.00     0.199 C
HETATM    9  O3  UNL     1     -11.624   8.472 -30.832  1.00  0.00    -0.286 OA
HETATM   10  C19 UNL     1     -11.873  10.590 -30.267  1.00  0.00     0.057 A
HETATM   11  C20 UNL     1     -12.181  10.373 -28.942  1.00  0.00    -0.015 A
HETATM   12  C21 UNL     1     -12.079   9.062 -28.226  1.00  0.00     0.052 C
ENDROOT
BRANCH   7  13
HETATM   13  C11 UNL     1      -9.564   8.925 -32.621  1.00  0.00     0.104 C
BRANCH  13  14
HETATM   14  N1  UNL     1      -8.251   9.256 -32.362  1.00  0.00    -0.387 N
HETATM   15  C12 UNL     1      -7.234   9.259 -33.305  1.00  0.00     0.132 C
HETATM   16  C13 UNL     1      -6.260   8.092 -33.051  1.00  0.00     0.094 C
HETATM   17  S1  UNL     1      -5.785   8.058 -31.293  1.00  0.00    -0.157 SA
HETATM   18  C14 UNL     1      -7.265   8.479 -30.335  1.00  0.00     0.017 C
HETATM   19  C15 UNL     1      -6.901   8.948 -28.941  1.00  0.00     0.028 C
HETATM   20  C16 UNL     1      -8.150   7.265 -30.305  1.00  0.00     0.028 C
HETATM   21  C17 UNL     1      -7.919   9.655 -31.065  1.00  0.00     0.142 C
ENDBRANCH  13  14
ENDBRANCH   7  13
BRANCH   6  22
HETATM   22  O2  UNL     1     -10.475  10.595 -34.571  1.00  0.00    -0.360 OA
ATOM     23  H2  UNL     1     -10.580   9.714 -34.912  1.00  0.00     0.217 HD
ENDBRANCH   6  22
BRANCH   1  24
HETATM   24  C4  UNL     1     -13.083  11.924 -27.130  1.00  0.00     0.065 C
BRANCH  24  25
HETATM   25  C3  UNL     1     -14.558  11.871 -26.926  1.00  0.00     0.006 C
BRANCH  25  26
HETATM   26  C2  UNL     1     -15.045  11.541 -25.563  1.00  0.00    -0.004 C
HETATM   27  C1  UNL     1     -15.045  12.786 -24.682  1.00  0.00     0.005 C
ENDBRANCH  25  26
ENDBRANCH  24  25
ENDBRANCH   1  24
TORSDOF 6
ENDMDL