MODEL 5
REMARK VINA RESULT: -7.288236947      7.446     10.839
REMARK  6 active torsions:
REMARK  status: ('A' for Active; 'I' for Inactive)
REMARK    1  A    between atoms: O1_2  and  C2_3
REMARK    2  A    between atoms: C4_5  and  C5_6
REMARK    3  A    between atoms: C5_6  and  C6_8
REMARK    4  A    between atoms: C12_14  and  O3_15
REMARK    5  A    between atoms: O3_15  and  C13_16
REMARK    6  A    between atoms: C22_26  and  O5_27
ROOT
HETATM    1  C2  UNL     1     -11.545   7.271 -27.483  1.00  0.00     0.102 A
HETATM    2  C3  UNL     1     -10.549   7.190 -28.414  1.00  0.00     0.057 A
HETATM    3  C4  UNL     1     -10.652   7.931 -29.618  1.00  0.00     0.046 A
HETATM    4  C12 UNL     1     -11.753   8.727 -29.841  1.00  0.00     0.086 A
HETATM    5  C21 UNL     1     -12.769   8.804 -28.880  1.00  0.00     0.077 A
HETATM    6  C22 UNL     1     -12.644   8.067 -27.707  1.00  0.00     0.101 A
ENDROOT
BRANCH   4   7
HETATM    7  O3  UNL     1     -11.889   9.466 -30.990  1.00  0.00    -0.337 OA
BRANCH   7   8
HETATM    8  C13 UNL     1     -11.288  10.629 -31.394  1.00  0.00     0.202 C
HETATM    9  C14 UNL     1     -12.034  11.866 -30.945  1.00  0.00     0.156 C
HETATM   10  O4  UNL     1     -12.471  11.988 -29.830  1.00  0.00    -0.295 OA
HETATM   11  C15 UNL     1     -12.223  12.957 -31.928  1.00  0.00     0.081 C
HETATM   12  C16 UNL     1     -11.031  13.205 -32.794  1.00  0.00     0.012 C
HETATM   13  C17 UNL     1     -10.262  11.966 -33.145  1.00  0.00    -0.012 C
HETATM   14  C18 UNL     1      -9.787  11.974 -34.584  1.00  0.00     0.010 C
HETATM   15  C19 UNL     1     -11.183  10.778 -32.901  1.00  0.00     0.022 C
HETATM   16  C20 UNL     1     -10.560   9.581 -33.554  1.00  0.00     0.013 C
ENDBRANCH   7   8
ENDBRANCH   4   7
BRANCH   3  17
HETATM   17  C5  UNL     1      -9.604   7.813 -30.600  1.00  0.00     0.166 C
HETATM   18  O2  UNL     1      -9.632   6.738 -31.317  1.00  0.00    -0.292 OA
BRANCH  17  19
HETATM   19  C6  UNL     1      -8.516   8.730 -30.913  1.00  0.00     0.061 C
HETATM   20  C7  UNL     1      -7.524   8.810 -29.734  1.00  0.00     0.012 C
HETATM   21  C8  UNL     1      -6.111   8.986 -30.166  1.00  0.00     0.001 C
HETATM   22  C9  UNL     1      -5.910   9.744 -31.438  1.00  0.00     0.000 C
HETATM   23  C10 UNL     1      -6.784   9.234 -32.562  1.00  0.00     0.001 C
HETATM   24  C11 UNL     1      -7.655   8.119 -32.032  1.00  0.00     0.012 C
ENDBRANCH  17  19
ENDBRANCH   3  17
BRANCH   6  25
HETATM   25  O5  UNL     1     -13.645   8.137 -26.751  1.00  0.00    -0.358 OA
ATOM     26  H5  UNL     1     -14.112   7.347 -26.502  1.00  0.00     0.217 HD
ENDBRANCH   6  25
BRANCH   1  27
HETATM   27  O1  UNL     1     -11.466   6.564 -26.311  1.00  0.00    -0.353 OA
HETATM   28  C1  UNL     1     -10.550   5.549 -26.026  1.00  0.00     0.210 C
ENDBRANCH   1  27
TORSDOF 6
ENDMDL