MODEL 2
REMARK VINA RESULT: -6.225992166      1.911      4.612
REMARK  8 active torsions:
REMARK  status: ('A' for Active; 'I' for Inactive)
REMARK    1  A    between atoms: O1_2  and  C2_3
REMARK    2  A    between atoms: C4_5  and  O2_6
REMARK    3  A    between atoms: O2_6  and  C5_7
REMARK    4  A    between atoms: C5_7  and  C6_9
REMARK    5  A    between atoms: C10_13  and  O4_14
REMARK    6  A    between atoms: O4_14  and  C11_15
REMARK    7  A    between atoms: C11_15  and  C14_18
REMARK    8  A    between atoms: C16_22  and  C17_23
ROOT
HETATM    1  C2  UNL     1     -10.635   6.928 -30.265  1.00  0.00     0.078 A
HETATM    2  C3  UNL     1     -11.497   7.972 -30.346  1.00  0.00     0.077 A
HETATM    3  C4  UNL     1     -11.377   8.997 -31.303  1.00  0.00     0.115 A
HETATM    4  C10 UNL     1     -10.343   8.942 -32.194  1.00  0.00     0.105 A
HETATM    5  C15 UNL     1      -9.451   7.833 -32.087  1.00  0.00     0.050 A
HETATM    6  C16 UNL     1      -9.595   6.855 -31.148  1.00  0.00    -0.014 A
ENDROOT
BRANCH   3   7
HETATM    7  O2  UNL     1     -12.318  10.024 -31.296  1.00  0.00    -0.275 OA
BRANCH   7   8
HETATM    8  C5  UNL     1     -12.270  11.017 -30.324  1.00  0.00     0.271 C
HETATM    9  O3  UNL     1     -11.667  12.086 -30.694  1.00  0.00    -0.264 OA
BRANCH   8  10
HETATM   10  C6  UNL     1     -12.842  10.929 -28.969  1.00  0.00     0.037 C
HETATM   11  C7  UNL     1     -11.717  10.639 -28.000  1.00  0.00     0.025 C
HETATM   12  C8  UNL     1     -13.340  12.359 -28.659  1.00  0.00     0.025 C
HETATM   13  C9  UNL     1     -13.997  10.008 -28.824  1.00  0.00     0.025 C
ENDBRANCH   8  10
ENDBRANCH   7   8
ENDBRANCH   3   7
BRANCH   4  14
HETATM   14  O4  UNL     1     -10.097   9.827 -33.147  1.00  0.00    -0.327 OA
BRANCH  14  15
HETATM   15  C11 UNL     1      -9.333  10.571 -33.899  1.00  0.00     0.148 C
HETATM   16  C12 UNL     1      -9.721  10.607 -35.389  1.00  0.00     0.058 C
HETATM   17  C13 UNL     1      -7.829  10.322 -33.823  1.00  0.00     0.058 C
BRANCH  15  18
HETATM   18  C14 UNL     1      -9.496  12.042 -33.490  1.00  0.00     0.209 C
HETATM   19  O5  UNL     1     -10.215  12.823 -34.155  1.00  0.00    -0.646 OA
HETATM   20  O6  UNL     1      -8.826  12.466 -32.372  1.00  0.00    -0.646 OA
ENDBRANCH  15  18
ENDBRANCH  14  15
ENDBRANCH   4  14
BRANCH   1  21
HETATM   21  O1  UNL     1     -10.730   5.907 -29.334  1.00  0.00    -0.355 OA
HETATM   22  C1  UNL     1     -12.011   5.425 -28.965  1.00  0.00     0.210 C
ENDBRANCH   1  21
BRANCH   6  23
HETATM   23  C17 UNL     1      -8.629   5.746 -31.109  1.00  0.00    -0.021 C
HETATM   24  C18 UNL     1      -7.791   5.784 -29.838  1.00  0.00     0.019 C
HETATM   25  C19 UNL     1      -7.664   5.934 -32.260  1.00  0.00     0.019 C
HETATM   26  C20 UNL     1      -9.230   4.390 -31.215  1.00  0.00     0.019 C
ENDBRANCH   6  23
TORSDOF 8
ENDMDL