MODEL 1
REMARK VINA RESULT: -6.534222734      0.000      0.000
REMARK  7 active torsions:
REMARK  status: ('A' for Active; 'I' for Inactive)
REMARK    1  A    between atoms: S1_2  and  C2_3
REMARK    2  A    between atoms: N1_5  and  C4_7
REMARK    3  A    between atoms: N2_9  and  C6_10
REMARK    4  A    between atoms: C9_13  and  O1_14
REMARK    5  A    between atoms: C10_16  and  C11_17
REMARK    6  A    between atoms: C11_17  and  C12_18
REMARK       I    between atoms: C12_18  and  N3_20
REMARK    7  A    between atoms: C15_23  and  C16_24
ROOT
HETATM    1  C4  UNL     1     -12.204   5.734 -24.235  1.00  0.00     0.059 A
HETATM    2  C5  UNL     1     -13.072   6.588 -23.588  1.00  0.00     0.123 A
HETATM    3  N2  UNL     1     -14.340   6.216 -23.919  1.00  0.00    -0.331 N
HETATM    4  C9  UNL     1     -14.275   5.162 -24.749  1.00  0.00     0.151 A
HETATM    5  C10 UNL     1     -12.939   4.830 -24.970  1.00  0.00     0.030 A
ENDROOT
BRANCH   5   6
HETATM    6  C11 UNL     1     -12.456   3.715 -25.838  1.00  0.00     0.148 C
BRANCH   6   7
HETATM    7  C12 UNL     1     -12.921   3.851 -27.226  1.00  0.00     0.224 C
HETATM    8  O2  UNL     1     -13.936   3.232 -27.601  1.00  0.00    -0.273 OA
HETATM    9  N3  UNL     1     -12.196   4.689 -28.106  1.00  0.00    -0.352 N
HETATM   10  C13 UNL     1     -11.015   5.427 -27.702  1.00  0.00     0.126 C
HETATM   11  C20 UNL     1     -12.555   4.897 -29.503  1.00  0.00     0.126 C
HETATM   12  C14 UNL     1      -9.827   5.206 -28.560  1.00  0.00     0.025 C
HETATM   13  C15 UNL     1     -10.075   4.976 -30.017  1.00  0.00    -0.008 C
HETATM   14  C19 UNL     1     -11.390   4.358 -30.296  1.00  0.00     0.025 C
BRANCH  13  15
HETATM   15  C16 UNL     1      -9.704   6.148 -30.883  1.00  0.00    -0.019 C
HETATM   16  C17 UNL     1      -9.181   5.749 -32.251  1.00  0.00     0.010 C
HETATM   17  C18 UNL     1      -8.777   7.132 -30.290  1.00  0.00     0.010 C
ENDBRANCH  13  15
ENDBRANCH   6   7
ENDBRANCH   5   6
BRANCH   1  18
HETATM   18  N1  UNL     1     -10.794   5.751 -24.177  1.00  0.00    -0.353 N
HETATM   19  C2  UNL     1     -10.115   5.098 -23.305  1.00  0.00     0.042 C
HETATM   20  C3  UNL     1     -10.770   4.259 -22.273  1.00  0.00     0.076 C
ATOM     21  H1  UNL     1     -10.289   6.312 -24.862  1.00  0.00     0.166 HD
BRANCH  19  22
HETATM   22  S1  UNL     1      -8.339   5.200 -23.335  1.00  0.00    -0.121 SA
HETATM   23  C1  UNL     1      -7.798   5.704 -24.974  1.00  0.00     0.097 C
ENDBRANCH  19  22
ENDBRANCH   1  18
BRANCH   4  24
HETATM   24  O1  UNL     1     -15.371   4.513 -25.294  1.00  0.00    -0.345 OA
ATOM     25  H1  UNL     1     -15.341   3.672 -25.737  1.00  0.00     0.219 HD
ENDBRANCH   4  24
BRANCH   3  26
HETATM   26  C6  UNL     1     -15.557   6.841 -23.462  1.00  0.00     0.083 C
HETATM   27  C7  UNL     1     -15.344   8.352 -23.466  1.00  0.00     0.032 C
HETATM   28  C8  UNL     1     -16.011   6.355 -22.117  1.00  0.00     0.032 C
ENDBRANCH   3  26
TORSDOF 7
ENDMDL