MODEL 4
REMARK VINA RESULT: -6.031542111      3.108      7.926
REMARK  7 active torsions:
REMARK  status: ('A' for Active; 'I' for Inactive)
REMARK    1  A    between atoms: C2_2  and  C3_3
REMARK    2  A    between atoms: C3_3  and  C5_5
REMARK    3  A    between atoms: C3_3  and  C14_22
REMARK       I    between atoms: C5_5  and  N1_7
REMARK    4  A    between atoms: N1_7  and  C6_9
REMARK    5  A    between atoms: C7_12  and  S1_13
REMARK    6  A    between atoms: C9_15  and  S2_16
REMARK    7  A    between atoms: S2_16  and  C10_17
ROOT
HETATM    1  C6  UNL     1     -10.926   8.303 -27.765  1.00  0.00     0.153 A
HETATM    2  N2  UNL     1     -11.828   9.285 -27.719  1.00  0.00    -0.330 N
ATOM      3  H2  UNL     1     -12.527   9.317 -26.976  1.00  0.00     0.168 HD
HETATM    4  C7  UNL     1     -11.797  10.201 -28.644  1.00  0.00     0.095 A
HETATM    5  C9  UNL     1     -10.834  10.105 -29.614  1.00  0.00     0.079 A
HETATM    6  S3  UNL     1     -10.009   8.682 -29.147  1.00  0.00    -0.044 SA
ENDROOT
BRANCH   1   7
HETATM    7  N1  UNL     1     -10.772   7.285 -26.948  1.00  0.00    -0.306 N
HETATM    8  C5  UNL     1     -11.829   6.369 -26.713  1.00  0.00     0.238 C
HETATM    9  O1  UNL     1     -12.906   6.819 -26.247  1.00  0.00    -0.272 OA
ATOM     10  H1  UNL     1      -9.879   7.152 -26.475  1.00  0.00     0.171 HD
BRANCH   8  11
HETATM   11  C3  UNL     1     -11.711   4.915 -26.994  1.00  0.00     0.086 C
HETATM   12  C4  UNL     1     -10.433   4.410 -26.359  1.00  0.00     0.033 C
BRANCH  11  13
HETATM   13  C2  UNL     1     -12.862   4.143 -26.389  1.00  0.00     0.021 C
HETATM   14  C1  UNL     1     -12.406   3.440 -25.127  1.00  0.00     0.006 C
ENDBRANCH  11  13
BRANCH  11  15
HETATM   15  C14 UNL     1     -11.625   4.660 -28.463  1.00  0.00     0.070 A
HETATM   16  C15 UNL     1     -12.647   4.207 -29.288  1.00  0.00     0.036 A
HETATM   17  C16 UNL     1     -12.149   4.106 -30.570  1.00  0.00     0.027 A
HETATM   18  C17 UNL     1     -10.833   4.506 -30.472  1.00  0.00     0.142 A
HETATM   19  O2  UNL     1     -10.574   4.819 -29.223  1.00  0.00    -0.326 OA
ENDBRANCH  11  15
ENDBRANCH   8  11
ENDBRANCH   1   7
BRANCH   4  20
HETATM   20  S1  UNL     1     -12.991  11.586 -28.684  1.00  0.00    -0.115 SA
HETATM   21  C8  UNL     1     -13.711  11.827 -27.041  1.00  0.00     0.097 C
ENDBRANCH   4  20
BRANCH   5  22
HETATM   22  S2  UNL     1     -10.529  11.203 -31.008  1.00  0.00    -0.111 SA
BRANCH  22  23
HETATM   23  C10 UNL     1     -10.935  10.386 -32.576  1.00  0.00     0.003 C
HETATM   24  C11 UNL     1     -12.425  10.136 -32.587  1.00  0.00     0.026 C
HETATM   25  C12 UNL     1     -10.171   9.098 -32.742  1.00  0.00     0.026 C
HETATM   26  C13 UNL     1     -10.547  11.284 -33.734  1.00  0.00     0.026 C
ENDBRANCH  22  23
ENDBRANCH   5  22
TORSDOF 7
ENDMDL