MODEL 2
REMARK VINA RESULT: -8.622920792      0.075      1.413
REMARK  5 active torsions:
REMARK  status: ('A' for Active; 'I' for Inactive)
REMARK    1  A    between atoms: C5_5  and  N1_6
REMARK    2  A    between atoms: C6_9  and  C7_10
REMARK    3  A    between atoms: C7_10  and  N3_11
REMARK    4  A    between atoms: N3_11  and  C8_14
REMARK    5  A    between atoms: C18_26  and  C19_27
ROOT
HETATM    1  N1  UNL     1     -16.682   8.966 -22.133  1.00  0.00    -0.219 N
HETATM    2  N2  UNL     1     -17.438   8.988 -21.039  1.00  0.00    -0.277 N
ATOM      3  H2  UNL     1     -17.832   9.831 -20.623  1.00  0.00     0.189 HD
HETATM    4  C6  UNL     1     -17.612   7.742 -20.554  1.00  0.00     0.123 A
HETATM    5  N4  UNL     1     -16.934   6.943 -21.393  1.00  0.00    -0.331 N
ATOM      6  H4  UNL     1     -16.864   5.929 -21.309  1.00  0.00     0.168 HD
HETATM    7  C18 UNL     1     -16.363   7.680 -22.360  1.00  0.00     0.111 A
ENDROOT
BRANCH   4   8
HETATM    8  C7  UNL     1     -18.410   7.364 -19.322  1.00  0.00     0.310 C
BRANCH   8   9
HETATM    9  N3  UNL     1     -17.591   6.740 -18.347  1.00  0.00    -0.060 N
ATOM     10  H32 UNL     1     -16.890   6.134 -18.773  1.00  0.00     0.278 HD
ATOM     11  H31 UNL     1     -16.963   7.407 -17.898  1.00  0.00     0.278 HD
BRANCH   9  12
HETATM   12  C8  UNL     1     -18.394   6.032 -17.385  1.00  0.00     0.127 C
HETATM   13  C9  UNL     1     -18.213   6.641 -16.034  1.00  0.00     0.043 C
HETATM   14  C10 UNL     1     -19.006   5.847 -14.998  1.00  0.00    -0.012 C
HETATM   15  C11 UNL     1     -20.464   5.899 -15.449  1.00  0.00     0.009 C
HETATM   16  C15 UNL     1     -18.592   4.414 -14.955  1.00  0.00     0.009 C
HETATM   17  C12 UNL     1     -20.626   5.185 -16.767  1.00  0.00    -0.012 C
HETATM   18  C13 UNL     1     -20.149   3.770 -16.732  1.00  0.00     0.009 C
HETATM   19  C17 UNL     1     -19.848   6.007 -17.804  1.00  0.00     0.043 C
HETATM   20  C14 UNL     1     -18.696   3.798 -16.333  1.00  0.00    -0.012 C
HETATM   21  C16 UNL     1     -17.918   4.592 -17.316  1.00  0.00     0.043 C
ENDBRANCH   9  12
ENDBRANCH   8   9
ENDBRANCH   4   8
BRANCH   1  22
HETATM   22  C5  UNL     1     -16.325  10.132 -22.866  1.00  0.00     0.170 A
HETATM   23  C4  UNL     1     -16.717  11.410 -22.532  1.00  0.00     0.061 A
HETATM   24  C3  UNL     1     -16.139  12.215 -23.519  1.00  0.00     0.036 A
HETATM   25  C2  UNL     1     -15.442  11.387 -24.379  1.00  0.00     0.051 A
HETATM   26  C1  UNL     1     -14.679  11.849 -25.574  1.00  0.00     0.077 C
HETATM   27  O1  UNL     1     -15.579  10.164 -23.955  1.00  0.00    -0.297 OA
ENDBRANCH   1  22
BRANCH   7  28
HETATM   28  C19 UNL     1     -15.527   7.170 -23.477  1.00  0.00     0.055 C
HETATM   29  C20 UNL     1     -14.207   6.606 -22.994  1.00  0.00     0.012 C
HETATM   30  C21 UNL     1     -14.377   5.524 -24.069  1.00  0.00     0.002 C
HETATM   31  C22 UNL     1     -15.879   5.778 -23.943  1.00  0.00     0.012 C
ENDBRANCH   7  28
TORSDOF 5
ENDMDL