MODEL 4
REMARK VINA RESULT: -7.267509236      2.323      3.439
REMARK  5 active torsions:
REMARK  status: ('A' for Active; 'I' for Inactive)
REMARK    1  A    between atoms: C6_6  and  C7_7
REMARK    2  A    between atoms: C7_7  and  C8_8
REMARK    3  A    between atoms: C8_8  and  N1_9
REMARK    4  A    between atoms: N1_9  and  C9_10
REMARK    5  A    between atoms: N1_9  and  C17_23
ROOT
HETATM    1  C9  UNL     1     -10.224   8.455 -28.980  1.00  0.00     0.055 A
HETATM    2  C10 UNL     1      -9.133   8.937 -28.329  1.00  0.00     0.105 A
HETATM    3  C11 UNL     1      -8.633   8.191 -27.250  1.00  0.00     0.248 A
HETATM    4  O1  UNL     1      -7.615   8.622 -26.627  1.00  0.00    -0.268 OA
HETATM    5  N2  UNL     1      -9.183   7.054 -26.856  1.00  0.00    -0.322 N
ATOM      6  H2  UNL     1      -8.775   6.556 -26.066  1.00  0.00     0.169 HD
HETATM    7  C12 UNL     1     -10.291   6.521 -27.481  1.00  0.00     0.056 A
HETATM    8  C13 UNL     1     -10.929   5.378 -27.169  1.00  0.00     0.061 A
HETATM    9  C14 UNL     1     -12.014   5.031 -27.924  1.00  0.00     0.088 A
HETATM   10  C15 UNL     1     -12.857   3.851 -27.778  1.00  0.00     0.107 C
HETATM   11  N3  UNL     1     -13.537   2.928 -27.676  1.00  0.00    -0.191 NA
HETATM   12  S1  UNL     1     -12.114   6.307 -29.049  1.00  0.00    -0.075 SA
HETATM   13  C16 UNL     1     -10.787   7.242 -28.535  1.00  0.00     0.059 A
ENDROOT
BRANCH   1  14
HETATM   14  N1  UNL     1     -10.856   9.101 -30.108  1.00  0.00    -0.375 N
BRANCH  14  15
HETATM   15  C8  UNL     1     -10.705   8.595 -31.417  1.00  0.00     0.124 C
BRANCH  15  16
HETATM   16  C7  UNL     1     -10.820   9.558 -32.562  1.00  0.00     0.026 C
BRANCH  16  17
HETATM   17  C6  UNL     1      -9.526   9.698 -33.346  1.00  0.00     0.011 C
HETATM   18  C5  UNL     1      -9.419  11.048 -33.997  1.00  0.00     0.007 C
HETATM   19  C4  UNL     1      -9.457  12.196 -33.027  1.00  0.00     0.003 C
HETATM   20  C3  UNL     1      -8.352  12.250 -32.040  1.00  0.00     0.031 C
HETATM   21  C2  UNL     1      -7.317  11.171 -32.162  1.00  0.00     0.117 C
HETATM   22  C1  UNL     1      -6.036  11.585 -31.470  1.00  0.00     0.039 C
HETATM   23  O2  UNL     1      -7.886  10.011 -31.585  1.00  0.00    -0.386 OA
HETATM   24  C20 UNL     1      -8.303   9.232 -32.657  1.00  0.00     0.172 C
ENDBRANCH  16  17
ENDBRANCH  15  16
ENDBRANCH  14  15
BRANCH  14  25
HETATM   25  C17 UNL     1     -11.678  10.222 -29.778  1.00  0.00     0.084 A
HETATM   26  C18 UNL     1     -12.434  10.560 -28.595  1.00  0.00     0.027 A
HETATM   27  C19 UNL     1     -13.207   9.908 -29.658  1.00  0.00     0.027 A
ENDBRANCH  14  25
ENDBRANCH   1  14
TORSDOF 5
ENDMDL