MODEL 5
REMARK VINA RESULT: -5.941240738      3.463      5.695
REMARK  4 active torsions:
REMARK  status: ('A' for Active; 'I' for Inactive)
REMARK    1  A    between atoms: O1_1  and  N1_3
REMARK    2  A    between atoms: N1_3  and  N2_5
REMARK    3  A    between atoms: N2_5  and  C1_7
REMARK    4  A    between atoms: C2_8  and  N3_9
ROOT
HETATM    1  C1  UNL     1     -40.041 -21.675   6.919  1.00  0.00     0.158 A
HETATM    2  C2  UNL     1     -40.170 -20.700   7.889  1.00  0.00     0.205 A
HETATM    3  C3  UNL     1     -41.126 -20.857   8.861  1.00  0.00     0.295 A
HETATM    4  O4  UNL     1     -41.305 -20.021   9.765  1.00  0.00    -0.264 OA
HETATM    5  N4  UNL     1     -41.953 -21.967   8.886  1.00  0.00    -0.261 N
ATOM      6  H4  UNL     1     -42.660 -22.074   9.613  1.00  0.00     0.190 HD
HETATM    7  N5  UNL     1     -41.805 -22.869   7.961  1.00  0.00    -0.262 N
ATOM      8  H5  UNL     1     -42.411 -23.690   7.976  1.00  0.00     0.190 HD
HETATM    9  C4  UNL     1     -40.888 -22.763   6.986  1.00  0.00     0.290 A
HETATM   10  O5  UNL     1     -40.790 -23.667   6.106  1.00  0.00    -0.264 OA
ENDROOT
BRANCH   1  11
HETATM   11  N2  UNL     1     -39.063 -21.522   5.917  1.00  0.00    -0.274 N
ATOM     12  H2  UNL     1     -39.332 -21.279   4.964  1.00  0.00     0.189 HD
BRANCH  11  13
HETATM   13  N1  UNL     1     -37.718 -21.708   6.250  1.00  0.00    -0.209 N
ATOM     14  H1  UNL     1     -37.457 -21.699   7.235  1.00  0.00     0.215 HD
BRANCH  13  15
HETATM   15  O1  UNL     1     -36.822 -21.886   5.401  1.00  0.00    -0.274 OA
ATOM     16  H1  UNL     1     -35.896 -21.788   5.592  1.00  0.00     0.246 HD
ENDBRANCH  13  15
ENDBRANCH  11  13
ENDBRANCH   1  11
BRANCH   2  17
HETATM   17  N3  UNL     1     -39.300 -19.560   7.877  1.00  0.00    -0.107 N
HETATM   18  O2  UNL     1     -38.299 -19.504   8.578  1.00  0.00    -0.531 OA
HETATM   19  O3  UNL     1     -39.660 -18.534   7.028  1.00  0.00    -0.531 OA
ENDBRANCH   2  17
TORSDOF 4
ENDMDL