MODEL 5
REMARK VINA RESULT: -7.264303103      2.653      5.497
REMARK  5 active torsions:
REMARK  status: ('A' for Active; 'I' for Inactive)
REMARK    1  A    between atoms: N1_1  and  N2_4
REMARK    2  A    between atoms: C1_6  and  N3_7
REMARK    3  A    between atoms: N3_7  and  N4_9
REMARK    4  A    between atoms: N4_9  and  S1_11
REMARK    5  A    between atoms: S1_11  and  C2_14
ROOT
HETATM    1  S1  UNL     1     -39.344 -20.210   7.454  1.00  0.00     0.310 S
HETATM    2  O1  UNL     1     -37.913 -20.256   7.002  1.00  0.00    -0.196 OA
HETATM    3  O2  UNL     1     -39.943 -18.914   7.087  1.00  0.00    -0.196 OA
ENDROOT
BRANCH   1   4
HETATM    4  N4  UNL     1     -39.369 -20.535   9.134  1.00  0.00    -0.220 N
ATOM      5  H4  UNL     1     -38.531 -20.711   9.687  1.00  0.00     0.200 HD
BRANCH   4   6
HETATM    6  N3  UNL     1     -40.656 -20.535   9.667  1.00  0.00    -0.285 N
ATOM      7  H3  UNL     1     -41.241 -19.699   9.634  1.00  0.00     0.188 HD
BRANCH   6   8
HETATM    8  C1  UNL     1     -41.129 -21.737  10.260  1.00  0.00     0.213 C
HETATM    9  N2  UNL     1     -42.087 -21.695  11.095  1.00  0.00    -0.301 N
ATOM     10  H2  UNL     1     -42.515 -20.801  11.338  1.00  0.00     0.187 HD
BRANCH   9  11
HETATM   11  N1  UNL     1     -42.552 -22.875  11.677  1.00  0.00    -0.344 N
ATOM     12  H12 UNL     1     -41.906 -23.654  11.804  1.00  0.00     0.176 HD
ATOM     13  H11 UNL     1     -43.527 -22.946  11.969  1.00  0.00     0.176 HD
ENDBRANCH   9  11
ENDBRANCH   6   8
ENDBRANCH   4   6
ENDBRANCH   1   4
BRANCH   1  14
HETATM   14  C2  UNL     1     -40.252 -21.483   6.657  1.00  0.00     0.248 A
HETATM   15  N5  UNL     1     -41.571 -21.533   6.410  1.00  0.00    -0.294 N
HETATM   16  C3  UNL     1     -41.842 -22.689   5.780  1.00  0.00     0.243 A
ATOM     17  H5  UNL     1     -42.252 -20.815   6.658  1.00  0.00     0.171 HD
HETATM   18  N6  UNL     1     -43.015 -23.106   5.372  1.00  0.00    -0.364 N
HETATM   19  O3  UNL     1     -40.694 -23.301   5.664  1.00  0.00    -0.199 OA
ATOM     20  H62 UNL     1     -43.911 -22.628   5.462  1.00  0.00     0.159 HD
ATOM     21  H61 UNL     1     -43.221 -23.983   4.893  1.00  0.00     0.159 HD
HETATM   22  N7  UNL     1     -39.721 -22.618   6.174  1.00  0.00    -0.230 N
ATOM     23  H7  UNL     1     -38.738 -22.889   6.204  1.00  0.00     0.197 HD
ENDBRANCH   1  14
TORSDOF 5
ENDMDL