MODEL 5
REMARK VINA RESULT: -6.875974033      1.425      1.633
REMARK  7 active torsions:
REMARK  status: ('A' for Active; 'I' for Inactive)
REMARK    1  A    between atoms: C2_2  and  O1_6
REMARK    2  A    between atoms: O1_6  and  C3_7
REMARK    3  A    between atoms: C4_11  and  N3_12
REMARK    4  A    between atoms: N3_12  and  N4_14
REMARK    5  A    between atoms: N4_14  and  O2_16
REMARK    6  A    between atoms: C5_18  and  C6_19
REMARK    7  A    between atoms: C6_19  and  O3_20
ROOT
HETATM    1  C3  UNL     1     -40.686 -21.903   7.641  1.00  0.00     0.478 C
HETATM    2  N2  UNL     1     -41.777 -22.035   8.542  1.00  0.00     0.000 N
ATOM      3  H21 UNL     1     -42.056 -22.990   8.771  1.00  0.00     0.285 HD
ATOM      4  H22 UNL     1     -42.694 -21.772   8.179  1.00  0.00     0.285 HD
HETATM    5  C4  UNL     1     -41.265 -21.220   9.666  1.00  0.00     0.337 C
HETATM    6  C5  UNL     1     -39.892 -21.783   9.753  1.00  0.00     0.201 C
HETATM    7  O4  UNL     1     -39.549 -22.074   8.418  1.00  0.00    -0.327 OA
ENDROOT
BRANCH   1   8
HETATM    8  O1  UNL     1     -40.643 -22.875   6.624  1.00  0.00    -0.285 OA
BRANCH   8   9
HETATM    9  C2  UNL     1     -41.612 -22.863   5.633  1.00  0.00     0.112 C
HETATM   10  C1  UNL     1     -42.002 -21.590   4.935  1.00  0.00     0.097 C
HETATM   11  N1  UNL     1     -42.143 -23.995   5.358  1.00  0.00    -0.384 N
ATOM     12  H12 UNL     1     -42.855 -23.986   4.628  1.00  0.00     0.157 HD
ATOM     13  H11 UNL     1     -41.878 -24.859   5.832  1.00  0.00     0.157 HD
ENDBRANCH   8   9
ENDBRANCH   1   8
BRANCH   5  14
HETATM   14  N3  UNL     1     -42.077 -21.257  10.823  1.00  0.00    -0.284 N
ATOM     15  H3  UNL     1     -41.978 -20.476  11.471  1.00  0.00     0.184 HD
BRANCH  14  16
HETATM   16  N4  UNL     1     -42.995 -22.235  11.174  1.00  0.00    -0.212 N
ATOM     17  H4  UNL     1     -43.854 -22.284  10.627  1.00  0.00     0.215 HD
BRANCH  16  18
HETATM   18  O2  UNL     1     -42.863 -23.048  12.090  1.00  0.00    -0.275 OA
ATOM     19  H2  UNL     1     -43.040 -23.980  12.033  1.00  0.00     0.246 HD
ENDBRANCH  16  18
ENDBRANCH  14  16
ENDBRANCH   5  14
BRANCH   6  20
HETATM   20  C6  UNL     1     -39.726 -23.000  10.598  1.00  0.00     0.200 C
BRANCH  20  21
HETATM   21  O3  UNL     1     -40.675 -23.966  10.260  1.00  0.00    -0.398 OA
ATOM     22  H3  UNL     1     -40.252 -24.747   9.923  1.00  0.00     0.209 HD
ENDBRANCH  20  21
ENDBRANCH   6  20
TORSDOF 7
ENDMDL