MODEL 5
REMARK VINA RESULT: -7.424233909      2.354      2.882
REMARK  5 active torsions:
REMARK  status: ('A' for Active; 'I' for Inactive)
REMARK    1  A    between atoms: C2_2  and  C3_3
REMARK    2  A    between atoms: N1_5  and  N2_7
REMARK    3  A    between atoms: N2_7  and  C4_9
REMARK    4  A    between atoms: C5_13  and  N6_14
REMARK    5  A    between atoms: N6_14  and  N7_16
ROOT
HETATM    1  C4  UNL     1     -40.332 -22.018  10.632  1.00  0.00     0.250 C
HETATM    2  N3  UNL     1     -39.020 -22.466  10.136  1.00  0.00    -0.100 NA
HETATM    3  N4  UNL     1     -38.841 -23.604  10.967  1.00  0.00    -0.036 NA
HETATM    4  N5  UNL     1     -40.026 -24.333  10.683  1.00  0.00    -0.099 NA
HETATM    5  C5  UNL     1     -41.082 -23.325  10.628  1.00  0.00     0.256 C
ENDROOT
BRANCH   1   6
HETATM    6  N2  UNL     1     -40.911 -21.044   9.733  1.00  0.00    -0.311 N
ATOM      7  H2  UNL     1     -41.926 -20.979   9.648  1.00  0.00     0.182 HD
BRANCH   6   8
HETATM    8  N1  UNL     1     -40.111 -20.203   8.992  1.00  0.00    -0.305 N
HETATM    9  C2  UNL     1     -39.975 -20.334   7.722  1.00  0.00     0.059 C
HETATM   10  C1  UNL     1     -40.721 -21.445   7.058  1.00  0.00     0.073 C
ATOM     11  H1  UNL     1     -39.611 -19.452   9.467  1.00  0.00     0.186 HD
BRANCH   9  12
HETATM   12  C3  UNL     1     -39.128 -19.441   6.948  1.00  0.00     0.284 C
HETATM   13  O1  UNL     1     -38.082 -19.905   6.434  1.00  0.00    -0.300 OA
ENDBRANCH   9  12
ENDBRANCH   6   8
ENDBRANCH   1   6
BRANCH   5  14
HETATM   14  N6  UNL     1     -41.990 -23.441  11.744  1.00  0.00    -0.252 N
ATOM     15  H6  UNL     1     -42.872 -23.945  11.646  1.00  0.00     0.188 HD
BRANCH  14  16
HETATM   16  N7  UNL     1     -41.640 -22.853  12.956  1.00  0.00    -0.042 N
HETATM   17  O2  UNL     1     -41.576 -21.600  13.040  1.00  0.00    -0.517 OA
HETATM   18  O3  UNL     1     -41.360 -23.581  14.073  1.00  0.00    -0.517 OA
ENDBRANCH  14  16
ENDBRANCH   5  14
TORSDOF 5
ENDMDL