MODEL 1
REMARK VINA RESULT: -7.478272194      0.000      0.000
REMARK  5 active torsions:
REMARK  status: ('A' for Active; 'I' for Inactive)
REMARK    1  A    between atoms: C2_2  and  N1_3
REMARK    2  A    between atoms: C2_2  and  C7_15
REMARK    3  A    between atoms: N1_3  and  N2_5
REMARK    4  A    between atoms: C3_7  and  C4_8
REMARK       I    between atoms: C7_15  and  N4_17
REMARK    5  A    between atoms: N4_17  and  N5_19
ROOT
HETATM    1  N1  UNL     1     -40.066 -20.245   8.076  1.00  0.00    -0.323 N
ATOM      2  H1  UNL     1     -39.884 -19.259   8.259  1.00  0.00     0.181 HD
ENDROOT
BRANCH   1   3
HETATM    3  C2  UNL     1     -39.749 -20.761   6.769  1.00  0.00     0.188 C
HETATM    4  C1  UNL     1     -38.392 -21.394   6.707  1.00  0.00     0.044 C
BRANCH   3   5
HETATM    5  C7  UNL     1     -40.752 -21.762   6.320  1.00  0.00     0.259 C
HETATM    6  O3  UNL     1     -40.728 -22.915   6.818  1.00  0.00    -0.269 OA
HETATM    7  N4  UNL     1     -41.719 -21.436   5.350  1.00  0.00    -0.275 N
ATOM      8  H4  UNL     1     -41.738 -20.500   4.945  1.00  0.00     0.189 HD
BRANCH   7   9
HETATM    9  N5  UNL     1     -42.648 -22.384   4.944  1.00  0.00    -0.343 N
ATOM     10  H52 UNL     1     -42.883 -23.148   5.578  1.00  0.00     0.176 HD
ATOM     11  H51 UNL     1     -43.085 -22.313   4.025  1.00  0.00     0.176 HD
ENDBRANCH   7   9
ENDBRANCH   3   5
ENDBRANCH   1   3
BRANCH   1  12
HETATM   12  N2  UNL     1     -40.607 -21.012   9.106  1.00  0.00    -0.314 N
HETATM   13  C3  UNL     1     -39.897 -21.788   9.841  1.00  0.00     0.126 C
ATOM     14  H2  UNL     1     -41.610 -20.954   9.283  1.00  0.00     0.185 HD
BRANCH  13  15
HETATM   15  C4  UNL     1     -40.520 -22.567  10.904  1.00  0.00     0.075 A
HETATM   16  C5  UNL     1     -40.283 -23.889  11.215  1.00  0.00     0.186 A
HETATM   17  O1  UNL     1     -41.053 -24.215  12.248  1.00  0.00    -0.246 OA
HETATM   18  N3  UNL     1     -41.764 -23.204  12.621  1.00  0.00    -0.225 N
HETATM   19  C6  UNL     1     -41.469 -22.145  11.811  1.00  0.00     0.278 A
ATOM     20  H3  UNL     1     -42.433 -23.198  13.391  1.00  0.00     0.198 HD
HETATM   21  O2  UNL     1     -41.968 -20.999  11.880  1.00  0.00    -0.265 OA
ENDBRANCH  13  15
ENDBRANCH   1  12
TORSDOF 5
ENDMDL