MODEL 5
REMARK VINA RESULT: -7.175331507      1.546      2.891
REMARK  6 active torsions:
REMARK  status: ('A' for Active; 'I' for Inactive)
REMARK    1  A    between atoms: C2_7  and  O1_8
REMARK    2  A    between atoms: O1_8  and  C3_9
REMARK    3  A    between atoms: C3_9  and  C4_10
REMARK    4  A    between atoms: C4_10  and  O3_12
REMARK    5  A    between atoms: O3_12  and  C5_13
REMARK    6  A    between atoms: C6_17  and  N4_18
ROOT
HETATM    1  N1  UNL     1     -37.974 -21.273   6.574  1.00  0.00    -0.234 N
ATOM      2  H11 UNL     1     -37.658 -21.608   5.663  1.00  0.00     0.174 HD
ATOM      3  H12 UNL     1     -37.312 -20.816   7.200  1.00  0.00     0.174 HD
HETATM    4  C1  UNL     1     -39.189 -21.420   6.939  1.00  0.00     0.693 A
HETATM    5  N2  UNL     1     -39.614 -20.970   8.162  1.00  0.00    -0.154 N
ATOM      6  H2  UNL     1     -38.960 -20.511   8.796  1.00  0.00     0.188 HD
HETATM    7  C2  UNL     1     -40.897 -21.137   8.520  1.00  0.00     0.252 A
HETATM    8  N3  UNL     1     -41.738 -21.753   7.647  1.00  0.00    -0.154 N
ATOM      9  H3  UNL     1     -42.713 -21.880   7.920  1.00  0.00     0.188 HD
HETATM   10  C6  UNL     1     -41.353 -22.197   6.459  1.00  0.00     0.693 A
HETATM   11  N5  UNL     1     -40.057 -22.020   6.118  1.00  0.00    -0.023 N
ATOM     12  H5  UNL     1     -39.733 -22.352   5.209  1.00  0.00     0.203 HD
ENDROOT
BRANCH   7  13
HETATM   13  O1  UNL     1     -41.363 -20.695   9.749  1.00  0.00    -0.311 OA
BRANCH  13  14
HETATM   14  C3  UNL     1     -41.041 -21.431  10.912  1.00  0.00     0.290 C
BRANCH  14  15
HETATM   15  C4  UNL     1     -41.951 -22.575  11.093  1.00  0.00     0.290 C
HETATM   16  O2  UNL     1     -43.153 -22.460  11.445  1.00  0.00    -0.262 OA
BRANCH  15  17
HETATM   17  O3  UNL     1     -41.481 -23.858  10.869  1.00  0.00    -0.251 OA
BRANCH  17  18
HETATM   18  C5  UNL     1     -40.154 -24.221  10.967  1.00  0.00     0.406 C
HETATM   19  O4  UNL     1     -39.796 -25.348  10.541  1.00  0.00    -0.276 OA
ENDBRANCH  17  18
ENDBRANCH  15  17
ENDBRANCH  14  15
ENDBRANCH  13  14
ENDBRANCH   7  13
BRANCH  10  20
HETATM   20  N4  UNL     1     -42.153 -22.782   5.633  1.00  0.00    -0.234 N
ATOM     21  H42 UNL     1     -43.055 -23.124   5.965  1.00  0.00     0.174 HD
ATOM     22  H41 UNL     1     -41.930 -22.923   4.648  1.00  0.00     0.174 HD
ENDBRANCH  10  20
TORSDOF 6
ENDMDL