MODEL 5
REMARK VINA RESULT: -7.369283202      1.843      5.165
REMARK  5 active torsions:
REMARK  status: ('A' for Active; 'I' for Inactive)
REMARK    1  A    between atoms: N1_1  and  C1_4
REMARK    2  A    between atoms: C2_10  and  C3_11
REMARK    3  A    between atoms: C3_11  and  C5_18
REMARK    4  A    between atoms: N4_12  and  O2_14
REMARK    5  A    between atoms: O2_14  and  C4_15
ROOT
HETATM    1  C1  UNL     1     -40.189 -21.128   8.257  1.00  0.00     0.152 A
HETATM    2  N2  UNL     1     -40.338 -20.922   6.916  1.00  0.00    -0.224 N
ATOM      3  H2  UNL     1     -39.878 -20.199   6.363  1.00  0.00     0.198 HD
HETATM    4  O1  UNL     1     -41.170 -21.811   6.474  1.00  0.00    -0.155 OA
HETATM    5  N3  UNL     1     -41.570 -22.583   7.441  1.00  0.00    -0.235 N
ATOM      6  H3  UNL     1     -42.226 -23.357   7.337  1.00  0.00     0.197 HD
HETATM    7  C2  UNL     1     -40.993 -22.212   8.599  1.00  0.00     0.137 A
ENDROOT
BRANCH   7   8
HETATM    8  C3  UNL     1     -41.169 -22.811   9.914  1.00  0.00     0.163 C
HETATM    9  N4  UNL     1     -42.233 -22.610  10.592  1.00  0.00    -0.247 N
ATOM     10  H4  UNL     1     -42.963 -22.020  10.193  1.00  0.00     0.195 HD
BRANCH   9  11
HETATM   11  O2  UNL     1     -42.433 -23.153  11.823  1.00  0.00    -0.183 OA
BRANCH  11  12
HETATM   12  C4  UNL     1     -41.692 -22.679  12.911  1.00  0.00     0.394 C
HETATM   13  N5  UNL     1     -41.253 -23.545  13.951  1.00  0.00    -0.031 NA
HETATM   14  O3  UNL     1     -41.408 -21.444  12.968  1.00  0.00    -0.240 OA
ENDBRANCH  11  12
ENDBRANCH   9  11
BRANCH   8  15
HETATM   15  C5  UNL     1     -40.130 -23.651  10.484  1.00  0.00     0.231 C
HETATM   16  O4  UNL     1     -39.048 -23.145  10.869  1.00  0.00    -0.643 OA
HETATM   17  O5  UNL     1     -40.283 -25.023  10.625  1.00  0.00    -0.643 OA
ENDBRANCH   8  15
ENDBRANCH   7   8
BRANCH   1  18
HETATM   18  N1  UNL     1     -39.455 -20.473   9.092  1.00  0.00    -0.382 N
ATOM     19  H12 UNL     1     -38.662 -19.889   8.827  1.00  0.00     0.157 HD
ATOM     20  H11 UNL     1     -39.537 -20.428  10.108  1.00  0.00     0.157 HD
ENDBRANCH   1  18
TORSDOF 5
ENDMDL