MODEL 5
REMARK VINA RESULT: -6.646802676      1.824      2.055
REMARK  6 active torsions:
REMARK  status: ('A' for Active; 'I' for Inactive)
REMARK    1  A    between atoms: C2_2  and  C3_3
REMARK    2  A    between atoms: C2_2  and  N2_8
REMARK    3  A    between atoms: N1_4  and  O1_6
REMARK    4  A    between atoms: N2_8  and  N3_9
REMARK       I    between atoms: N3_9  and  C4_11
REMARK    5  A    between atoms: C4_11  and  O3_13
REMARK    6  A    between atoms: O3_13  and  C5_14
ROOT
HETATM    1  N3  UNL     1     -40.255 -22.369   9.772  1.00  0.00    -0.248 N
ATOM      2  H3  UNL     1     -40.136 -21.425  10.138  1.00  0.00     0.187 HD
HETATM    3  C4  UNL     1     -40.091 -23.469  10.650  1.00  0.00     0.378 C
HETATM    4  O2  UNL     1     -40.243 -24.640  10.162  1.00  0.00    -0.237 OA
ENDROOT
BRANCH   1   5
HETATM    5  N2  UNL     1     -40.576 -22.533   8.420  1.00  0.00    -0.127 NA
BRANCH   5   6
HETATM    6  C2  UNL     1     -40.255 -21.333   7.697  1.00  0.00     0.135 C
HETATM    7  C1  UNL     1     -39.531 -20.408   8.681  1.00  0.00     0.035 C
BRANCH   6   8
HETATM    8  C3  UNL     1     -39.372 -21.584   6.520  1.00  0.00     0.109 C
HETATM    9  N1  UNL     1     -38.109 -21.550   6.642  1.00  0.00    -0.283 N
ATOM     10  H1  UNL     1     -37.761 -21.345   7.578  1.00  0.00     0.192 HD
BRANCH   9  11
HETATM   11  O1  UNL     1     -37.164 -21.749   5.699  1.00  0.00    -0.291 OA
ATOM     12  H1  UNL     1     -36.790 -22.568   5.395  1.00  0.00     0.244 HD
ENDBRANCH   9  11
ENDBRANCH   6   8
ENDBRANCH   5   6
ENDBRANCH   1   5
BRANCH   3  13
HETATM   13  O3  UNL     1     -39.782 -23.406  11.979  1.00  0.00    -0.276 OA
BRANCH  13  14
HETATM   14  C5  UNL     1     -40.508 -22.697  12.943  1.00  0.00     0.279 C
HETATM   15  C6  UNL     1     -41.765 -22.019  12.528  1.00  0.00     0.248 C
HETATM   16  O4  UNL     1     -42.411 -23.181  12.972  1.00  0.00    -0.280 OA
HETATM   17  N4  UNL     1     -41.361 -23.503  13.797  1.00  0.00    -0.066 NA
ENDBRANCH  13  14
ENDBRANCH   3  13
TORSDOF 6
ENDMDL