MODEL 1
REMARK VINA RESULT: -7.239856088      0.000      0.000
REMARK  7 active torsions:
REMARK  status: ('A' for Active; 'I' for Inactive)
REMARK    1  A    between atoms: C1_2  and  C2_4
REMARK    2  A    between atoms: C2_4  and  N2_5
REMARK    3  A    between atoms: C2_4  and  C3_9
REMARK    4  A    between atoms: C3_9  and  N3_10
REMARK    5  A    between atoms: C3_9  and  C4_14
REMARK    6  A    between atoms: C5_15  and  N4_16
REMARK    7  A    between atoms: N4_16  and  O2_18
ROOT
HETATM    1  C3  UNL     1     -39.672 -22.022   9.277  1.00  0.00     0.265 C
ENDROOT
BRANCH   1   2
HETATM    2  C2  UNL     1     -40.270 -22.153   7.911  1.00  0.00     0.306 C
BRANCH   2   3
HETATM    3  C1  UNL     1     -39.498 -21.387   6.896  1.00  0.00     0.264 C
HETATM    4  N1  UNL     1     -38.192 -21.739   6.499  1.00  0.00    -0.060 NA
HETATM    5  O1  UNL     1     -40.024 -20.387   6.367  1.00  0.00    -0.274 OA
ENDBRANCH   2   3
BRANCH   2   6
HETATM    6  N2  UNL     1     -41.630 -21.686   7.836  1.00  0.00    -0.065 N
ATOM      7  H23 UNL     1     -41.754 -20.745   8.208  1.00  0.00     0.275 HD
ATOM      8  H22 UNL     1     -41.936 -21.489   6.883  1.00  0.00     0.275 HD
ATOM      9  H21 UNL     1     -42.206 -22.384   8.307  1.00  0.00     0.275 HD
ENDBRANCH   2   6
ENDBRANCH   1   2
BRANCH   1  10
HETATM   10  N3  UNL     1     -39.171 -20.674   9.531  1.00  0.00    -0.068 N
ATOM     11  H33 UNL     1     -39.374 -20.051   8.748  1.00  0.00     0.275 HD
ATOM     12  H32 UNL     1     -39.716 -20.207  10.256  1.00  0.00     0.275 HD
ATOM     13  H31 UNL     1     -38.176 -20.670   9.758  1.00  0.00     0.275 HD
ENDBRANCH   1  10
BRANCH   1  14
HETATM   14  C4  UNL     1     -40.454 -22.566  10.382  1.00  0.00     0.099 A
HETATM   15  C5  UNL     1     -41.373 -21.826  11.141  1.00  0.00     0.203 A
HETATM   16  O3  UNL     1     -41.860 -22.648  12.023  1.00  0.00    -0.214 OA
HETATM   17  N5  UNL     1     -41.357 -23.820  11.913  1.00  0.00    -0.223 N
HETATM   18  C6  UNL     1     -40.460 -23.846  10.895  1.00  0.00     0.278 A
ATOM     19  H5  UNL     1     -41.596 -24.617  12.503  1.00  0.00     0.198 HD
HETATM   20  O4  UNL     1     -39.804 -24.857  10.544  1.00  0.00    -0.266 OA
BRANCH  15  21
HETATM   21  N4  UNL     1     -41.708 -20.467  10.987  1.00  0.00    -0.245 N
ATOM     22  H4  UNL     1     -41.883 -19.944  11.846  1.00  0.00     0.196 HD
BRANCH  21  23
HETATM   23  O2  UNL     1     -41.814 -19.843   9.944  1.00  0.00    -0.288 OA
ATOM     24  H2  UNL     1     -41.111 -19.496   9.407  1.00  0.00     0.244 HD
ENDBRANCH  21  23
ENDBRANCH  15  21
ENDBRANCH   1  14
TORSDOF 7
ENDMDL