MODEL 2
REMARK VINA RESULT: -7.416660152      1.462      1.705
REMARK  5 active torsions:
REMARK  status: ('A' for Active; 'I' for Inactive)
REMARK    1  A    between atoms: O1_2  and  C2_3
REMARK    2  A    between atoms: C2_3  and  C3_7
REMARK    3  A    between atoms: C3_7  and  N2_8
REMARK    4  A    between atoms: N2_8  and  N3_9
REMARK    5  A    between atoms: N3_9  and  C4_11
ROOT
HETATM    1  N3  UNL     1     -40.747 -21.923   9.162  1.00  0.00    -0.298 N
ATOM      2  H3  UNL     1     -40.667 -22.581   8.387  1.00  0.00     0.182 HD
ENDROOT
BRANCH   1   3
HETATM    3  N2  UNL     1     -40.719 -20.556   8.906  1.00  0.00    -0.133 NA
BRANCH   3   4
HETATM    4  C3  UNL     1     -39.640 -20.193   8.006  1.00  0.00     0.218 C
BRANCH   4   5
HETATM    5  C2  UNL     1     -39.670 -21.132   6.852  1.00  0.00     0.127 C
HETATM    6  N1  UNL     1     -38.569 -21.636   6.376  1.00  0.00    -0.382 N
ATOM      7  H12 UNL     1     -38.589 -22.280   5.585  1.00  0.00     0.158 HD
ATOM      8  H11 UNL     1     -37.694 -21.363   6.824  1.00  0.00     0.158 HD
BRANCH   5   9
HETATM    9  O1  UNL     1     -40.848 -21.500   6.248  1.00  0.00    -0.343 OA
HETATM   10  C1  UNL     1     -41.216 -22.820   5.934  1.00  0.00     0.211 C
ENDBRANCH   5   9
ENDBRANCH   4   5
ENDBRANCH   3   4
ENDBRANCH   1   3
BRANCH   1  11
HETATM   11  C4  UNL     1     -40.888 -22.416  10.489  1.00  0.00     0.127 A
HETATM   12  C5  UNL     1     -40.559 -23.606  11.102  1.00  0.00     0.132 A
HETATM   13  N4  UNL     1     -39.961 -24.834  10.727  1.00  0.00    -0.095 NA
HETATM   14  C6  UNL     1     -41.077 -23.082  12.284  1.00  0.00     0.250 A
HETATM   15  O2  UNL     1     -41.185 -23.546  13.443  1.00  0.00    -0.282 OA
HETATM   16  C7  UNL     1     -41.401 -21.891  11.655  1.00  0.00     0.253 A
HETATM   17  O3  UNL     1     -41.942 -20.822  12.064  1.00  0.00    -0.281 OA
ENDBRANCH   1  11
TORSDOF 5
ENDMDL