MODEL 5
REMARK VINA RESULT: -6.039469449      3.827      5.527
REMARK  5 active torsions:
REMARK  status: ('A' for Active; 'I' for Inactive)
REMARK       I    between atoms: C1_2  and  N5_16
REMARK    1  A    between atoms: N2_3  and  N3_5
REMARK    2  A    between atoms: N3_5  and  N4_7
REMARK    3  A    between atoms: N4_7  and  O1_8
REMARK    4  A    between atoms: N4_7  and  C2_10
REMARK    5  A    between atoms: N5_16  and  N6_18
ROOT
HETATM    1  N3  UNL     1     -39.070 -21.414   8.591  1.00  0.00    -0.218 N
ATOM      2  H3  UNL     1     -38.068 -21.511   8.759  1.00  0.00     0.210 HD
ENDROOT
BRANCH   1   3
HETATM    3  N2  UNL     1     -39.951 -21.257   9.668  1.00  0.00    -0.256 N
HETATM    4  C1  UNL     1     -39.965 -22.035  10.680  1.00  0.00     0.228 C
HETATM    5  N1  UNL     1     -39.077 -23.128  10.786  1.00  0.00    -0.060 NA
HETATM    6  N5  UNL     1     -40.889 -21.802  11.723  1.00  0.00    -0.212 N
ATOM      7  H5  UNL     1     -40.840 -20.916  12.226  1.00  0.00     0.196 HD
ATOM      8  H2  UNL     1     -40.614 -20.482   9.642  1.00  0.00     0.191 HD
BRANCH   6   9
HETATM    9  N6  UNL     1     -41.865 -22.723  12.095  1.00  0.00    -0.036 N
HETATM   10  O3  UNL     1     -42.901 -22.887  11.432  1.00  0.00    -0.516 OA
HETATM   11  O4  UNL     1     -41.673 -23.469  13.222  1.00  0.00    -0.516 OA
ENDBRANCH   6   9
ENDBRANCH   1   3
BRANCH   1  12
HETATM   12  N4  UNL     1     -39.553 -21.437   7.326  1.00  0.00    -0.182 N
BRANCH  12  13
HETATM   13  O1  UNL     1     -38.942 -20.756   6.401  1.00  0.00    -0.271 OA
ATOM     14  H1  UNL     1     -37.992 -20.732   6.395  1.00  0.00     0.246 HD
ENDBRANCH  12  13
BRANCH  12  15
HETATM   15  C2  UNL     1     -40.954 -21.645   7.174  1.00  0.00     0.139 C
HETATM   16  C3  UNL     1     -41.262 -23.103   7.240  1.00  0.00     0.055 C
HETATM   17  C4  UNL     1     -41.368 -23.778   5.913  1.00  0.00     0.169 C
HETATM   18  O2  UNL     1     -42.338 -23.066   5.167  1.00  0.00    -0.391 OA
HETATM   19  C5  UNL     1     -41.716 -21.882   4.791  1.00  0.00     0.169 C
HETATM   20  C6  UNL     1     -41.423 -20.964   5.931  1.00  0.00     0.055 C
ENDBRANCH  12  15
ENDBRANCH   1  12
TORSDOF 5
ENDMDL