MODEL 2
REMARK VINA RESULT: -7.125511813      1.087      1.508
REMARK  6 active torsions:
REMARK  status: ('A' for Active; 'I' for Inactive)
REMARK    1  A    between atoms: C2_2  and  N1_3
REMARK    2  A    between atoms: C2_2  and  O4_19
REMARK    3  A    between atoms: N1_3  and  C3_5
REMARK    4  A    between atoms: C6_14  and  N4_15
REMARK    5  A    between atoms: N4_15  and  O3_17
REMARK    6  A    between atoms: O4_19  and  N5_20
ROOT
HETATM    1  C3  UNL     1     -41.234 -22.467   9.798  1.00  0.00     0.141 A
HETATM    2  N2  UNL     1     -40.660 -23.678   9.721  1.00  0.00    -0.292 N
ATOM      3  H2  UNL     1     -40.410 -24.027   8.796  1.00  0.00     0.172 HD
HETATM    4  C4  UNL     1     -40.394 -24.465  10.782  1.00  0.00     0.328 A
HETATM    5  O1  UNL     1     -39.845 -25.610  10.627  1.00  0.00    -0.247 OA
HETATM    6  N3  UNL     1     -40.725 -24.003  11.997  1.00  0.00    -0.273 N
ATOM      7  H3  UNL     1     -40.532 -24.582  12.814  1.00  0.00     0.173 HD
HETATM    8  C5  UNL     1     -41.312 -22.783  12.175  1.00  0.00     0.281 A
HETATM    9  O2  UNL     1     -41.604 -22.394  13.336  1.00  0.00    -0.265 OA
HETATM   10  C6  UNL     1     -41.567 -22.011  11.063  1.00  0.00     0.166 A
ENDROOT
BRANCH   1  11
HETATM   11  N1  UNL     1     -41.506 -21.634   8.665  1.00  0.00    -0.346 N
ATOM     12  H1  UNL     1     -42.441 -21.233   8.584  1.00  0.00     0.163 HD
BRANCH  11  13
HETATM   13  C2  UNL     1     -40.562 -21.328   7.643  1.00  0.00     0.247 C
HETATM   14  C1  UNL     1     -39.262 -20.879   8.276  1.00  0.00     0.065 C
BRANCH  13  15
HETATM   15  O4  UNL     1     -40.382 -22.442   6.832  1.00  0.00    -0.262 OA
BRANCH  15  16
HETATM   16  N5  UNL     1     -41.534 -22.660   6.162  1.00  0.00    -0.309 N
ATOM     17  H52 UNL     1     -41.751 -22.302   5.232  1.00  0.00     0.184 HD
ATOM     18  H51 UNL     1     -42.135 -23.238   6.751  1.00  0.00     0.184 HD
ENDBRANCH  15  16
ENDBRANCH  13  15
ENDBRANCH  11  13
ENDBRANCH   1  11
BRANCH  10  19
HETATM   19  N4  UNL     1     -42.174 -20.742  11.223  1.00  0.00    -0.260 N
ATOM     20  H4  UNL     1     -42.989 -20.677  11.833  1.00  0.00     0.194 HD
BRANCH  19  21
HETATM   21  O3  UNL     1     -41.781 -19.702  10.670  1.00  0.00    -0.289 OA
ATOM     22  H3  UNL     1     -42.010 -18.825  10.953  1.00  0.00     0.244 HD
ENDBRANCH  19  21
ENDBRANCH  10  19
TORSDOF 6
ENDMDL