MODEL 2
REMARK VINA RESULT: -6.245954621      1.453      1.836
REMARK  7 active torsions:
REMARK  status: ('A' for Active; 'I' for Inactive)
REMARK    1  A    between atoms: O1_2  and  C2_3
REMARK    2  A    between atoms: C2_3  and  C3_5
REMARK    3  A    between atoms: C3_5  and  C4_7
REMARK    4  A    between atoms: C4_7  and  N1_8
REMARK       I    between atoms: N1_8  and  C5_10
REMARK       I    between atoms: C5_10  and  N2_12
REMARK    5  A    between atoms: N2_12  and  S1_14
REMARK    6  A    between atoms: S1_14  and  N3_15
REMARK    7  A    between atoms: N3_15  and  N4_16
ROOT
HETATM    1  N1  UNL     1     -41.629 -20.894  10.059  1.00  0.00    -0.335 N
ATOM      2  H1  UNL     1     -42.487 -20.542   9.633  1.00  0.00     0.164 HD
HETATM    3  C5  UNL     1     -40.534 -21.201   9.210  1.00  0.00     0.327 C
HETATM    4  O4  UNL     1     -39.461 -21.640   9.689  1.00  0.00    -0.246 OA
HETATM    5  N2  UNL     1     -40.626 -21.019   7.804  1.00  0.00    -0.267 N
ATOM      6  H2  UNL     1     -41.498 -20.660   7.414  1.00  0.00     0.180 HD
ENDROOT
BRANCH   1   7
HETATM    7  C4  UNL     1     -41.596 -21.053  11.488  1.00  0.00     0.214 C
BRANCH   7   8
HETATM    8  C3  UNL     1     -41.946 -22.411  11.955  1.00  0.00     0.241 C
HETATM    9  O3  UNL     1     -43.049 -22.919  11.685  1.00  0.00    -0.285 OA
BRANCH   8  10
HETATM   10  C2  UNL     1     -40.986 -23.158  12.740  1.00  0.00     0.330 C
HETATM   11  O2  UNL     1     -41.047 -23.261  13.993  1.00  0.00    -0.256 OA
BRANCH  10  12
HETATM   12  O1  UNL     1     -39.948 -23.790  12.076  1.00  0.00    -0.320 OA
HETATM   13  C1  UNL     1     -40.185 -24.571  10.897  1.00  0.00     0.213 C
ENDBRANCH  10  12
ENDBRANCH   8  10
ENDBRANCH   7   8
ENDBRANCH   1   7
BRANCH   5  14
HETATM   14  S1  UNL     1     -39.307 -21.383   6.715  1.00  0.00     0.081 SA
BRANCH  14  15
HETATM   15  N3  UNL     1     -38.228 -19.988   6.595  1.00  0.00    -0.051 NA
BRANCH  15  16
HETATM   16  N4  UNL     1     -38.665 -18.946   7.388  1.00  0.00    -0.336 N
ATOM     17  H42 UNL     1     -39.109 -19.078   8.296  1.00  0.00     0.173 HD
ATOM     18  H41 UNL     1     -38.486 -18.044   6.946  1.00  0.00     0.173 HD
ENDBRANCH  15  16
ENDBRANCH  14  15
ENDBRANCH   5  14
TORSDOF 7
ENDMDL