MODEL 1
REMARK VINA RESULT: -6.446049441      0.000      0.000
REMARK  4 active torsions:
REMARK  status: ('A' for Active; 'I' for Inactive)
REMARK    1  A    between atoms: C2_2  and  N1_3
REMARK    2  A    between atoms: C2_2  and  C3_7
REMARK       I    between atoms: C3_7  and  N2_9
REMARK    3  A    between atoms: N2_9  and  N3_11
REMARK    4  A    between atoms: C4_13  and  C5_14
ROOT
HETATM    1  N3  UNL     1     -41.637 -22.134   8.859  1.00  0.00    -0.305 N
ATOM      2  H3  UNL     1     -41.196 -21.250   9.117  1.00  0.00     0.186 HD
HETATM    3  C4  UNL     1     -41.923 -23.019   9.745  1.00  0.00     0.165 C
ENDROOT
BRANCH   1   4
HETATM    4  N2  UNL     1     -41.954 -22.427   7.525  1.00  0.00    -0.269 N
HETATM    5  C3  UNL     1     -40.932 -22.407   6.552  1.00  0.00     0.266 C
HETATM    6  O1  UNL     1     -39.765 -22.134   6.862  1.00  0.00    -0.269 OA
ATOM      7  H2  UNL     1     -42.914 -22.653   7.260  1.00  0.00     0.190 HD
BRANCH   5   8
HETATM    8  C2  UNL     1     -41.274 -22.717   5.151  1.00  0.00     0.272 C
HETATM    9  C1  UNL     1     -41.636 -24.185   5.085  1.00  0.00     0.050 C
BRANCH   8  10
HETATM   10  N1  UNL     1     -42.339 -21.876   4.696  1.00  0.00    -0.067 N
ATOM     11  H13 UNL     1     -43.234 -22.365   4.725  1.00  0.00     0.275 HD
ATOM     12  H12 UNL     1     -42.536 -21.135   5.369  1.00  0.00     0.275 HD
ATOM     13  H11 UNL     1     -42.159 -21.492   3.768  1.00  0.00     0.275 HD
ENDBRANCH   8  10
ENDBRANCH   5   8
ENDBRANCH   1   4
BRANCH   3  14
HETATM   14  C5  UNL     1     -41.601 -22.738  11.149  1.00  0.00     0.191 A
HETATM   15  N4  UNL     1     -41.420 -23.648  12.125  1.00  0.00    -0.284 N
HETATM   16  C6  UNL     1     -41.139 -23.018  13.288  1.00  0.00     0.346 A
ATOM     17  H4  UNL     1     -41.485 -24.659  12.005  1.00  0.00     0.172 HD
HETATM   18  O2  UNL     1     -40.912 -23.567  14.402  1.00  0.00    -0.245 OA
HETATM   19  N5  UNL     1     -41.156 -21.707  12.988  1.00  0.00    -0.208 N
HETATM   20  O3  UNL     1     -41.430 -21.576  11.725  1.00  0.00    -0.214 OA
ATOM     21  H5  UNL     1     -40.983 -20.943  13.643  1.00  0.00     0.200 HD
ENDBRANCH   3  14
TORSDOF 4
ENDMDL