MODEL 2
REMARK VINA RESULT: -7.402305362      1.360      1.951
REMARK  6 active torsions:
REMARK  status: ('A' for Active; 'I' for Inactive)
REMARK    1  A    between atoms: O1_2  and  C2_3
REMARK    2  A    between atoms: C2_3  and  C3_4
REMARK    3  A    between atoms: C3_4  and  O3_6
REMARK    4  A    between atoms: O3_6  and  C4_7
REMARK    5  A    between atoms: C5_8  and  O4_9
REMARK    6  A    between atoms: C7_17  and  N3_18
ROOT
HETATM    1  C4  UNL     1     -41.402 -22.166  10.282  1.00  0.00     0.173 A
HETATM    2  C5  UNL     1     -40.923 -23.429  10.549  1.00  0.00     0.182 A
HETATM    3  N1  UNL     1     -40.708 -23.880  11.802  1.00  0.00    -0.287 N
ATOM      4  H1  UNL     1     -40.353 -24.820  11.978  1.00  0.00     0.172 HD
HETATM    5  C6  UNL     1     -40.985 -23.027  12.811  1.00  0.00     0.327 A
HETATM    6  O5  UNL     1     -40.794 -23.419  13.998  1.00  0.00    -0.247 OA
HETATM    7  N2  UNL     1     -41.452 -21.787  12.612  1.00  0.00    -0.292 N
ATOM      8  H2  UNL     1     -41.645 -21.184  13.413  1.00  0.00     0.172 HD
HETATM    9  C7  UNL     1     -41.673 -21.325  11.348  1.00  0.00     0.141 A
ENDROOT
BRANCH   1  10
HETATM   10  O3  UNL     1     -41.596 -21.778   8.967  1.00  0.00    -0.269 OA
BRANCH  10  11
HETATM   11  C3  UNL     1     -40.678 -21.129   8.198  1.00  0.00     0.288 C
HETATM   12  O2  UNL     1     -40.191 -20.060   8.699  1.00  0.00    -0.262 OA
BRANCH  11  13
HETATM   13  C2  UNL     1     -40.275 -21.619   6.883  1.00  0.00     0.278 C
BRANCH  13  14
HETATM   14  O1  UNL     1     -40.454 -22.938   6.607  1.00  0.00    -0.386 OA
HETATM   15  C1  UNL     1     -41.488 -23.204   5.746  1.00  0.00     0.202 C
ENDBRANCH  13  14
ENDBRANCH  11  13
ENDBRANCH  10  11
ENDBRANCH   1  10
BRANCH   2  16
HETATM   16  O4  UNL     1     -40.656 -24.259   9.472  1.00  0.00    -0.344 OA
ATOM     17  H4  UNL     1     -40.020 -24.954   9.596  1.00  0.00     0.219 HD
ENDBRANCH   2  16
BRANCH   9  18
HETATM   18  N3  UNL     1     -42.116 -20.153  11.133  1.00  0.00    -0.383 N
ATOM     19  H32 UNL     1     -42.021 -19.409  11.825  1.00  0.00     0.157 HD
ATOM     20  H31 UNL     1     -42.578 -19.940  10.249  1.00  0.00     0.157 HD
ENDBRANCH   9  18
TORSDOF 6
ENDMDL