MODEL 2
REMARK VINA RESULT: -6.244048252      3.051      6.781
REMARK  4 active torsions:
REMARK  status: ('A' for Active; 'I' for Inactive)
REMARK    1  A    between atoms: O1_3  and  N2_4
REMARK       I    between atoms: N2_4  and  C2_6
REMARK       I    between atoms: C2_6  and  N3_8
REMARK    2  A    between atoms: N3_8  and  N4_10
REMARK    3  A    between atoms: C3_12  and  C4_13
REMARK    4  A    between atoms: C5_19  and  N7_20
ROOT
HETATM    1  N1  UNL     1     -40.010 -26.519   5.671  1.00  0.00    -0.162 NA
HETATM    2  C1  UNL     1     -40.652 -25.748   5.097  1.00  0.00     0.253 C
HETATM    3  O1  UNL     1     -41.404 -24.813   4.412  1.00  0.00    -0.155 OA
ENDROOT
BRANCH   3   4
HETATM    4  N2  UNL     1     -41.312 -23.519   4.874  1.00  0.00    -0.198 N
HETATM    5  C2  UNL     1     -41.409 -23.195   6.253  1.00  0.00     0.359 C
HETATM    6  O2  UNL     1     -41.582 -24.076   7.112  1.00  0.00    -0.243 OA
HETATM    7  N3  UNL     1     -41.307 -21.841   6.667  1.00  0.00    -0.250 N
ATOM      8  H3  UNL     1     -41.165 -21.125   5.955  1.00  0.00     0.192 HD
ATOM      9  H2  UNL     1     -41.170 -22.766   4.201  1.00  0.00     0.200 HD
BRANCH   7  10
HETATM   10  N4  UNL     1     -41.393 -21.445   8.000  1.00  0.00    -0.306 N
HETATM   11  C3  UNL     1     -41.293 -22.270   8.987  1.00  0.00     0.142 C
ATOM     12  H4  UNL     1     -41.540 -20.456   8.205  1.00  0.00     0.186 HD
BRANCH  11  13
HETATM   13  C4  UNL     1     -41.385 -21.834  10.370  1.00  0.00     0.118 A
HETATM   14  N5  UNL     1     -41.740 -20.636  10.808  1.00  0.00    -0.237 N
HETATM   15  O3  UNL     1     -41.701 -20.640  12.101  1.00  0.00    -0.155 OA
ATOM     16  H5  UNL     1     -42.001 -19.841  10.223  1.00  0.00     0.197 HD
HETATM   17  N6  UNL     1     -41.330 -21.805  12.533  1.00  0.00    -0.224 N
HETATM   18  C5  UNL     1     -41.114 -22.608  11.479  1.00  0.00     0.151 A
ATOM     19  H6  UNL     1     -41.219 -22.069  13.512  1.00  0.00     0.198 HD
BRANCH  18  20
HETATM   20  N7  UNL     1     -40.740 -23.831  11.500  1.00  0.00    -0.382 N
ATOM     21  H72 UNL     1     -41.334 -24.658  11.542  1.00  0.00     0.157 HD
ATOM     22  H71 UNL     1     -39.784 -24.188  11.476  1.00  0.00     0.157 HD
ENDBRANCH  18  20
ENDBRANCH  11  13
ENDBRANCH   7  10
ENDBRANCH   3   4
TORSDOF 4
ENDMDL