MODEL 4
REMARK VINA RESULT: -6.828221501      1.434      6.825
REMARK  4 active torsions:
REMARK  status: ('A' for Active; 'I' for Inactive)
REMARK    1  A    between atoms: C2_2  and  N1_5
REMARK    2  A    between atoms: N1_5  and  C5_7
REMARK    3  A    between atoms: C7_12  and  N3_13
REMARK    4  A    between atoms: N3_13  and  C8_15
ROOT
HETATM    1  C5  UNL     1      -0.234  -0.921  26.576  1.00  0.00     0.675 C
HETATM    2  N2  UNL     1       0.549  -1.762  27.125  1.00  0.00    -0.188 N
ATOM      3  H2  UNL     1       0.535  -2.666  26.653  1.00  0.00     0.181 HD
HETATM    4  C6  UNL     1       1.454  -1.750  28.254  1.00  0.00     0.353 C
HETATM    5  F1  UNL     1       1.557  -3.007  28.781  1.00  0.00    -0.218 F
HETATM    6  C7  UNL     1       1.044  -0.816  29.322  1.00  0.00     0.135 C
HETATM    7  N4  UNL     1       0.532   0.345  29.218  1.00  0.00    -0.349 N
ATOM      8  H4  UNL     1       0.340   0.783  30.119  1.00  0.00     0.163 HD
HETATM    9  C14 UNL     1       0.166   1.175  28.090  1.00  0.00     0.114 C
HETATM   10  C15 UNL     1      -0.885   2.191  28.556  1.00  0.00     0.063 C
HETATM   11  C16 UNL     1       1.334   1.987  27.575  1.00  0.00     0.063 C
HETATM   12  N5  UNL     1      -0.430   0.431  27.011  1.00  0.00    -0.201 N
ATOM     13  H5  UNL     1      -1.109   0.956  26.461  1.00  0.00     0.180 HD
ENDROOT
BRANCH   6  14
HETATM   14  N3  UNL     1       1.261  -1.303  30.634  1.00  0.00    -0.342 N
ATOM     15  H3  UNL     1       0.459  -1.379  31.258  1.00  0.00     0.167 HD
BRANCH  14  16
HETATM   16  C8  UNL     1       2.529  -1.688  31.126  1.00  0.00     0.033 A
HETATM   17  C9  UNL     1       2.614  -2.449  32.271  1.00  0.00     0.029 A
HETATM   18  C10 UNL     1       3.850  -2.849  32.787  1.00  0.00     0.002 A
HETATM   19  C11 UNL     1       5.007  -2.476  32.139  1.00  0.00     0.000 A
HETATM   20  C12 UNL     1       4.941  -1.726  31.008  1.00  0.00     0.002 A
HETATM   21  C13 UNL     1       3.700  -1.329  30.498  1.00  0.00     0.029 A
ENDBRANCH  14  16
ENDBRANCH   6  14
BRANCH   1  22
HETATM   22  N1  UNL     1      -0.988  -1.337  25.430  1.00  0.00    -0.218 N
ATOM     23  H1  UNL     1      -1.852  -1.859  25.574  1.00  0.00     0.178 HD
BRANCH  22  24
HETATM   24  C2  UNL     1      -0.570  -1.046  24.081  1.00  0.00     0.036 C
HETATM   25  C1  UNL     1      -0.609  -2.346  23.298  1.00  0.00     0.038 C
HETATM   26  C3  UNL     1       0.840  -0.513  24.012  1.00  0.00     0.038 C
HETATM   27  C4  UNL     1      -1.550  -0.104  23.384  1.00  0.00     0.038 C
ENDBRANCH  22  24
ENDBRANCH   1  22
TORSDOF 4
ENDMDL