MODEL 3
REMARK VINA RESULT: -5.414282572      6.922      8.934
REMARK  3 active torsions:
REMARK  status: ('A' for Active; 'I' for Inactive)
REMARK    1  A    between atoms: C2_2  and  C3_3
REMARK    2  A    between atoms: C3_3  and  O1_4
REMARK    3  A    between atoms: C13_19  and  O3_20
ROOT
HETATM    1  C3  UNL     1      -5.622   2.663  33.058  1.00  0.00     0.090 C
HETATM    2  C4  UNL     1      -6.109   1.293  33.432  1.00  0.00     0.078 C
HETATM    3  C5  UNL     1      -7.489   1.290  33.965  1.00  0.00     0.064 C
HETATM    4  C6  UNL     1      -8.439   0.854  32.855  1.00  0.00     0.046 C
HETATM    5  C7  UNL     1      -7.628   0.261  35.090  1.00  0.00     0.046 C
HETATM    6  O2  UNL     1      -7.948   2.511  34.462  1.00  0.00    -0.333 OA
HETATM    7  C8  UNL     1      -7.339   3.573  35.139  1.00  0.00     0.122 A
HETATM    8  S1  UNL     1      -8.057   4.682  36.207  1.00  0.00    -0.051 SA
HETATM    9  C9  UNL     1      -6.682   5.620  36.582  1.00  0.00     0.098 A
HETATM   10 CL1  UNL     1      -6.573   7.028  37.664  1.00  0.00    -0.074 Cl
HETATM   11  C10 UNL     1      -5.681   5.026  35.845  1.00  0.00     0.085 A
HETATM   12  C11 UNL     1      -4.315   5.582  35.930  1.00  0.00     0.102 C
HETATM   13  N1  UNL     1      -3.228   6.032  36.020  1.00  0.00    -0.191 NA
HETATM   14  C12 UNL     1      -6.040   3.949  35.089  1.00  0.00     0.037 A
HETATM   15  C13 UNL     1      -4.962   3.265  34.260  1.00  0.00     0.190 C
ENDROOT
BRANCH  15  16
HETATM   16  O3  UNL     1      -3.986   4.164  33.849  1.00  0.00    -0.388 OA
ATOM     17  H3  UNL     1      -3.277   3.690  33.429  1.00  0.00     0.210 HD
ENDBRANCH  15  16
BRANCH   1  18
HETATM   18  C2  UNL     1      -4.703   2.626  31.853  1.00  0.00     0.036 C
HETATM   19  C1  UNL     1      -4.892   1.391  31.029  1.00  0.00     0.008 C
ENDBRANCH   1  18
BRANCH   1  20
HETATM   20  O1  UNL     1      -6.707   3.450  32.679  1.00  0.00    -0.387 OA
ATOM     21  H1  UNL     1      -6.336   4.203  32.235  1.00  0.00     0.210 HD
ENDBRANCH   1  20
TORSDOF 3
ENDMDL