MODEL 3
REMARK VINA RESULT: -6.544262820      3.681      6.652
REMARK  4 active torsions:
REMARK  status: ('A' for Active; 'I' for Inactive)
REMARK    1  A    between atoms: C2_2  and  N2_6
REMARK    2  A    between atoms: N3_8  and  C3_10
REMARK    3  A    between atoms: C5_15  and  C6_16
REMARK    4  A    between atoms: C12_26  and  N7_27
ROOT
HETATM    1  C3  UNL     1       1.560  -1.452  29.769  1.00  0.00     0.103 A
HETATM    2  C4  UNL     1       1.898  -1.734  28.465  1.00  0.00     0.133 A
HETATM    3 CL1  UNL     1       3.185  -2.904  28.151  1.00  0.00    -0.062 Cl
HETATM    4  N4  UNL     1       1.245  -1.119  27.474  1.00  0.00    -0.346 N
ATOM      5  H4  UNL     1       1.516  -1.347  26.517  1.00  0.00     0.167 HD
HETATM    6  C5  UNL     1       0.260  -0.223  27.644  1.00  0.00     0.042 A
HETATM    7  C10 UNL     1      -0.088   0.070  28.948  1.00  0.00     0.072 A
HETATM    8  N5  UNL     1      -1.066   0.957  29.244  1.00  0.00    -0.350 N
ATOM      9  H5  UNL     1      -1.559   1.421  28.481  1.00  0.00     0.166 HD
HETATM   10  C11 UNL     1      -1.410   1.246  30.510  1.00  0.00     0.182 A
HETATM   11  N6  UNL     1      -0.789   0.660  31.575  1.00  0.00    -0.338 N
ATOM     12  H6  UNL     1      -1.057   0.887  32.533  1.00  0.00     0.168 HD
HETATM   13  C12 UNL     1       0.185  -0.226  31.318  1.00  0.00     0.114 A
HETATM   14  C13 UNL     1       0.559  -0.541  30.017  1.00  0.00     0.067 A
ENDROOT
BRANCH   1  15
HETATM   15  N3  UNL     1       2.252  -2.104  30.812  1.00  0.00    -0.295 N
HETATM   16  N2  UNL     1       3.486  -1.854  31.022  1.00  0.00    -0.289 N
ATOM     17  H2  UNL     1       3.957  -1.177  30.423  1.00  0.00     0.188 HD
ATOM     18  H3  UNL     1       1.764  -2.778  31.401  1.00  0.00     0.187 HD
BRANCH  16  19
HETATM   19  C2  UNL     1       4.222  -2.472  32.042  1.00  0.00     0.085 C
HETATM   20  C1  UNL     1       5.705  -2.239  32.137  1.00  0.00     0.090 C
HETATM   21  N1  UNL     1       3.720  -3.254  32.945  1.00  0.00    -0.388 N
ATOM     22  H12 UNL     1       4.255  -3.703  33.687  1.00  0.00     0.157 HD
ATOM     23  H11 UNL     1       2.713  -3.411  32.880  1.00  0.00     0.157 HD
ENDBRANCH  16  19
ENDBRANCH   1  15
BRANCH  13  24
HETATM   24  N7  UNL     1       0.800  -0.806  32.289  1.00  0.00    -0.385 N
ATOM     25  H72 UNL     1       0.553  -0.547  33.244  1.00  0.00     0.157 HD
ATOM     26  H71 UNL     1       1.513  -1.509  32.094  1.00  0.00     0.157 HD
ENDBRANCH  13  24
BRANCH   6  27
HETATM   27  C6  UNL     1      -0.402   0.405  26.505  1.00  0.00     0.038 C
HETATM   28  C7  UNL     1       0.559   1.247  25.692  1.00  0.00     0.011 C
HETATM   29  C8  UNL     1      -0.173   0.756  24.460  1.00  0.00     0.001 C
HETATM   30  C9  UNL     1      -0.566  -0.463  25.271  1.00  0.00     0.011 C
ENDBRANCH   6  27
TORSDOF 4
ENDMDL