MODEL 5
REMARK VINA RESULT: -5.825485470      4.411      6.474
REMARK  3 active torsions:
REMARK  status: ('A' for Active; 'I' for Inactive)
REMARK    1  A    between atoms: S1_2  and  C2_3
REMARK    2  A    between atoms: C3_6  and  N2_7
REMARK    3  A    between atoms: N4_18  and  O1_20
ROOT
HETATM    1  C2  UNL     1      -1.744   1.044  29.551  1.00  0.00     0.146 A
HETATM    2  N1  UNL     1      -1.002   0.525  28.591  1.00  0.00    -0.323 N
ATOM      3  H1  UNL     1      -1.298   0.706  27.632  1.00  0.00     0.169 HD
HETATM    4  C3  UNL     1       0.098  -0.213  28.751  1.00  0.00     0.114 A
HETATM    5  C4  UNL     1       0.554  -0.497  30.056  1.00  0.00     0.049 A
HETATM    6  C5  UNL     1       1.642  -1.218  30.415  1.00  0.00    -0.022 A
HETATM    7  C6  UNL     1       1.852  -1.325  31.801  1.00  0.00     0.038 A
HETATM    8  S2  UNL     1       0.570  -0.450  32.489  1.00  0.00    -0.069 SA
HETATM    9  C7  UNL     1      -0.214   0.041  31.055  1.00  0.00     0.091 A
HETATM   10  N3  UNL     1      -1.334   0.792  30.811  1.00  0.00    -0.330 N
ATOM     11  H3  UNL     1      -1.868   1.167  31.596  1.00  0.00     0.168 HD
HETATM   12  C8  UNL     1       2.946  -2.024  32.509  1.00  0.00     0.049 C
HETATM   13  N4  UNL     1       2.746  -2.169  33.747  1.00  0.00    -0.272 N
ATOM     14  H4  UNL     1       3.444  -2.640  34.323  1.00  0.00     0.194 HD
HETATM   15  C9  UNL     1       4.224  -2.545  31.897  1.00  0.00     0.060 C
HETATM   16  C10 UNL     1       4.685  -1.459  30.949  1.00  0.00     0.006 C
HETATM   17  C11 UNL     1       4.010  -1.378  29.650  1.00  0.00     0.005 C
HETATM   18  C12 UNL     1       2.632  -1.922  29.510  1.00  0.00     0.041 C
ENDROOT
BRANCH  13  19
HETATM   19  O1  UNL     1       1.596  -1.698  34.318  1.00  0.00    -0.290 OA
ATOM     20  H1  UNL     1       1.163  -2.196  35.000  1.00  0.00     0.244 HD
ENDBRANCH  13  19
BRANCH   4  21
HETATM   21  N2  UNL     1       0.722  -0.640  27.722  1.00  0.00    -0.385 N
ATOM     22  H22 UNL     1       0.929  -0.025  26.934  1.00  0.00     0.157 HD
ATOM     23  H21 UNL     1       1.012  -1.617  27.682  1.00  0.00     0.157 HD
ENDBRANCH   4  21
BRANCH   1  24
HETATM   24  S1  UNL     1      -3.190   2.014  29.275  1.00  0.00    -0.098 SA
HETATM   25  C1  UNL     1      -4.279   1.996  30.708  1.00  0.00     0.099 C
ENDBRANCH   1  24
TORSDOF 3
ENDMDL