MODEL 2
REMARK VINA RESULT: -7.514371218      3.347      4.378
REMARK  3 active torsions:
REMARK  status: ('A' for Active; 'I' for Inactive)
REMARK    1  A    between atoms: N1_1  and  C1_4
REMARK    2  A    between atoms: C3_9  and  N3_10
REMARK    3  A    between atoms: N3_10  and  C4_12
ROOT
HETATM    1  C1  UNL     1       2.118  -1.753  31.467  1.00  0.00     0.139 A
HETATM    2  N2  UNL     1       0.907  -1.240  31.182  1.00  0.00    -0.331 N
ATOM      3  H2  UNL     1       0.169  -1.272  31.885  1.00  0.00     0.168 HD
HETATM    4  C2  UNL     1       0.651  -0.679  29.965  1.00  0.00     0.123 A
HETATM    5  S1  UNL     1      -0.710   0.066  29.212  1.00  0.00    -0.033 SA
HETATM    6  C3  UNL     1      -0.005   0.426  27.700  1.00  0.00     0.148 A
HETATM    7  N4  UNL     1       1.222  -0.036  27.846  1.00  0.00    -0.321 N
ATOM      8  H4  UNL     1       1.891   0.044  27.080  1.00  0.00     0.169 HD
HETATM    9  C12 UNL     1       1.581  -0.592  28.964  1.00  0.00     0.143 A
HETATM   10  N5  UNL     1       2.823  -1.116  29.255  1.00  0.00    -0.328 N
ATOM     11  H5  UNL     1       3.568  -1.089  28.559  1.00  0.00     0.168 HD
HETATM   12  C13 UNL     1       3.043  -1.656  30.445  1.00  0.00     0.149 A
HETATM   13 CL1  UNL     1       4.641  -2.323  30.800  1.00  0.00    -0.060 Cl
ENDROOT
BRANCH   6  14
HETATM   14  N3  UNL     1      -0.550   1.058  26.550  1.00  0.00    -0.366 N
ATOM     15  H3  UNL     1      -0.977   1.981  26.633  1.00  0.00     0.162 HD
BRANCH  14  16
HETATM   16  C4  UNL     1      -0.504   0.401  25.265  1.00  0.00     0.083 C
HETATM   17  C5  UNL     1      -0.313  -1.056  25.445  1.00  0.00     0.025 C
HETATM   18  C6  UNL     1      -1.306  -1.831  24.565  1.00  0.00     0.002 C
HETATM   19  C7  UNL     1      -0.655  -2.336  23.318  1.00  0.00     0.000 C
HETATM   20  C8  UNL     1      -0.189  -1.110  22.521  1.00  0.00     0.000 C
HETATM   21  C9  UNL     1       1.235  -0.837  22.801  1.00  0.00     0.000 C
HETATM   22  C10 UNL     1       1.557   0.195  23.800  1.00  0.00     0.002 C
HETATM   23  C11 UNL     1       0.455   1.053  24.305  1.00  0.00     0.025 C
ENDBRANCH  14  16
ENDBRANCH   6  14
BRANCH   1  24
HETATM   24  N1  UNL     1       2.358  -2.277  32.601  1.00  0.00    -0.383 N
ATOM     25  H12 UNL     1       1.733  -2.929  33.074  1.00  0.00     0.157 HD
ATOM     26  H11 UNL     1       3.217  -2.063  33.107  1.00  0.00     0.157 HD
ENDBRANCH   1  24
TORSDOF 3
ENDMDL