MODEL 4
REMARK VINA RESULT: -7.517518089      3.876      5.194
REMARK  3 active torsions:
REMARK  status: ('A' for Active; 'I' for Inactive)
REMARK    1  A    between atoms: C3_4  and  N2_5
REMARK    2  A    between atoms: C7_12  and  C8_13
REMARK    3  A    between atoms: C8_13  and  C9_14
ROOT
HETATM    1  N1  UNL     1      -1.429  -2.371  24.072  1.00  0.00    -0.196 NA
HETATM    2  C1  UNL     1      -0.541  -1.770  24.480  1.00  0.00     0.075 C
HETATM    3  C2  UNL     1       0.587  -0.999  25.001  1.00  0.00     0.182 C
HETATM    4  C3  UNL     1       1.000  -0.007  23.970  1.00  0.00     0.062 C
HETATM    5  S1  UNL     1      -0.205   1.283  23.674  1.00  0.00    -0.111 SA
HETATM    6  C4  UNL     1      -1.240   1.276  25.140  1.00  0.00     0.115 C
HETATM    7  C5  UNL     1      -0.568   0.699  26.338  1.00  0.00    -0.061 C
HETATM    8  C6  UNL     1       0.258  -0.330  26.291  1.00  0.00    -0.025 C
HETATM    9  C7  UNL     1       0.708  -0.651  27.657  1.00  0.00    -0.049 C
HETATM   10  C14 UNL     1       0.546   0.624  28.402  1.00  0.00     0.043 C
HETATM   11  C15 UNL     1      -0.695   1.177  27.722  1.00  0.00     0.040 C
ENDROOT
BRANCH   4  12
HETATM   12  N2  UNL     1       2.089  -0.069  23.375  1.00  0.00    -0.396 N
ATOM     13  H22 UNL     1       2.782  -0.796  23.553  1.00  0.00     0.156 HD
ATOM     14  H21 UNL     1       2.367   0.604  22.659  1.00  0.00     0.156 HD
ENDBRANCH   4  12
BRANCH   9  15
HETATM   15  C8  UNL     1       1.124  -1.793  28.164  1.00  0.00     0.020 C
BRANCH  15  16
HETATM   16  C9  UNL     1       1.993  -1.820  29.322  1.00  0.00    -0.017 A
HETATM   17  C10 UNL     1       3.338  -1.512  29.289  1.00  0.00     0.101 A
HETATM   18  N3  UNL     1       4.056  -1.526  30.425  1.00  0.00    -0.349 N
HETATM   19  C11 UNL     1       3.520  -1.833  31.629  1.00  0.00     0.138 A
ATOM     20  H3  UNL     1       5.049  -1.296  30.378  1.00  0.00     0.167 HD
HETATM   21  N4  UNL     1       4.263  -1.825  32.693  1.00  0.00    -0.383 N
HETATM   22  C12 UNL     1       2.196  -2.144  31.701  1.00  0.00     0.160 A
ATOM     23  H42 UNL     1       5.254  -1.593  32.639  1.00  0.00     0.157 HD
ATOM     24  H41 UNL     1       3.859  -2.057  33.600  1.00  0.00     0.157 HD
HETATM   25  F1  UNL     1       1.659  -2.452  32.913  1.00  0.00    -0.202 F
HETATM   26  C13 UNL     1       1.440  -2.136  30.549  1.00  0.00     0.059 A
ENDBRANCH  15  16
ENDBRANCH   9  15
TORSDOF 3
ENDMDL