MODEL 4
REMARK VINA RESULT: -6.607801086      4.343      6.319
REMARK  2 active torsions:
REMARK  status: ('A' for Active; 'I' for Inactive)
REMARK    1  A    between atoms: S1_3  and  C4_6
REMARK    2  A    between atoms: C5_9  and  N2_10
REMARK       I    between atoms: N2_10  and  C6_12
ROOT
HETATM    1  C1  UNL     1       1.072  -2.087  32.294  1.00  0.00     0.111 C
HETATM    2  C2  UNL     1       1.371  -1.950  31.060  1.00  0.00    -0.102 C
HETATM    3  S1  UNL     1       1.948  -1.812  29.568  1.00  0.00    -0.001 SA
HETATM    4  C3  UNL     1       3.543  -1.310  29.678  1.00  0.00     0.122 C
HETATM    5  F1  UNL     1       1.770  -3.253  28.902  1.00  0.00    -0.171 F
ENDROOT
BRANCH   3   6
HETATM    6  C4  UNL     1       0.794  -0.723  29.295  1.00  0.00     0.119 A
HETATM    7  N1  UNL     1       0.226  -0.246  30.380  1.00  0.00    -0.333 N
HETATM    8  C5  UNL     1      -0.755   0.646  30.183  1.00  0.00     0.131 A
ATOM      9  H1  UNL     1       0.514  -0.536  31.314  1.00  0.00     0.168 HD
HETATM   10  C7  UNL     1      -1.099   0.991  28.869  1.00  0.00     0.101 A
HETATM   11  C8  UNL     1      -2.148   1.949  28.653  1.00  0.00     0.104 C
HETATM   12  C9  UNL     1      -0.456   0.436  27.735  1.00  0.00     0.026 A
HETATM   13  N4  UNL     1      -3.000   2.716  28.497  1.00  0.00    -0.191 NA
HETATM   14  C10 UNL     1      -0.748   0.637  26.402  1.00  0.00     0.083 A
HETATM   15  C11 UNL     1       0.539  -0.467  27.976  1.00  0.00     0.086 A
HETATM   16  S2  UNL     1       0.331  -0.401  25.600  1.00  0.00    -0.025 SA
HETATM   17  N5  UNL     1       1.119  -1.058  26.909  1.00  0.00    -0.323 N
ATOM     18  H5  UNL     1       1.869  -1.751  26.907  1.00  0.00     0.174 HD
BRANCH   8  19
HETATM   19  N2  UNL     1      -1.453   1.243  31.256  1.00  0.00    -0.296 N
HETATM   20  C6  UNL     1      -1.056   1.533  32.545  1.00  0.00     0.334 C
HETATM   21  N3  UNL     1       0.202   1.290  33.104  1.00  0.00    -0.040 NA
HETATM   22  O1  UNL     1      -1.899   2.085  33.349  1.00  0.00    -0.251 OA
ATOM     23  H2  UNL     1      -2.415   1.505  31.041  1.00  0.00     0.171 HD
ENDBRANCH   8  19
ENDBRANCH   3   6
TORSDOF 2
ENDMDL