MODEL 4
REMARK VINA RESULT: -5.460719957      3.663      4.361
REMARK  3 active torsions:
REMARK  status: ('A' for Active; 'I' for Inactive)
REMARK    1  A    between atoms: C1_2  and  N2_4
REMARK    2  A    between atoms: N2_4  and  N3_6
REMARK    3  A    between atoms: C10_20  and  N5_21
ROOT
HETATM    1  N5  UNL     1      -1.718  -2.673  26.166  1.00  0.00    -0.279 NA
HETATM    2  O1  UNL     1      -2.584  -3.499  26.496  1.00  0.00    -0.218 OA
ATOM      3  H1  UNL     1      -3.273  -4.084  26.787  1.00  0.00     0.261 HD
ENDROOT
BRANCH   1   4
HETATM    4  C10 UNL     1      -0.852  -1.935  25.799  1.00  0.00     0.198 C
HETATM    5  C2  UNL     1      -0.014  -1.209  26.770  1.00  0.00     0.072 C
HETATM    6  N3  UNL     1       0.166  -1.754  27.925  1.00  0.00    -0.299 N
HETATM    7  C3  UNL     1       0.626   0.097  26.495  1.00  0.00     0.062 C
ATOM      8  H3  UNL     1      -0.279  -2.654  28.109  1.00  0.00     0.186 HD
HETATM    9  C4  UNL     1      -0.285   1.115  25.884  1.00  0.00     0.006 C
HETATM   10  C5  UNL     1       0.413   2.158  25.076  1.00  0.00     0.000 C
HETATM   11  C6  UNL     1       1.251   1.638  23.954  1.00  0.00     0.001 C
HETATM   12  C7  UNL     1       0.463   1.085  22.816  1.00  0.00     0.010 C
HETATM   13  C8  UNL     1       0.954  -0.256  22.339  1.00  0.00     0.081 C
HETATM   14  S2  UNL     1       1.011  -1.486  23.661  1.00  0.00    -0.107 SA
HETATM   15  C9  UNL     1      -0.612  -1.750  24.346  1.00  0.00     0.141 C
HETATM   16  N4  UNL     1      -1.619  -1.782  23.573  1.00  0.00    -0.214 N
HETATM   17  F1  UNL     1      -2.876  -1.974  23.994  1.00  0.00    -0.101 F
ATOM     18  H4  UNL     1      -1.461  -1.655  22.573  1.00  0.00     0.200 HD
BRANCH   6  19
HETATM   19  N2  UNL     1       0.931  -1.181  28.932  1.00  0.00    -0.278 N
ATOM     20  H2  UNL     1       1.948  -1.228  28.870  1.00  0.00     0.189 HD
BRANCH  19  21
HETATM   21  C1  UNL     1       0.337  -0.535  30.045  1.00  0.00     0.199 C
HETATM   22  N1  UNL     1      -0.694   0.421  29.891  1.00  0.00    -0.068 NA
HETATM   23  S1  UNL     1       0.818  -0.865  31.577  1.00  0.00    -0.043 SA
ENDBRANCH  19  21
ENDBRANCH   6  19
ENDBRANCH   1   4
TORSDOF 3
ENDMDL