MODEL 1
REMARK VINA RESULT: -7.840149358      0.000      0.000
REMARK  3 active torsions:
REMARK  status: ('A' for Active; 'I' for Inactive)
REMARK    1  A    between atoms: C5_8  and  N3_9
REMARK    2  A    between atoms: N3_9  and  C6_11
REMARK    3  A    between atoms: C11_16  and  O1_17
ROOT
HETATM    1  N1  UNL     1       0.901  -2.033  28.604  1.00  0.00    -0.191 NA
HETATM    2  C1  UNL     1       0.340  -1.013  28.805  1.00  0.00     0.104 C
HETATM    3  C2  UNL     1      -0.385   0.246  29.066  1.00  0.00     0.102 A
HETATM    4  C3  UNL     1      -0.646   0.647  30.321  1.00  0.00     0.076 A
HETATM    5  N2  UNL     1      -0.231  -0.066  31.524  1.00  0.00    -0.100 NA
HETATM    6  C4  UNL     1      -1.354   1.810  30.485  1.00  0.00     0.080 A
HETATM    7  S1  UNL     1      -1.629   2.304  28.879  1.00  0.00    -0.081 SA
HETATM    8  C5  UNL     1      -0.832   1.011  28.034  1.00  0.00     0.093 A
ENDROOT
BRANCH   8   9
HETATM    9  N3  UNL     1      -0.733   0.946  26.626  1.00  0.00    -0.378 N
ATOM     10  H3  UNL     1      -1.566   1.253  26.124  1.00  0.00     0.160 HD
BRANCH   9  11
HETATM   11  C6  UNL     1       0.336   0.526  25.798  1.00  0.00     0.089 C
HETATM   12  C7  UNL     1       1.018   1.618  25.014  1.00  0.00     0.026 C
HETATM   13  C8  UNL     1       1.337   1.038  23.627  1.00  0.00     0.007 C
HETATM   14  C9  UNL     1       1.059  -0.441  23.798  1.00  0.00    -0.003 C
HETATM   15  C10 UNL     1       0.689  -1.128  22.533  1.00  0.00     0.037 C
HETATM   16  C14 UNL     1      -0.169  -0.372  24.682  1.00  0.00     0.046 C
HETATM   17  C11 UNL     1       0.232  -2.527  22.860  1.00  0.00     0.121 C
HETATM   18  C12 UNL     1      -0.828  -2.576  23.916  1.00  0.00     0.069 C
HETATM   19  C13 UNL     1      -0.472  -1.763  25.147  1.00  0.00     0.179 C
HETATM   20  F1  UNL     1      -1.564  -1.816  25.991  1.00  0.00    -0.249 F
BRANCH  17  21
HETATM   21  O1  UNL     1      -0.290  -3.087  21.698  1.00  0.00    -0.395 OA
ATOM     22  H1  UNL     1      -0.909  -3.762  21.953  1.00  0.00     0.210 HD
ENDBRANCH  17  21
ENDBRANCH   9  11
ENDBRANCH   8   9
TORSDOF 3
ENDMDL