MODEL 3
REMARK VINA RESULT: -7.257662756      0.707      1.426
REMARK  2 active torsions:
REMARK  status: ('A' for Active; 'I' for Inactive)
REMARK    1  A    between atoms: C5_5  and  O1_6
REMARK    2  A    between atoms: C7_10  and  C8_11
ROOT
HETATM    1  C1  UNL     1       0.864  -1.804  23.344  1.00  0.00     0.016 C
HETATM    2  C2  UNL     1       0.214  -0.418  23.433  1.00  0.00    -0.023 C
HETATM    3  C3  UNL     1      -0.545  -0.271  22.103  1.00  0.00     0.016 C
HETATM    4  C4  UNL     1       1.285   0.603  23.443  1.00  0.00     0.047 C
HETATM    5  C5  UNL     1       0.818   1.808  24.235  1.00  0.00     0.161 C
HETATM    6  C6  UNL     1       0.583   1.259  25.624  1.00  0.00     0.037 A
HETATM    7  S1  UNL     1       1.037   1.604  27.234  1.00  0.00    -0.070 SA
HETATM    8  C7  UNL     1       0.205   0.341  28.022  1.00  0.00     0.105 A
HETATM    9  N4  UNL     1      -0.376  -0.277  27.014  1.00  0.00    -0.350 N
ATOM     10  H4  UNL     1      -0.958  -1.096  27.189  1.00  0.00     0.166 HD
HETATM   11  C11 UNL     1      -0.211   0.149  25.807  1.00  0.00     0.045 A
HETATM   12  C12 UNL     1      -0.781  -0.408  24.518  1.00  0.00     0.141 C
HETATM   13 CL1  UNL     1      -1.439  -2.040  24.763  1.00  0.00    -0.118 Cl
ENDROOT
BRANCH   8  14
HETATM   14  C8  UNL     1       0.180   0.065  29.458  1.00  0.00     0.109 A
HETATM   15  N1  UNL     1       0.931  -0.802  30.146  1.00  0.00    -0.347 N
HETATM   16  C9  UNL     1       0.597  -0.751  31.446  1.00  0.00     0.182 A
ATOM     17  H1  UNL     1       1.647  -1.409  29.746  1.00  0.00     0.167 HD
HETATM   18  N2  UNL     1      -0.385   0.160  31.605  1.00  0.00    -0.339 N
HETATM   19  C10 UNL     1      -0.641   0.666  30.368  1.00  0.00     0.147 A
ATOM     20  H2  UNL     1      -0.843   0.420  32.479  1.00  0.00     0.167 HD
HETATM   21  N3  UNL     1      -1.610   1.662  30.066  1.00  0.00    -0.080 NA
ENDBRANCH   8  14
BRANCH   5  22
HETATM   22  O1  UNL     1       1.773   2.800  24.317  1.00  0.00    -0.390 OA
ATOM     23  H1  UNL     1       1.605   3.526  23.728  1.00  0.00     0.210 HD
ENDBRANCH   5  22
TORSDOF 2
ENDMDL