MODEL 1
REMARK VINA RESULT: -9.755863422      0.000      0.000
REMARK  10 active torsions:
REMARK  status: ('A' for Active; 'I' for Inactive)
REMARK    1  A    between atoms: N1_1  and  C1_4
REMARK    2  A    between atoms: C2_7  and  N3_8
REMARK    3  A    between atoms: C3_14  and  C4_15
REMARK    4  A    between atoms: C4_15  and  C5_16
REMARK    5  A    between atoms: C5_16  and  C6_17
REMARK    6  A    between atoms: C6_17  and  C7_18
REMARK    7  A    between atoms: C7_18  and  C8_19
REMARK    8  A    between atoms: C9_22  and  C10_23
REMARK    9  A    between atoms: C10_23  and  S1_24
REMARK   10  A    between atoms: S1_24  and  C11_25
ROOT
HETATM    1  C8  UNL     1     365.437 238.706 188.950  1.00  0.00     0.104 A
HETATM    2  N6  UNL     1     364.280 239.364 188.598  1.00  0.00    -0.345 N
ATOM      3  H6  UNL     1     363.607 239.038 187.904  1.00  0.00     0.167 HD
HETATM    4  C9  UNL     1     364.172 240.486 189.298  1.00  0.00     0.055 A
HETATM    5  C15 UNL     1     365.250 240.589 190.120  1.00  0.00     0.149 A
HETATM    6  C16 UNL     1     365.669 241.505 191.056  1.00  0.00     0.280 A
HETATM    7  O1  UNL     1     364.944 242.512 191.244  1.00  0.00    -0.265 OA
HETATM    8  N10 UNL     1     366.808 241.337 191.746  1.00  0.00    -0.272 N
ATOM      9  H10 UNL     1     367.120 242.017 192.440  1.00  0.00     0.174 HD
HETATM   10  C17 UNL     1     367.514 240.229 191.476  1.00  0.00     0.342 A
HETATM   11  O2  UNL     1     368.607 240.008 192.097  1.00  0.00    -0.245 OA
HETATM   12  N11 UNL     1     367.110 239.330 190.561  1.00  0.00    -0.243 N
ATOM     13  H11 UNL     1     367.685 238.504 190.394  1.00  0.00     0.192 HD
HETATM   14  N12 UNL     1     366.007 239.479 189.881  1.00  0.00    -0.233 N
ENDROOT
BRANCH   1  15
HETATM   15  C7  UNL     1     365.849 237.395 188.361  1.00  0.00     0.078 C
BRANCH  15  16
HETATM   16  C6  UNL     1     364.755 236.427 188.176  1.00  0.00     0.008 C
BRANCH  16  17
HETATM   17  C5  UNL     1     364.939 235.213 187.389  1.00  0.00     0.008 C
BRANCH  17  18
HETATM   18  C4  UNL     1     365.160 235.281 185.938  1.00  0.00     0.078 C
BRANCH  18  19
HETATM   19  C3  UNL     1     365.886 234.098 185.370  1.00  0.00     0.113 A
HETATM   20  N5  UNL     1     366.871 233.350 185.864  1.00  0.00    -0.252 N
HETATM   21  N4  UNL     1     367.216 232.395 185.017  1.00  0.00     0.092 N
ATOM     22  H5  UNL     1     367.304 233.494 186.777  1.00  0.00     0.190 HD
HETATM   23  C2  UNL     1     368.118 231.398 185.008  1.00  0.00     0.727 A
HETATM   24  C18 UNL     1     366.418 232.531 183.923  1.00  0.00     0.734 A
HETATM   25  N2  UNL     1     368.259 230.545 183.979  1.00  0.00    -0.020 N
HETATM   26  C1  UNL     1     367.468 230.683 182.899  1.00  0.00     0.705 A
ATOM     27  H2  UNL     1     368.957 229.802 184.016  1.00  0.00     0.203 HD
HETATM   28  N14 UNL     1     366.565 231.669 182.890  1.00  0.00    -0.020 N
ATOM     29  H14 UNL     1     365.962 231.776 182.073  1.00  0.00     0.203 HD
HETATM   30  N13 UNL     1     365.607 233.580 184.155  1.00  0.00    -0.176 N
ATOM     31  H13 UNL     1     364.894 233.928 183.514  1.00  0.00     0.185 HD
BRANCH  23  32
HETATM   32  N3  UNL     1     368.887 231.245 186.028  1.00  0.00    -0.232 N
ATOM     33  H32 UNL     1     368.636 230.556 186.737  1.00  0.00     0.174 HD
ATOM     34  H31 UNL     1     369.724 231.825 186.087  1.00  0.00     0.174 HD
ENDBRANCH  23  32
BRANCH  26  35
HETATM   35  N1  UNL     1     367.598 229.860 181.898  1.00  0.00    -0.234 N
ATOM     36  H12 UNL     1     367.958 228.914 182.022  1.00  0.00     0.174 HD
ATOM     37  H11 UNL     1     367.336 230.164 180.960  1.00  0.00     0.174 HD
ENDBRANCH  26  35
ENDBRANCH  18  19
ENDBRANCH  17  18
ENDBRANCH  16  17
ENDBRANCH  15  16
ENDBRANCH   1  15
BRANCH   4  38
HETATM   38  C10 UNL     1     363.082 241.494 189.235  1.00  0.00     0.140 C
BRANCH  38  39
HETATM   39  S1  UNL     1     363.180 242.433 187.674  1.00  0.00    -0.105 SA
BRANCH  39  40
HETATM   40  C11 UNL     1     364.709 243.314 187.568  1.00  0.00     0.085 A
HETATM   41  C12 UNL     1     365.380 243.294 186.355  1.00  0.00     0.041 A
HETATM   42  C13 UNL     1     366.577 243.971 186.238  1.00  0.00     0.049 A
HETATM   43  C14 UNL     1     367.064 244.643 187.330  1.00  0.00     0.130 A
HETATM   44  N7  UNL     1     368.311 245.354 187.225  1.00  0.00    -0.081 NA
HETATM   45  N8  UNL     1     366.389 244.634 188.467  1.00  0.00    -0.287 N
HETATM   46  N9  UNL     1     365.259 243.992 188.576  1.00  0.00    -0.293 N
ATOM     47  H8  UNL     1     366.759 245.137 189.273  1.00  0.00     0.188 HD
ATOM     48  H9  UNL     1     364.774 244.011 189.472  1.00  0.00     0.187 HD
ENDBRANCH  39  40
ENDBRANCH  38  39
ENDBRANCH   4  38
TORSDOF 10
ENDMDL