MODEL 5
REMARK VINA RESULT: -8.931356526      2.241      3.058
REMARK  13 active torsions:
REMARK  status: ('A' for Active; 'I' for Inactive)
REMARK    1  A    between atoms: C2_2  and  C11_32
REMARK    2  A    between atoms: N1_3  and  O1_5
REMARK    3  A    between atoms: O1_5  and  C3_6
REMARK    4  A    between atoms: C3_6  and  C5_8
REMARK    5  A    between atoms: C5_8  and  O4_20
REMARK    6  A    between atoms: N2_9  and  O2_11
REMARK    7  A    between atoms: O2_11  and  C6_12
REMARK    8  A    between atoms: C6_12  and  C7_14
REMARK    9  A    between atoms: C7_14  and  N3_16
REMARK   10  A    between atoms: O4_20  and  N4_21
REMARK       I    between atoms: N4_21  and  C10_23
REMARK       I    between atoms: C10_23  and  N5_24
REMARK       I    between atoms: C10_23  and  N6_28
REMARK   11  A    between atoms: C13_36  and  C14_37
REMARK   12  A    between atoms: C19_46  and  O7_47
REMARK   13  A    between atoms: C20_49  and  O8_50
ROOT
HETATM    1  C3  UNL     1     365.229 238.782 187.768  1.00  0.00     0.226 C
HETATM    2  C4  UNL     1     363.884 239.496 187.575  1.00  0.00     0.051 C
ENDROOT
BRANCH   1   3
HETATM    3  O1  UNL     1     365.769 239.083 189.018  1.00  0.00    -0.267 OA
BRANCH   3   4
HETATM    4  N1  UNL     1     365.011 239.328 190.121  1.00  0.00    -0.268 N
HETATM    5  C2  UNL     1     365.129 240.237 190.986  1.00  0.00     0.058 C
HETATM    6  C1  UNL     1     366.189 241.263 190.942  1.00  0.00     0.072 C
ATOM      7  H1  UNL     1     364.234 238.684 190.270  1.00  0.00     0.194 HD
BRANCH   5   8
HETATM    8  C11 UNL     1     364.160 240.281 192.101  1.00  0.00     0.093 A
HETATM    9  N7  UNL     1     364.406 239.656 193.263  1.00  0.00    -0.351 N
HETATM   10  C12 UNL     1     363.508 239.704 194.281  1.00  0.00     0.066 A
ATOM     11  H7  UNL     1     365.277 239.140 193.383  1.00  0.00     0.166 HD
HETATM   12  C13 UNL     1     363.772 239.053 195.481  1.00  0.00     0.052 A
HETATM   13  C18 UNL     1     362.315 240.380 194.192  1.00  0.00     0.096 A
HETATM   14  C15 UNL     1     362.869 239.097 196.513  1.00  0.00     0.024 A
HETATM   15  C16 UNL     1     363.150 238.400 197.797  1.00  0.00     0.069 C
HETATM   16  N8  UNL     1     361.699 239.778 196.383  1.00  0.00    -0.326 N
HETATM   17  C17 UNL     1     361.416 240.424 195.220  1.00  0.00     0.261 A
ATOM     18  H8  UNL     1     361.036 239.804 197.157  1.00  0.00     0.169 HD
HETATM   19  O6  UNL     1     360.319 241.045 195.140  1.00  0.00    -0.267 OA
HETATM   20  C19 UNL     1     362.039 241.040 192.987  1.00  0.00     0.119 A
HETATM   21  C20 UNL     1     362.962 240.978 191.970  1.00  0.00     0.129 A
BRANCH  12  22
HETATM   22  C14 UNL     1     365.019 238.315 195.643  1.00  0.00     0.274 C
HETATM   23  O5  UNL     1     366.102 238.892 195.362  1.00  0.00    -0.301 OA
ENDBRANCH  12  22
BRANCH  20  24
HETATM   24  O7  UNL     1     360.842 241.705 192.931  1.00  0.00    -0.357 OA
ATOM     25  H7  UNL     1     360.110 241.273 193.355  1.00  0.00     0.218 HD
ENDBRANCH  20  24
BRANCH  21  26
HETATM   26  O8  UNL     1     362.726 241.614 190.772  1.00  0.00    -0.356 OA
ATOM     27  H8  UNL     1     362.642 242.560 190.787  1.00  0.00     0.218 HD
ENDBRANCH  21  26
ENDBRANCH   5   8
ENDBRANCH   3   4
ENDBRANCH   1   3
BRANCH   1  28
HETATM   28  C5  UNL     1     365.027 237.339 187.512  1.00  0.00     0.191 C
HETATM   29  N2  UNL     1     365.139 236.488 188.472  1.00  0.00    -0.235 N
ATOM     30  H2  UNL     1     365.369 236.854 189.395  1.00  0.00     0.197 HD
BRANCH  29  31
HETATM   31  O2  UNL     1     364.978 235.149 188.361  1.00  0.00    -0.196 OA
BRANCH  31  32
HETATM   32  C6  UNL     1     364.011 234.404 188.978  1.00  0.00     0.311 C
HETATM   33  O3  UNL     1     362.996 234.987 189.424  1.00  0.00    -0.261 OA
BRANCH  32  34
HETATM   34  C7  UNL     1     364.090 232.929 189.153  1.00  0.00     0.280 C
HETATM   35  C8  UNL     1     365.555 232.536 188.923  1.00  0.00     0.051 C
BRANCH  34  36
HETATM   36  N3  UNL     1     363.325 232.229 188.149  1.00  0.00    -0.066 N
ATOM     37  H33 UNL     1     362.338 232.183 188.399  1.00  0.00     0.275 HD
ATOM     38  H32 UNL     1     363.247 232.777 187.292  1.00  0.00     0.275 HD
ATOM     39  H31 UNL     1     363.705 231.301 187.962  1.00  0.00     0.275 HD
ENDBRANCH  34  36
ENDBRANCH  32  34
ENDBRANCH  31  32
ENDBRANCH  29  31
BRANCH  28  40
HETATM   40  O4  UNL     1     364.714 236.835 186.259  1.00  0.00    -0.240 OA
BRANCH  40  41
HETATM   41  N4  UNL     1     365.627 236.346 185.385  1.00  0.00    -0.139 NA
HETATM   42  C9  UNL     1     366.006 237.359 184.416  1.00  0.00     0.149 C
HETATM   43  C10 UNL     1     365.162 235.170 184.676  1.00  0.00     0.479 C
HETATM   44  N5  UNL     1     364.843 234.090 185.571  1.00  0.00    -0.035 N
HETATM   45  N6  UNL     1     366.279 234.719 183.842  1.00  0.00    -0.035 N
ATOM     46  H53 UNL     1     365.632 233.867 186.178  1.00  0.00     0.278 HD
ATOM     47  H52 UNL     1     364.172 234.383 186.280  1.00  0.00     0.278 HD
ATOM     48  H51 UNL     1     364.516 233.262 185.072  1.00  0.00     0.278 HD
ATOM     49  H63 UNL     1     366.642 235.446 183.225  1.00  0.00     0.278 HD
ATOM     50  H62 UNL     1     367.138 234.559 184.369  1.00  0.00     0.278 HD
ATOM     51  H61 UNL     1     365.952 233.891 183.343  1.00  0.00     0.278 HD
ENDBRANCH  40  41
ENDBRANCH  28  40
ENDBRANCH   1  28
TORSDOF 13
ENDMDL