MODEL 4
REMARK VINA RESULT: -9.563172403      3.034      4.282
REMARK  12 active torsions:
REMARK  status: ('A' for Active; 'I' for Inactive)
REMARK    1  A    between atoms: O1_2  and  C2_3
REMARK    2  A    between atoms: C2_3  and  C3_5
REMARK    3  A    between atoms: C4_6  and  O3_7
REMARK    4  A    between atoms: C8_15  and  C9_16
REMARK    5  A    between atoms: C9_16  and  S1_17
REMARK    6  A    between atoms: S1_17  and  C10_18
REMARK    7  A    between atoms: N5_25  and  C11_26
REMARK    8  A    between atoms: C11_26  and  C12_27
REMARK    9  A    between atoms: C12_27  and  O5_30
REMARK   10  A    between atoms: O5_30  and  C14_31
REMARK   11  A    between atoms: C16_33  and  N7_34
REMARK       I    between atoms: N7_34  and  C17_36
REMARK   12  A    between atoms: C18_43  and  N11_44
ROOT
HETATM    1  C12 UNL     1     365.204 237.870 187.680  1.00  0.00     0.256 C
HETATM    2  C13 UNL     1     364.774 236.785 188.505  1.00  0.00     0.093 C
HETATM    3  N6  UNL     1     364.395 235.908 189.185  1.00  0.00    -0.194 NA
ENDROOT
BRANCH   1   4
HETATM    4  C11 UNL     1     365.508 239.152 188.444  1.00  0.00     0.200 C
BRANCH   4   5
HETATM    5  N5  UNL     1     366.347 239.003 189.608  1.00  0.00    -0.251 N
HETATM    6  C10 UNL     1     365.850 239.592 190.786  1.00  0.00     0.178 A
HETATM    7  N2  UNL     1     366.816 239.208 191.713  1.00  0.00    -0.263 N
HETATM    8  N3  UNL     1     367.739 238.499 191.117  1.00  0.00    -0.226 N
ATOM      9  H2  UNL     1     366.805 239.444 192.705  1.00  0.00     0.190 HD
HETATM   10  N4  UNL     1     367.444 238.381 189.846  1.00  0.00    -0.224 N
ATOM     11  H3  UNL     1     368.561 238.099 191.571  1.00  0.00     0.210 HD
ATOM     12  H4  UNL     1     367.998 237.875 189.155  1.00  0.00     0.210 HD
BRANCH   6  13
HETATM   13  S1  UNL     1     364.571 240.590 191.022  1.00  0.00    -0.086 SA
BRANCH  13  14
HETATM   14  C9  UNL     1     363.752 241.776 191.809  1.00  0.00     0.128 C
BRANCH  14  15
HETATM   15  C8  UNL     1     362.610 241.195 192.643  1.00  0.00     0.039 A
HETATM   16  C3  UNL     1     362.953 240.818 193.957  1.00  0.00     0.087 A
HETATM   17  C4  UNL     1     361.897 240.325 194.707  1.00  0.00     0.104 A
HETATM   18  C5  UNL     1     360.613 240.228 194.143  1.00  0.00     0.042 A
HETATM   19  C6  UNL     1     359.513 239.745 195.013  1.00  0.00     0.071 C
HETATM   20  N1  UNL     1     360.317 240.577 192.910  1.00  0.00    -0.324 N
HETATM   21  C7  UNL     1     361.356 241.064 192.165  1.00  0.00     0.254 A
ATOM     22  H1  UNL     1     359.374 240.490 192.533  1.00  0.00     0.169 HD
HETATM   23  O4  UNL     1     361.051 241.366 190.986  1.00  0.00    -0.268 OA
BRANCH  16  24
HETATM   24  C2  UNL     1     364.301 240.916 194.417  1.00  0.00     0.296 C
HETATM   25  O2  UNL     1     364.859 241.867 195.004  1.00  0.00    -0.259 OA
BRANCH  24  26
HETATM   26  O1  UNL     1     365.226 239.839 194.228  1.00  0.00    -0.322 OA
HETATM   27  C1  UNL     1     365.199 238.745 195.105  1.00  0.00     0.213 C
ENDBRANCH  24  26
ENDBRANCH  16  24
BRANCH  17  28
HETATM   28  O3  UNL     1     362.062 239.930 196.003  1.00  0.00    -0.358 OA
ATOM     29  H3  UNL     1     361.836 240.499 196.730  1.00  0.00     0.217 HD
ENDBRANCH  17  28
ENDBRANCH  14  15
ENDBRANCH  13  14
ENDBRANCH   6  13
ENDBRANCH   4   5
ENDBRANCH   1   4
BRANCH   1  30
HETATM   30  O5  UNL     1     365.859 237.636 186.554  1.00  0.00    -0.313 OA
BRANCH  30  31
HETATM   31  C14 UNL     1     366.035 236.762 185.546  1.00  0.00     0.162 A
HETATM   32  C15 UNL     1     366.134 235.424 185.859  1.00  0.00     0.105 A
HETATM   33  C16 UNL     1     366.288 234.475 184.846  1.00  0.00     0.127 A
HETATM   34  N10 UNL     1     366.344 234.886 183.572  1.00  0.00    -0.177 N
HETATM   35  C18 UNL     1     366.246 236.212 183.316  1.00  0.00     0.679 A
ATOM     36  H10 UNL     1     366.459 234.216 182.812  1.00  0.00     0.185 HD
HETATM   37  N12 UNL     1     366.093 237.140 184.264  1.00  0.00    -0.171 N
ATOM     38  H12 UNL     1     366.021 238.127 184.013  1.00  0.00     0.186 HD
BRANCH  33  39
HETATM   39  N7  UNL     1     366.281 233.226 185.140  1.00  0.00    -0.316 N
HETATM   40  C17 UNL     1     367.118 232.590 186.024  1.00  0.00     0.187 C
HETATM   41  N8  UNL     1     368.343 232.364 186.018  1.00  0.00    -0.373 N
HETATM   42  N9  UNL     1     366.448 232.013 187.212  1.00  0.00    -0.064 NA
ATOM     43  H82 UNL     1     368.805 232.761 185.200  1.00  0.00     0.158 HD
ATOM     44  H81 UNL     1     368.966 231.892 186.674  1.00  0.00     0.158 HD
ATOM     45  H7  UNL     1     365.583 232.647 184.672  1.00  0.00     0.170 HD
ENDBRANCH  33  39
BRANCH  35  46
HETATM   46  N11 UNL     1     366.306 236.593 182.052  1.00  0.00    -0.234 N
ATOM     47 2H11 UNL     1     365.439 236.686 181.522  1.00  0.00     0.174 HD
ATOM     48 1H11 UNL     1     367.230 236.778 181.662  1.00  0.00     0.174 HD
ENDBRANCH  35  46
ENDBRANCH  30  31
ENDBRANCH   1  30
TORSDOF 12
ENDMDL