MODEL 2
REMARK VINA RESULT: -8.225932706      3.249      6.544
REMARK  12 active torsions:
REMARK  status: ('A' for Active; 'I' for Inactive)
REMARK    1  A    between atoms: C2_3  and  C6_16
REMARK    2  A    between atoms: N2_4  and  N3_6
REMARK       I    between atoms: N3_6  and  C3_8
REMARK    3  A    between atoms: C3_8  and  C4_10
REMARK    4  A    between atoms: C4_10  and  C5_11
REMARK    5  A    between atoms: C5_11  and  N4_12
REMARK    6  A    between atoms: C7_17  and  N5_18
REMARK    7  A    between atoms: N5_18  and  C8_20
REMARK    8  A    between atoms: C8_20  and  C9_21
REMARK    9  A    between atoms: C9_21  and  N6_22
REMARK   10  A    between atoms: N9_37  and  N10_38
REMARK   11  A    between atoms: C19_43  and  N12_44
REMARK   12  A    between atoms: C20_49  and  N14_50
ROOT
HETATM    1  N1  UNL     1     368.527 247.610 188.904  1.00  0.00    -0.190 NA
HETATM    2  C1  UNL     1     368.061 246.542 188.737  1.00  0.00     0.120 C
HETATM    3  C2  UNL     1     367.555 245.241 188.565  1.00  0.00     0.146 C
HETATM    4  N2  UNL     1     368.223 244.336 189.298  1.00  0.00    -0.287 N
ATOM      5  H2  UNL     1     367.942 243.357 189.253  1.00  0.00     0.188 HD
ENDROOT
BRANCH   3   6
HETATM    6  C6  UNL     1     366.519 244.720 187.743  1.00  0.00     0.091 A
HETATM    7  C7  UNL     1     365.180 244.731 188.009  1.00  0.00     0.134 A
HETATM    8  N11 UNL     1     364.238 244.269 187.125  1.00  0.00    -0.176 N
HETATM    9  C19 UNL     1     364.667 243.788 185.957  1.00  0.00     0.679 A
ATOM     10  H11 UNL     1     363.244 244.293 187.353  1.00  0.00     0.186 HD
HETATM   11  N13 UNL     1     365.961 243.748 185.639  1.00  0.00    -0.176 N
HETATM   12  C20 UNL     1     366.875 244.192 186.484  1.00  0.00     0.131 A
ATOM     13  H13 UNL     1     366.247 243.373 184.735  1.00  0.00     0.186 HD
BRANCH   7  14
HETATM   14  N5  UNL     1     364.657 245.152 189.255  1.00  0.00    -0.373 N
ATOM     15  H5  UNL     1     364.628 246.144 189.487  1.00  0.00     0.161 HD
BRANCH  14  16
HETATM   16  C8  UNL     1     364.153 244.152 190.217  1.00  0.00     0.143 C
BRANCH  16  17
HETATM   17  C9  UNL     1     365.207 243.913 191.279  1.00  0.00     0.172 C
BRANCH  17  18
HETATM   18  N6  UNL     1     365.245 242.557 191.717  1.00  0.00    -0.250 N
HETATM   19  C10 UNL     1     365.229 241.455 190.942  1.00  0.00     0.141 A
HETATM   20  N7  UNL     1     365.178 241.219 189.621  1.00  0.00    -0.334 N
HETATM   21  C17 UNL     1     365.278 240.334 191.744  1.00  0.00     0.082 A
HETATM   22  C11 UNL     1     365.175 239.946 189.105  1.00  0.00     0.087 A
ATOM     23  H7  UNL     1     365.141 242.010 188.979  1.00  0.00     0.168 HD
HETATM   24  S1  UNL     1     365.119 239.311 187.515  1.00  0.00    -0.060 SA
HETATM   25  C15 UNL     1     365.224 238.821 189.877  1.00  0.00     0.001 A
HETATM   26  C12 UNL     1     365.158 237.648 187.881  1.00  0.00     0.088 A
HETATM   27  C13 UNL     1     365.138 236.495 186.984  1.00  0.00     0.107 C
HETATM   28  C14 UNL     1     365.215 237.635 189.249  1.00  0.00     0.044 A
HETATM   29  N8  UNL     1     365.121 235.596 186.257  1.00  0.00    -0.191 NA
HETATM   30  C16 UNL     1     365.278 239.050 191.264  1.00  0.00     0.035 A
HETATM   31  C18 UNL     1     365.326 240.817 193.036  1.00  0.00     0.295 A
HETATM   32  O2  UNL     1     365.378 240.109 194.073  1.00  0.00    -0.264 OA
HETATM   33  N9  UNL     1     365.304 242.163 192.997  1.00  0.00    -0.159 N
BRANCH  33  34
HETATM   34  N10 UNL     1     365.339 242.958 194.144  1.00  0.00    -0.321 N
ATOM     35 2H10 UNL     1     365.441 243.973 194.115  1.00  0.00     0.179 HD
ATOM     36 1H10 UNL     1     365.272 242.663 195.118  1.00  0.00     0.179 HD
ENDBRANCH  33  34
ENDBRANCH  17  18
ENDBRANCH  16  17
ENDBRANCH  14  16
ENDBRANCH   7  14
BRANCH   9  37
HETATM   37  N12 UNL     1     363.827 243.339 185.082  1.00  0.00    -0.234 N
ATOM     38 2H12 UNL     1     363.801 243.808 184.176  1.00  0.00     0.174 HD
ATOM     39 1H12 UNL     1     363.221 242.548 185.302  1.00  0.00     0.174 HD
ENDBRANCH   9  37
BRANCH  12  40
HETATM   40  N14 UNL     1     368.128 244.139 186.146  1.00  0.00    -0.384 N
ATOM     41 2H14 UNL     1     368.828 243.946 186.861  1.00  0.00     0.157 HD
ATOM     42 1H14 UNL     1     368.390 244.293 185.172  1.00  0.00     0.157 HD
ENDBRANCH  12  40
ENDBRANCH   3   6
BRANCH   4  43
HETATM   43  N3  UNL     1     369.282 244.695 190.113  1.00  0.00    -0.269 N
HETATM   44  C3  UNL     1     369.476 244.158 191.410  1.00  0.00     0.237 C
HETATM   45  O1  UNL     1     368.674 243.303 191.903  1.00  0.00    -0.272 OA
ATOM     46  H3  UNL     1     369.953 245.379 189.765  1.00  0.00     0.190 HD
BRANCH  44  47
HETATM   47  C4  UNL     1     370.647 244.613 192.203  1.00  0.00     0.132 C
BRANCH  47  48
HETATM   48  C5  UNL     1     371.371 245.718 191.442  1.00  0.00     0.239 C
BRANCH  48  49
HETATM   49  N4  UNL     1     372.336 246.358 192.316  1.00  0.00    -0.079 N
ATOM     50  H43 UNL     1     373.169 245.786 192.454  1.00  0.00     0.274 HD
ATOM     51  H42 UNL     1     372.781 247.162 191.874  1.00  0.00     0.274 HD
ATOM     52  H41 UNL     1     371.888 246.603 193.199  1.00  0.00     0.274 HD
ENDBRANCH  48  49
ENDBRANCH  47  48
ENDBRANCH  44  47
ENDBRANCH   4  43
TORSDOF 12
ENDMDL