MODEL 1
REMARK VINA RESULT: -7.979323785      0.000      0.000
REMARK  10 active torsions:
REMARK  status: ('A' for Active; 'I' for Inactive)
REMARK    1  A    between atoms: O1_2  and  C2_3
REMARK    2  A    between atoms: C3_4  and  O2_5
REMARK    3  A    between atoms: O2_5  and  C4_6
REMARK    4  A    between atoms: C4_6  and  C5_8
REMARK    5  A    between atoms: C5_8  and  O4_9
REMARK    6  A    between atoms: N1_11  and  C6_12
REMARK    7  A    between atoms: C6_12  and  O5_13
REMARK    8  A    between atoms: C8_16  and  C9_17
REMARK    9  A    between atoms: C13_23  and  N3_24
REMARK   10  A    between atoms: C17_38  and  N8_39
REMARK       I    between atoms: N8_39  and  C18_41
REMARK       I    between atoms: C18_41  and  N9_42
REMARK       I    between atoms: C18_41  and  N10_46
ROOT
HETATM    1  N8  UNL     1     363.451 243.464 191.494  1.00  0.00    -0.329 N
ATOM      2  H8  UNL     1     364.113 244.187 191.210  1.00  0.00     0.165 HD
HETATM    3  C18 UNL     1     362.353 244.110 191.997  1.00  0.00     0.396 C
HETATM    4  N9  UNL     1     362.268 244.206 193.446  1.00  0.00    -0.040 N
ATOM      5  H91 UNL     1     361.450 244.687 193.820  1.00  0.00     0.279 HD
ATOM      6  H92 UNL     1     363.118 244.635 193.812  1.00  0.00     0.279 HD
ATOM      7  H93 UNL     1     362.338 243.275 193.857  1.00  0.00     0.279 HD
HETATM    8  N10 UNL     1     362.343 245.525 191.544  1.00  0.00    -0.284 N
ATOM      9  H10 UNL     1     363.084 245.887 190.945  1.00  0.00     0.175 HD
HETATM   10  C19 UNL     1     361.298 246.344 191.956  1.00  0.00     0.180 C
HETATM   11  N11 UNL     1     360.417 247.045 192.300  1.00  0.00    -0.172 NA
ENDROOT
BRANCH   1  12
HETATM   12  C17 UNL     1     363.976 242.384 191.240  1.00  0.00     0.166 A
HETATM   13  C2  UNL     1     364.712 241.785 192.262  1.00  0.00     0.166 A
HETATM   14  C3  UNL     1     365.342 240.597 192.111  1.00  0.00     0.194 A
HETATM   15  N1  UNL     1     365.280 239.934 190.945  1.00  0.00    -0.286 N
HETATM   16  C7  UNL     1     364.570 240.485 189.914  1.00  0.00     0.153 A
HETATM   17  C8  UNL     1     364.277 240.059 188.638  1.00  0.00     0.099 A
HETATM   18  N7  UNL     1     363.939 241.684 190.080  1.00  0.00    -0.218 N
HETATM   19  C16 UNL     1     363.456 241.057 188.074  1.00  0.00     0.132 A
HETATM   20  N5  UNL     1     363.017 241.066 186.888  1.00  0.00    -0.384 N
HETATM   21  N6  UNL     1     363.286 242.008 188.988  1.00  0.00    -0.275 N
ATOM     22  H52 UNL     1     363.146 240.337 186.188  1.00  0.00     0.157 HD
ATOM     23  H51 UNL     1     362.423 241.788 186.481  1.00  0.00     0.157 HD
ATOM     24  H6  UNL     1     362.736 242.857 188.860  1.00  0.00     0.189 HD
BRANCH  13  25
HETATM   25  O1  UNL     1     364.796 242.441 193.476  1.00  0.00    -0.349 OA
HETATM   26  C1  UNL     1     365.951 243.273 193.663  1.00  0.00     0.210 C
ENDBRANCH  13  25
BRANCH  14  27
HETATM   27  O2  UNL     1     366.065 240.035 193.160  1.00  0.00    -0.256 OA
BRANCH  27  28
HETATM   28  C4  UNL     1     365.449 239.327 194.198  1.00  0.00     0.289 C
HETATM   29  O3  UNL     1     366.214 238.769 195.023  1.00  0.00    -0.262 OA
BRANCH  28  30
HETATM   30  C5  UNL     1     363.993 239.201 194.373  1.00  0.00     0.275 C
BRANCH  30  31
HETATM   31  O4  UNL     1     363.441 240.219 195.118  1.00  0.00    -0.391 OA
ATOM     32  H4  UNL     1     362.491 240.217 195.116  1.00  0.00     0.210 HD
ENDBRANCH  30  31
ENDBRANCH  28  30
ENDBRANCH  27  28
ENDBRANCH  14  27
BRANCH  15  33
HETATM   33  C6  UNL     1     365.898 238.642 190.829  1.00  0.00     0.299 C
BRANCH  33  34
HETATM   34  O5  UNL     1     367.303 238.700 190.794  1.00  0.00    -0.382 OA
ATOM     35  H5  UNL     1     367.648 238.887 189.929  1.00  0.00     0.211 HD
ENDBRANCH  33  34
ENDBRANCH  15  33
BRANCH  17  36
HETATM   36  C9  UNL     1     364.746 238.905 187.894  1.00  0.00     0.124 A
HETATM   37  N2  UNL     1     365.403 238.715 186.771  1.00  0.00    -0.340 N
HETATM   38  C10 UNL     1     365.484 237.446 186.393  1.00  0.00     0.060 A
ATOM     39  H2  UNL     1     365.815 239.479 186.235  1.00  0.00     0.167 HD
HETATM   40  C11 UNL     1     366.061 236.796 185.312  1.00  0.00     0.034 A
HETATM   41  C15 UNL     1     364.816 236.737 187.360  1.00  0.00     0.063 A
HETATM   42  C12 UNL     1     365.981 235.432 185.180  1.00  0.00     0.038 A
HETATM   43  C13 UNL     1     365.305 234.722 186.160  1.00  0.00     0.105 A
HETATM   44  C14 UNL     1     364.728 235.373 187.240  1.00  0.00     0.068 A
HETATM   45  N4  UNL     1     364.378 237.626 188.256  1.00  0.00    -0.340 N
ATOM     46  H4  UNL     1     363.844 237.391 189.093  1.00  0.00     0.167 HD
BRANCH  43  47
HETATM   47  N3  UNL     1     365.216 233.317 186.035  1.00  0.00    -0.116 N
HETATM   48  O6  UNL     1     364.417 232.766 185.264  1.00  0.00    -0.532 OA
HETATM   49  O7  UNL     1     366.042 232.530 186.790  1.00  0.00    -0.532 OA
ENDBRANCH  43  47
ENDBRANCH  17  36
ENDBRANCH   1  12
TORSDOF 10
ENDMDL