MODEL 2
REMARK VINA RESULT: -9.850973001      1.913      2.674
REMARK  10 active torsions:
REMARK  status: ('A' for Active; 'I' for Inactive)
REMARK    1  A    between atoms: C5_8  and  C6_9
REMARK    2  A    between atoms: C6_9  and  N3_10
REMARK    3  A    between atoms: N3_10  and  N4_11
REMARK       I    between atoms: N4_11  and  C7_13
REMARK    4  A    between atoms: C7_13  and  C8_15
REMARK    5  A    between atoms: C8_15  and  N5_16
REMARK    6  A    between atoms: N5_16  and  N6_18
REMARK    7  A    between atoms: N6_18  and  C9_20
REMARK    8  A    between atoms: C13_26  and  N8_27
REMARK    9  A    between atoms: N13_41  and  N14_42
REMARK   10  A    between atoms: C17_45  and  C18_46
ROOT
HETATM    1  C1  UNL     1     367.949 231.984 185.430  1.00  0.00     0.069 C
HETATM    2  C2  UNL     1     366.854 232.423 186.344  1.00  0.00     0.024 A
HETATM    3  N1  UNL     1     366.617 232.004 187.586  1.00  0.00    -0.350 N
ATOM      4  H1  UNL     1     367.137 231.262 188.055  1.00  0.00     0.166 HD
HETATM    5  C3  UNL     1     365.604 232.686 188.139  1.00  0.00     0.128 A
HETATM    6  C4  UNL     1     365.077 232.449 189.487  1.00  0.00     0.118 C
HETATM    7  N2  UNL     1     364.676 232.230 190.565  1.00  0.00    -0.190 NA
HETATM    8  C5  UNL     1     365.139 233.593 187.247  1.00  0.00     0.051 A
HETATM    9  C17 UNL     1     365.931 233.435 186.081  1.00  0.00     0.078 A
ENDROOT
BRANCH   8  10
HETATM   10  C6  UNL     1     364.371 234.826 187.510  1.00  0.00     0.224 C
BRANCH  10  11
HETATM   11  N3  UNL     1     364.844 235.737 188.082  1.00  0.00    -0.335 NA
BRANCH  11  12
HETATM   12  N4  UNL     1     365.334 236.833 188.615  1.00  0.00    -0.198 N
HETATM   13  C7  UNL     1     364.457 238.020 188.294  1.00  0.00     0.302 C
HETATM   14  O1  UNL     1     363.415 237.738 187.595  1.00  0.00    -0.263 OA
ATOM     15  H4  UNL     1     366.189 236.877 189.168  1.00  0.00     0.205 HD
BRANCH  13  16
HETATM   16  C8  UNL     1     364.701 239.364 188.718  1.00  0.00     0.168 C
HETATM   17  C16 UNL     1     364.082 240.424 187.975  1.00  0.00     0.196 A
HETATM   18  N10 UNL     1     364.504 241.030 186.864  1.00  0.00    -0.265 N
HETATM   19  N13 UNL     1     362.901 241.046 188.330  1.00  0.00    -0.167 N
HETATM   20  N11 UNL     1     363.649 241.977 186.531  1.00  0.00    -0.225 N
ATOM     21  H10 UNL     1     365.354 240.797 186.351  1.00  0.00     0.190 HD
HETATM   22  N12 UNL     1     362.698 241.976 187.422  1.00  0.00    -0.205 N
ATOM     23  H11 UNL     1     363.719 242.598 185.724  1.00  0.00     0.210 HD
ATOM     24  H12 UNL     1     361.902 242.612 187.417  1.00  0.00     0.212 HD
BRANCH  16  25
HETATM   25  N5  UNL     1     366.050 239.467 189.227  1.00  0.00    -0.278 N
ATOM     26  H5  UNL     1     366.803 238.887 188.855  1.00  0.00     0.188 HD
BRANCH  25  27
HETATM   27  N6  UNL     1     366.285 240.386 190.245  1.00  0.00    -0.131 N
ATOM     28  H6  UNL     1     366.919 241.171 190.101  1.00  0.00     0.205 HD
BRANCH  27  29
HETATM   29  C9  UNL     1     365.676 240.225 191.389  1.00  0.00     0.698 A
HETATM   30  N7  UNL     1     364.631 240.972 191.748  1.00  0.00    -0.188 N
HETATM   31  C10 UNL     1     364.183 240.492 192.931  1.00  0.00     0.076 A
ATOM     32  H7  UNL     1     364.242 241.758 191.228  1.00  0.00     0.184 HD
HETATM   33  C11 UNL     1     363.138 240.842 193.747  1.00  0.00     0.035 A
HETATM   34  C15 UNL     1     365.001 239.417 193.285  1.00  0.00     0.079 A
HETATM   35  C12 UNL     1     362.891 240.154 194.909  1.00  0.00     0.038 A
HETATM   36  C13 UNL     1     363.704 239.102 195.254  1.00  0.00     0.105 A
HETATM   37  C14 UNL     1     364.766 238.721 194.451  1.00  0.00     0.068 A
HETATM   38  N9  UNL     1     365.906 239.290 192.304  1.00  0.00    -0.188 N
ATOM     39  H9  UNL     1     366.649 238.592 192.267  1.00  0.00     0.184 HD
BRANCH  36  40
HETATM   40  N8  UNL     1     363.454 238.338 196.419  1.00  0.00    -0.116 N
HETATM   41  O2  UNL     1     364.330 238.197 197.274  1.00  0.00    -0.532 OA
HETATM   42  O3  UNL     1     362.233 237.723 196.620  1.00  0.00    -0.532 OA
ENDBRANCH  36  40
ENDBRANCH  27  29
ENDBRANCH  25  27
ENDBRANCH  16  25
BRANCH  19  43
HETATM   43  N14 UNL     1     362.079 240.753 189.442  1.00  0.00    -0.321 N
ATOM     44 2H14 UNL     1     361.068 240.616 189.437  1.00  0.00     0.179 HD
ATOM     45 1H14 UNL     1     362.370 240.640 190.413  1.00  0.00     0.179 HD
ENDBRANCH  19  43
ENDBRANCH  13  16
ENDBRANCH  11  12
ENDBRANCH  10  11
ENDBRANCH   8  10
BRANCH   9  46
HETATM   46  C18 UNL     1     365.894 234.267 184.908  1.00  0.00     0.212 C
HETATM   47  O4  UNL     1     366.421 235.383 184.744  1.00  0.00    -0.644 OA
HETATM   48  O5  UNL     1     365.195 233.796 183.776  1.00  0.00    -0.644 OA
ENDBRANCH   9  46
TORSDOF 10
ENDMDL