MODEL 4
REMARK VINA RESULT: -8.275024164      2.377      3.074
REMARK  13 active torsions:
REMARK  status: ('A' for Active; 'I' for Inactive)
REMARK    1  A    between atoms: C3_4  and  N2_5
REMARK    2  A    between atoms: N2_5  and  C4_6
REMARK    3  A    between atoms: N2_5  and  C5_9
REMARK    4  A    between atoms: C4_6  and  S1_7
REMARK    5  A    between atoms: C5_9  and  O1_10
REMARK    6  A    between atoms: C5_9  and  C6_12
REMARK    7  A    between atoms: C6_12  and  C7_14
REMARK    8  A    between atoms: C7_14  and  N3_15
REMARK    9  A    between atoms: C7_14  and  C8_19
REMARK   10  A    between atoms: C8_19  and  C9_20
REMARK   11  A    between atoms: C12_23  and  O3_24
REMARK   12  A    between atoms: N7_37  and  O4_39
REMARK   13  A    between atoms: N8_43  and  N9_45
ROOT
HETATM    1  C1  UNL     1     368.329 242.869 191.714  1.00  0.00     0.157 C
HETATM    2  N1  UNL     1     367.413 242.734 190.583  1.00  0.00    -0.344 N
HETATM    3  C2  UNL     1     366.549 241.694 190.554  1.00  0.00     0.124 A
HETATM    4  C3  UNL     1     365.635 241.486 189.522  1.00  0.00     0.081 A
HETATM    5  C15 UNL     1     365.654 242.394 188.527  1.00  0.00     0.081 A
HETATM    6  N4  UNL     1     364.831 242.334 187.463  1.00  0.00    -0.331 N
ATOM      7  H4  UNL     1     364.172 241.557 187.427  1.00  0.00     0.168 HD
HETATM    8  C16 UNL     1     364.803 243.203 186.456  1.00  0.00     0.190 A
HETATM    9  C17 UNL     1     363.908 243.128 185.319  1.00  0.00     0.137 C
HETATM   10  N5  UNL     1     363.195 243.093 184.411  1.00  0.00    -0.188 NA
HETATM   11  N6  UNL     1     365.679 244.243 186.499  1.00  0.00    -0.318 N
ATOM     12  H6  UNL     1     365.686 244.929 185.744  1.00  0.00     0.169 HD
HETATM   13  C18 UNL     1     366.533 244.373 187.527  1.00  0.00     0.143 A
HETATM   14  N7  UNL     1     367.353 245.373 187.540  1.00  0.00    -0.252 N
ATOM     15  H7  UNL     1     368.007 245.483 188.316  1.00  0.00     0.196 HD
HETATM   16  C19 UNL     1     366.544 243.474 188.546  1.00  0.00     0.084 A
HETATM   17  C20 UNL     1     367.444 243.636 189.612  1.00  0.00     0.138 A
HETATM   18  N8  UNL     1     368.198 244.649 189.518  1.00  0.00    -0.291 N
ATOM     19  H8  UNL     1     368.053 245.216 188.682  1.00  0.00     0.188 HD
ENDROOT
BRANCH   4  20
HETATM   20  N2  UNL     1     364.775 240.382 189.589  1.00  0.00    -0.311 N
BRANCH  20  21
HETATM   21  C4  UNL     1     363.948 240.341 190.814  1.00  0.00     0.218 C
BRANCH  21  22
HETATM   22  S1  UNL     1     362.869 241.680 191.119  1.00  0.00    -0.065 SA
HETATM   23  S2  UNL     1     361.678 242.224 189.466  1.00  0.00    -0.011 SA
ENDBRANCH  21  22
ENDBRANCH  20  21
BRANCH  20  24
HETATM   24  C5  UNL     1     364.653 239.301 188.728  1.00  0.00     0.193 C
BRANCH  24  25
HETATM   25  O1  UNL     1     363.578 239.311 187.991  1.00  0.00    -0.343 OA
ATOM     26  H1  UNL     1     362.771 239.464 188.469  1.00  0.00     0.219 HD
ENDBRANCH  24  25
BRANCH  24  27
HETATM   27  C6  UNL     1     365.480 238.158 188.487  1.00  0.00     0.230 C
HETATM   28  O2  UNL     1     366.269 237.783 189.418  1.00  0.00    -0.286 OA
BRANCH  27  29
HETATM   29  C7  UNL     1     365.509 237.362 187.267  1.00  0.00     0.265 C
BRANCH  29  30
HETATM   30  N3  UNL     1     365.513 238.188 186.077  1.00  0.00    -0.068 N
ATOM     31  H33 UNL     1     366.464 238.420 185.791  1.00  0.00     0.275 HD
ATOM     32  H32 UNL     1     365.223 237.655 185.257  1.00  0.00     0.275 HD
ATOM     33  H31 UNL     1     364.946 239.028 186.191  1.00  0.00     0.275 HD
ENDBRANCH  29  30
BRANCH  29  34
HETATM   34  C8  UNL     1     364.562 236.264 187.076  1.00  0.00     0.079 C
BRANCH  34  35
HETATM   35  C9  UNL     1     364.548 235.122 187.959  1.00  0.00    -0.056 A
HETATM   36  C10 UNL     1     363.900 235.095 189.159  1.00  0.00     0.010 A
HETATM   37  C11 UNL     1     363.916 234.005 190.010  1.00  0.00     0.037 A
HETATM   38  C12 UNL     1     364.616 232.887 189.640  1.00  0.00     0.065 A
HETATM   39  C13 UNL     1     365.296 232.849 188.431  1.00  0.00     0.037 A
HETATM   40  C14 UNL     1     365.247 233.975 187.611  1.00  0.00     0.010 A
BRANCH  38  41
HETATM   41  O3  UNL     1     364.643 231.789 190.478  1.00  0.00    -0.361 OA
ATOM     42  H3  UNL     1     365.411 231.623 191.012  1.00  0.00     0.217 HD
ENDBRANCH  38  41
ENDBRANCH  34  35
ENDBRANCH  29  34
ENDBRANCH  27  29
ENDBRANCH  24  27
ENDBRANCH  20  24
ENDBRANCH   4  20
BRANCH  14  43
HETATM   43  O4  UNL     1     367.351 246.283 186.523  1.00  0.00    -0.288 OA
ATOM     44  H4  UNL     1     368.169 246.613 186.171  1.00  0.00     0.244 HD
ENDBRANCH  14  43
BRANCH  18  45
HETATM   45  N9  UNL     1     369.170 245.101 190.356  1.00  0.00    -0.344 N
ATOM     46  H92 UNL     1     369.088 246.093 190.581  1.00  0.00     0.176 HD
ATOM     47  H91 UNL     1     369.953 244.606 190.784  1.00  0.00     0.176 HD
ENDBRANCH  18  45
TORSDOF 13
ENDMDL