MODEL 4
REMARK VINA RESULT: -9.388545089      3.526      4.968
REMARK  12 active torsions:
REMARK  status: ('A' for Active; 'I' for Inactive)
REMARK    1  A    between atoms: N1_1  and  C1_4
REMARK    2  A    between atoms: C2_7  and  N3_8
REMARK    3  A    between atoms: C3_13  and  C4_14
REMARK       I    between atoms: C4_14  and  N6_16
REMARK    4  A    between atoms: N6_16  and  N7_18
REMARK    5  A    between atoms: C5_20  and  C6_21
REMARK    6  A    between atoms: C8_23  and  N8_24
REMARK    7  A    between atoms: C11_35  and  N12_36
REMARK    8  A    between atoms: N12_36  and  C12_38
REMARK    9  A    between atoms: C12_38  and  C13_39
REMARK   10  A    between atoms: C12_38  and  C14_42
REMARK   11  A    between atoms: C13_39  and  O4_40
REMARK   12  A    between atoms: C17_45  and  O5_46
ROOT
HETATM    1  C1  UNL     1     366.421 236.357 182.950  1.00  0.00     0.705 A
HETATM    2  N2  UNL     1     366.179 237.241 183.935  1.00  0.00    -0.018 N
ATOM      3  H2  UNL     1     366.129 238.237 183.723  1.00  0.00     0.203 HD
HETATM    4  C2  UNL     1     366.004 236.818 185.198  1.00  0.00     0.749 A
HETATM    5  N11 UNL     1     366.082 235.487 185.419  1.00  0.00    -0.018 N
ATOM      6  H11 UNL     1     365.952 235.142 186.370  1.00  0.00     0.203 HD
HETATM    7  C11 UNL     1     366.322 234.601 184.444  1.00  0.00     0.708 A
HETATM    8  N13 UNL     1     366.499 235.036 183.163  1.00  0.00    -0.022 N
ATOM      9  H13 UNL     1     366.683 234.383 182.401  1.00  0.00     0.203 HD
ENDROOT
BRANCH   4  10
HETATM   10  N3  UNL     1     365.744 237.734 186.282  1.00  0.00    -0.003 N
HETATM   11  N4  UNL     1     365.391 239.001 186.162  1.00  0.00    -0.204 N
HETATM   12  N5  UNL     1     365.239 239.521 187.365  1.00  0.00    -0.263 N
ATOM     13  H4  UNL     1     365.258 239.497 185.281  1.00  0.00     0.211 HD
HETATM   14  C3  UNL     1     365.498 238.576 188.285  1.00  0.00     0.209 A
ATOM     15  H5  UNL     1     364.969 240.484 187.564  1.00  0.00     0.190 HD
HETATM   16  N10 UNL     1     365.807 237.480 187.575  1.00  0.00    -0.242 N
ATOM     17  H10 UNL     1     366.057 236.576 187.979  1.00  0.00     0.191 HD
BRANCH  14  18
HETATM   18  C4  UNL     1     365.444 238.741 189.733  1.00  0.00     0.306 C
HETATM   19  O1  UNL     1     366.334 238.213 190.442  1.00  0.00    -0.262 OA
HETATM   20  N6  UNL     1     364.370 239.502 190.301  1.00  0.00    -0.264 N
ATOM     21  H6  UNL     1     363.655 239.923 189.710  1.00  0.00     0.190 HD
BRANCH  20  22
HETATM   22  N7  UNL     1     364.334 239.648 191.674  1.00  0.00    -0.307 N
HETATM   23  C5  UNL     1     363.526 240.426 192.298  1.00  0.00     0.136 C
ATOM     24  H7  UNL     1     364.994 239.103 192.229  1.00  0.00     0.186 HD
BRANCH  23  25
HETATM   25  C6  UNL     1     363.530 240.544 193.747  1.00  0.00     0.051 A
HETATM   26  C7  UNL     1     363.266 239.450 194.559  1.00  0.00     0.067 A
HETATM   27  C8  UNL     1     363.258 239.515 195.930  1.00  0.00     0.106 A
HETATM   28  C9  UNL     1     363.523 240.715 196.541  1.00  0.00     0.053 A
HETATM   29  C10 UNL     1     363.784 241.801 195.724  1.00  0.00     0.091 A
HETATM   30  N9  UNL     1     363.783 241.702 194.382  1.00  0.00    -0.365 N
ATOM     31  H9  UNL     1     363.983 242.535 193.827  1.00  0.00     0.165 HD
BRANCH  27  32
HETATM   32  N8  UNL     1     362.987 238.389 196.754  1.00  0.00    -0.116 N
HETATM   33  O2  UNL     1     361.977 237.688 196.634  1.00  0.00    -0.532 OA
HETATM   34  O3  UNL     1     363.904 238.057 197.747  1.00  0.00    -0.532 OA
ENDBRANCH  27  32
ENDBRANCH  23  25
ENDBRANCH  20  22
ENDBRANCH  14  18
ENDBRANCH   4  10
BRANCH   1  35
HETATM   35  N1  UNL     1     366.592 236.754 181.725  1.00  0.00    -0.234 N
ATOM     36  H12 UNL     1     367.344 237.425 181.568  1.00  0.00     0.174 HD
ATOM     37  H11 UNL     1     365.998 236.403 180.973  1.00  0.00     0.174 HD
ENDBRANCH   1  35
BRANCH   7  38
HETATM   38  N12 UNL     1     366.399 233.339 184.632  1.00  0.00    -0.214 N
ATOM     39  H12 UNL     1     367.312 232.885 184.612  1.00  0.00     0.178 HD
BRANCH  38  40
HETATM   40  C12 UNL     1     365.196 232.529 184.877  1.00  0.00     0.156 C
BRANCH  40  41
HETATM   41  C13 UNL     1     364.073 233.194 184.175  1.00  0.00     0.194 C
BRANCH  41  42
HETATM   42  O4  UNL     1     363.698 232.623 182.971  1.00  0.00    -0.398 OA
ATOM     43  H4  UNL     1     363.730 233.198 182.215  1.00  0.00     0.209 HD
ENDBRANCH  41  42
ENDBRANCH  40  41
BRANCH  40  44
HETATM   44  C14 UNL     1     365.052 232.541 186.362  1.00  0.00    -0.033 A
HETATM   45  C15 UNL     1     363.885 232.731 187.042  1.00  0.00     0.012 A
HETATM   46  C16 UNL     1     363.804 232.724 188.428  1.00  0.00     0.037 A
HETATM   47  C17 UNL     1     364.947 232.518 189.167  1.00  0.00     0.065 A
HETATM   48  C18 UNL     1     366.148 232.322 188.517  1.00  0.00     0.037 A
HETATM   49  C19 UNL     1     366.200 232.333 187.143  1.00  0.00     0.012 A
BRANCH  47  50
HETATM   50  O5  UNL     1     364.926 232.501 190.562  1.00  0.00    -0.361 OA
ATOM     51  H5  UNL     1     365.271 231.767 191.058  1.00  0.00     0.217 HD
ENDBRANCH  47  50
ENDBRANCH  40  44
ENDBRANCH  38  40
ENDBRANCH   7  38
TORSDOF 12
ENDMDL