MODEL 1
REMARK VINA RESULT: -9.145224617      0.000      0.000
REMARK  12 active torsions:
REMARK  status: ('A' for Active; 'I' for Inactive)
REMARK    1  A    between atoms: C2_2  and  O1_4
REMARK    2  A    between atoms: C2_2  and  C4_6
REMARK    3  A    between atoms: C4_6  and  O3_8
REMARK    4  A    between atoms: O3_8  and  C5_9
REMARK    5  A    between atoms: C5_9  and  C6_11
REMARK    6  A    between atoms: C10_17  and  C11_18
REMARK    7  A    between atoms: C11_18  and  O5_19
REMARK    8  A    between atoms: O5_19  and  C12_20
REMARK       I    between atoms: C12_20  and  N2_22
REMARK    9  A    between atoms: N2_22  and  C13_24
REMARK   10  A    between atoms: C13_24  and  C14_25
REMARK   11  A    between atoms: N4_31  and  C18_33
REMARK   12  A    between atoms: C19_38  and  N9_39
ROOT
HETATM    1  C12 UNL     1     364.296 239.313 188.225  1.00  0.00     0.361 C
HETATM    2  O6  UNL     1     363.230 239.632 187.660  1.00  0.00    -0.238 OA
HETATM    3  N2  UNL     1     364.624 237.917 188.448  1.00  0.00    -0.333 N
ATOM      4  H2  UNL     1     365.489 237.650 188.918  1.00  0.00     0.165 HD
ENDROOT
BRANCH   1   5
HETATM    5  O5  UNL     1     365.166 240.295 188.641  1.00  0.00    -0.298 OA
BRANCH   5   6
HETATM    6  C11 UNL     1     364.902 241.315 189.570  1.00  0.00     0.238 C
BRANCH   6   7
HETATM    7  C10 UNL     1     366.155 241.722 190.228  1.00  0.00     0.050 A
HETATM    8  C6  UNL     1     366.776 240.853 191.086  1.00  0.00     0.064 A
HETATM    9  C7  UNL     1     367.978 241.250 191.689  1.00  0.00     0.021 A
HETATM   10  C8  UNL     1     368.532 242.461 191.443  1.00  0.00     0.018 A
HETATM   11  C9  UNL     1     367.878 243.314 190.571  1.00  0.00     0.088 A
HETATM   12  N1  UNL     1     366.734 242.929 190.001  1.00  0.00    -0.367 N
ATOM     13  H1  UNL     1     366.271 243.575 189.362  1.00  0.00     0.165 HD
BRANCH   8  14
HETATM   14  C5  UNL     1     366.289 239.526 191.433  1.00  0.00     0.302 C
HETATM   15  O4  UNL     1     366.741 238.526 190.842  1.00  0.00    -0.259 OA
BRANCH  14  16
HETATM   16  O3  UNL     1     365.330 239.301 192.401  1.00  0.00    -0.239 OA
BRANCH  16  17
HETATM   17  C4  UNL     1     365.588 239.188 193.741  1.00  0.00     0.300 C
HETATM   18  O2  UNL     1     366.663 238.651 194.105  1.00  0.00    -0.261 OA
BRANCH  17  19
HETATM   19  C2  UNL     1     364.657 239.670 194.792  1.00  0.00     0.138 C
HETATM   20  C1  UNL     1     364.453 238.540 195.785  1.00  0.00     0.056 C
HETATM   21  C3  UNL     1     363.331 239.947 194.092  1.00  0.00     0.056 C
BRANCH  19  22
HETATM   22  O1  UNL     1     365.103 240.836 195.390  1.00  0.00    -0.380 OA
ATOM     23  H1  UNL     1     364.439 241.515 195.414  1.00  0.00     0.211 HD
ENDBRANCH  19  22
ENDBRANCH  17  19
ENDBRANCH  16  17
ENDBRANCH  14  16
ENDBRANCH   8  14
ENDBRANCH   6   7
ENDBRANCH   5   6
ENDBRANCH   1   5
BRANCH   3  24
HETATM   24  C13 UNL     1     363.704 236.930 187.993  1.00  0.00     0.166 C
BRANCH  24  25
HETATM   25  C14 UNL     1     364.132 235.529 188.179  1.00  0.00    -0.002 A
HETATM   26  C15 UNL     1     363.790 234.728 189.240  1.00  0.00     0.028 A
HETATM   27  C16 UNL     1     364.231 233.422 189.321  1.00  0.00     0.090 A
HETATM   28  N3  UNL     1     365.000 232.943 188.351  1.00  0.00    -0.350 N
HETATM   29  C17 UNL     1     365.391 233.683 187.247  1.00  0.00     0.137 A
ATOM     30  H3  UNL     1     365.321 231.977 188.422  1.00  0.00     0.166 HD
HETATM   31  N4  UNL     1     366.122 233.089 186.452  1.00  0.00    -0.341 N
HETATM   32  C19 UNL     1     364.942 234.986 187.178  1.00  0.00     0.154 A
ATOM     33  H4  UNL     1     366.272 232.147 186.812  1.00  0.00     0.164 HD
BRANCH  31  34
HETATM   34  C18 UNL     1     366.813 233.200 185.268  1.00  0.00     0.308 C
HETATM   35  N5  UNL     1     367.471 231.944 184.904  1.00  0.00    -0.085 NA
HETATM   36  N6  UNL     1     366.628 231.295 183.995  1.00  0.00    -0.018 NA
HETATM   37  N7  UNL     1     365.435 232.035 183.979  1.00  0.00    -0.018 NA
HETATM   38  N8  UNL     1     365.907 233.356 184.103  1.00  0.00    -0.085 NA
ENDBRANCH  31  34
BRANCH  32  39
HETATM   39  N9  UNL     1     365.253 235.841 186.093  1.00  0.00    -0.111 N
HETATM   40  O7  UNL     1     366.357 236.445 186.091  1.00  0.00    -0.532 OA
HETATM   41  O8  UNL     1     364.443 236.077 185.017  1.00  0.00    -0.532 OA
ENDBRANCH  32  39
ENDBRANCH  24  25
ENDBRANCH   3  24
TORSDOF 12
ENDMDL