MODEL 2
REMARK VINA RESULT: -8.204321361      2.671      4.134
REMARK  16 active torsions:
REMARK  status: ('A' for Active; 'I' for Inactive)
REMARK    1  A    between atoms: C4_4  and  C5_5
REMARK    2  A    between atoms: C5_5  and  O1_7
REMARK    3  A    between atoms: O1_7  and  C7_8
REMARK    4  A    between atoms: C7_8  and  C8_9
REMARK    5  A    between atoms: C8_9  and  C9_10
REMARK    6  A    between atoms: C8_9  and  N6_22
REMARK    7  A    between atoms: C9_10  and  N1_11
REMARK    8  A    between atoms: C10_16  and  N4_17
REMARK    9  A    between atoms: N6_22  and  N7_24
REMARK   10  A    between atoms: N10_37  and  C16_38
REMARK   11  A    between atoms: C16_38  and  C17_39
REMARK   12  A    between atoms: C17_39  and  C18_40
REMARK   13  A    between atoms: C18_40  and  C19_41
REMARK   14  A    between atoms: C19_41  and  O2_42
REMARK   15  A    between atoms: C20_44  and  N11_45
REMARK   16  A    between atoms: N12_48  and  N13_49
ROOT
HETATM    1  C1  UNL     1     363.276 242.705 186.641  1.00  0.00     0.050 C
HETATM    2  C2  UNL     1     363.702 241.662 187.615  1.00  0.00    -0.031 A
HETATM    3  C3  UNL     1     364.074 240.409 187.231  1.00  0.00     0.036 A
HETATM    4  C4  UNL     1     364.473 239.423 188.108  1.00  0.00     0.039 A
HETATM    5  N8  UNL     1     364.486 239.744 189.414  1.00  0.00    -0.355 N
ATOM      6  H8  UNL     1     364.773 239.045 190.098  1.00  0.00     0.166 HD
HETATM    7  C11 UNL     1     364.120 240.987 189.841  1.00  0.00     0.077 A
HETATM    8  C12 UNL     1     363.720 241.976 188.966  1.00  0.00     0.068 A
HETATM    9  N9  UNL     1     363.421 243.091 189.672  1.00  0.00    -0.337 N
ATOM     10  H9  UNL     1     363.098 243.969 189.266  1.00  0.00     0.167 HD
HETATM   11  C13 UNL     1     363.610 242.873 190.988  1.00  0.00     0.161 A
HETATM   12  C14 UNL     1     364.043 241.567 191.091  1.00  0.00     0.078 A
HETATM   13  C15 UNL     1     364.317 241.070 192.343  1.00  0.00     0.135 A
HETATM   14  S1  UNL     1     364.825 239.548 192.493  1.00  0.00    -0.059 SA
HETATM   15  N10 UNL     1     364.161 241.846 193.423  1.00  0.00    -0.167 N
HETATM   16  C20 UNL     1     363.735 243.119 193.281  1.00  0.00     0.702 A
HETATM   17  N12 UNL     1     363.451 243.663 192.091  1.00  0.00    -0.075 N
ENDROOT
BRANCH   4  18
HETATM   18  C5  UNL     1     364.865 238.079 187.604  1.00  0.00     0.167 C
HETATM   19  C6  UNL     1     365.407 237.239 188.745  1.00  0.00     0.046 C
BRANCH  18  20
HETATM   20  O1  UNL     1     365.749 238.190 186.561  1.00  0.00    -0.374 OA
BRANCH  20  21
HETATM   21  C7  UNL     1     366.251 236.917 186.233  1.00  0.00     0.224 C
BRANCH  21  22
HETATM   22  C8  UNL     1     365.553 236.321 185.080  1.00  0.00     0.048 C
BRANCH  22  23
HETATM   23  C9  UNL     1     364.867 235.008 185.179  1.00  0.00     0.227 C
BRANCH  23  24
HETATM   24  N1  UNL     1     365.700 234.003 185.787  1.00  0.00    -0.199 N
HETATM   25  N2  UNL     1     365.521 233.312 186.898  1.00  0.00    -0.211 N
HETATM   26  N3  UNL     1     366.537 232.492 187.084  1.00  0.00    -0.115 N
ATOM     27  H2  UNL     1     364.718 233.399 187.519  1.00  0.00     0.210 HD
HETATM   28  C10 UNL     1     367.397 232.661 186.064  1.00  0.00     0.707 A
ATOM     29  H3  UNL     1     366.650 231.845 187.864  1.00  0.00     0.207 HD
HETATM   30  N5  UNL     1     366.845 233.603 185.281  1.00  0.00    -0.113 N
ATOM     31  H5  UNL     1     367.256 233.957 184.417  1.00  0.00     0.207 HD
BRANCH  28  32
HETATM   32  N4  UNL     1     368.532 232.053 185.852  1.00  0.00    -0.232 N
ATOM     33  H42 UNL     1     368.650 231.119 185.459  1.00  0.00     0.174 HD
ATOM     34  H41 UNL     1     369.476 232.392 186.037  1.00  0.00     0.174 HD
ENDBRANCH  28  32
ENDBRANCH  23  24
ENDBRANCH  22  23
BRANCH  22  35
HETATM   35  N6  UNL     1     365.511 236.920 183.939  1.00  0.00    -0.311 N
ATOM     36  H6  UNL     1     365.599 237.935 183.881  1.00  0.00     0.185 HD
BRANCH  35  37
HETATM   37  N7  UNL     1     365.343 236.159 182.790  1.00  0.00    -0.345 N
ATOM     38  H72 UNL     1     364.616 235.444 182.759  1.00  0.00     0.176 HD
ATOM     39  H71 UNL     1     365.956 236.331 181.993  1.00  0.00     0.176 HD
ENDBRANCH  35  37
ENDBRANCH  22  35
ENDBRANCH  21  22
ENDBRANCH  20  21
ENDBRANCH  18  20
ENDBRANCH   4  18
BRANCH  17  40
HETATM   40  N13 UNL     1     363.011 244.975 191.931  1.00  0.00    -0.322 N
ATOM     41 2H13 UNL     1     363.485 245.660 191.342  1.00  0.00     0.178 HD
ATOM     42 1H13 UNL     1     362.171 245.282 192.421  1.00  0.00     0.178 HD
ENDBRANCH  17  40
BRANCH  15  43
HETATM   43  C16 UNL     1     364.454 241.299 194.720  1.00  0.00     0.176 C
BRANCH  43  44
HETATM   44  C17 UNL     1     363.266 240.562 195.283  1.00  0.00    -0.008 C
BRANCH  44  45
HETATM   45  C18 UNL     1     363.386 239.787 196.349  1.00  0.00    -0.004 C
BRANCH  45  46
HETATM   46  C19 UNL     1     364.231 238.577 196.279  1.00  0.00     0.191 C
BRANCH  46  47
HETATM   47  O2  UNL     1     363.642 237.537 195.570  1.00  0.00    -0.397 OA
ATOM     48  H2  UNL     1     362.877 237.807 195.076  1.00  0.00     0.209 HD
ENDBRANCH  46  47
ENDBRANCH  45  46
ENDBRANCH  44  45
ENDBRANCH  43  44
ENDBRANCH  15  43
BRANCH  16  49
HETATM   49  N11 UNL     1     363.601 243.824 194.352  1.00  0.00    -0.233 N
ATOM     50 2H11 UNL     1     362.807 243.656 194.969  1.00  0.00     0.174 HD
ATOM     51 1H11 UNL     1     364.309 244.533 194.541  1.00  0.00     0.174 HD
ENDBRANCH  16  49
TORSDOF 16
ENDMDL