MODEL 2
REMARK VINA RESULT: -4.818874960      2.930      4.046
REMARK  5 active torsions:
REMARK  status: ('A' for Active; 'I' for Inactive)
REMARK    1  A    between atoms: O1_2  and  C2_3
REMARK    2  A    between atoms: C6_7  and  O2_8
REMARK    3  A    between atoms: C6_7  and  C7_10
REMARK    4  A    between atoms: C7_10  and  N1_11
REMARK    5  A    between atoms: C14_18  and  O3_19
ROOT
HETATM    1  C2  UNL     1     -16.907  -8.233  22.504  1.00  0.00     0.123 C
HETATM    2  C3  UNL     1     -17.426  -8.253  21.060  1.00  0.00     0.039 C
HETATM    3  C4  UNL     1     -18.176  -7.005  20.740  1.00  0.00     0.023 C
HETATM    4  C5  UNL     1     -18.761  -7.097  19.367  1.00  0.00     0.013 C
HETATM    5  C6  UNL     1     -19.335  -6.733  21.707  1.00  0.00     0.113 C
HETATM    6  C14 UNL     1     -18.870  -6.849  23.137  1.00  0.00     0.157 C
HETATM    7  C15 UNL     1     -18.191  -8.165  23.345  1.00  0.00     0.067 C
ENDROOT
BRANCH   5   8
HETATM    8  O2  UNL     1     -20.276  -7.695  21.477  1.00  0.00    -0.385 OA
ATOM      9  H2  UNL     1     -19.980  -8.481  21.919  1.00  0.00     0.210 HD
ENDBRANCH   5   8
BRANCH   5  10
HETATM   10  C7  UNL     1     -19.850  -5.383  21.365  1.00  0.00     0.313 C
BRANCH  10  11
HETATM   11  N1  UNL     1     -21.031  -4.915  21.952  1.00  0.00     0.095 N
HETATM   12  C8  UNL     1     -20.736  -3.663  22.636  1.00  0.00     0.273 C
HETATM   13  C9  UNL     1     -20.586  -2.490  21.703  1.00  0.00     0.030 C
HETATM   14  C10 UNL     1     -21.860  -2.308  20.911  1.00  0.00     0.004 C
HETATM   15  C11 UNL     1     -22.187  -3.598  20.240  1.00  0.00     0.035 C
HETATM   16  C12 UNL     1     -22.216  -4.777  21.198  1.00  0.00     0.219 C
HETATM   17  C13 UNL     1     -23.348  -4.539  22.225  1.00  0.00     0.043 C
ENDBRANCH  10  11
ENDBRANCH   5  10
BRANCH   6  18
HETATM   18  O3  UNL     1     -18.017  -5.839  23.523  1.00  0.00    -0.392 OA
ATOM     19  H3  UNL     1     -17.108  -6.110  23.578  1.00  0.00     0.210 HD
ENDBRANCH   6  18
BRANCH   1  20
HETATM   20  O1  UNL     1     -16.315  -9.463  22.756  1.00  0.00    -0.391 OA
HETATM   21  C1  UNL     1     -15.125  -9.262  23.490  1.00  0.00     0.202 C
ENDBRANCH   1  20
TORSDOF 5
ENDMDL