MODEL 1
REMARK VINA RESULT: -5.629366651      0.000      0.000
REMARK  4 active torsions:
REMARK  status: ('A' for Active; 'I' for Inactive)
REMARK    1  A    between atoms: C2_2  and  C3_3
REMARK    2  A    between atoms: N1_8  and  C8_10
REMARK    3  A    between atoms: C8_10  and  C9_11
REMARK    4  A    between atoms: C9_11  and  O1_12
ROOT
HETATM    1  C8  UNL     1     -18.236  -7.026  20.849  1.00  0.00     0.124 C
HETATM    2  C10 UNL     1     -19.421  -7.352  19.909  1.00  0.00     0.090 C
HETATM    3  C11 UNL     1     -20.499  -6.426  20.310  1.00  0.00     0.157 A
HETATM    4  O2  UNL     1     -21.639  -6.574  20.938  1.00  0.00    -0.374 OA
HETATM    5  C12 UNL     1     -20.663  -6.775  21.792  1.00  0.00     0.168 A
HETATM    6  C13 UNL     1     -19.678  -5.859  22.417  1.00  0.00     0.151 C
HETATM    7  N2  UNL     1     -18.488  -5.884  21.652  1.00  0.00    -0.392 N
ATOM      8  H2  UNL     1     -17.830  -5.105  21.677  1.00  0.00     0.155 HD
ENDROOT
BRANCH   1   9
HETATM    9  N1  UNL     1     -18.023  -8.163  21.658  1.00  0.00    -0.360 N
HETATM   10  C7  UNL     1     -17.161  -8.322  22.520  1.00  0.00     0.049 C
HETATM   11  C6  UNL     1     -17.007  -9.584  23.342  1.00  0.00     0.070 C
HETATM   12  S1  UNL     1     -15.846  -7.300  23.151  1.00  0.00    -0.082 SA
HETATM   13  C5  UNL     1     -15.495  -9.843  23.318  1.00  0.00     0.052 C
HETATM   14  C4  UNL     1     -14.843  -8.619  23.846  1.00  0.00    -0.019 C
HETATM   15  C3  UNL     1     -13.789  -8.575  24.627  1.00  0.00    -0.013 C
ATOM     16  H1  UNL     1     -18.659  -8.947  21.509  1.00  0.00     0.162 HD
BRANCH  15  17
HETATM   17  C2  UNL     1     -13.058  -9.762  25.123  1.00  0.00     0.024 C
HETATM   18  C1  UNL     1     -13.517  -9.998  26.555  1.00  0.00     0.009 C
ENDBRANCH  15  17
ENDBRANCH   1   9
BRANCH   1  19
HETATM   19  C9  UNL     1     -17.044  -6.855  19.935  1.00  0.00     0.217 C
BRANCH  19  20
HETATM   20  O1  UNL     1     -17.529  -7.115  18.630  1.00  0.00    -0.397 OA
ATOM     21  H1  UNL     1     -16.928  -7.749  18.258  1.00  0.00     0.209 HD
ENDBRANCH  19  20
ENDBRANCH   1  19
TORSDOF 4
ENDMDL