MODEL 5
REMARK VINA RESULT: -5.987099740      1.242      1.493
REMARK  4 active torsions:
REMARK  status: ('A' for Active; 'I' for Inactive)
REMARK    1  A    between atoms: C5_5  and  C6_6
REMARK    2  A    between atoms: C6_6  and  O1_7
REMARK    3  A    between atoms: C6_6  and  C7_9
REMARK    4  A    between atoms: C7_9  and  N1_10
ROOT
HETATM    1  C7  UNL     1     -16.587 -10.067  22.378  1.00  0.00     0.173 C
ENDROOT
BRANCH   1   2
HETATM    2  C6  UNL     1     -16.010  -8.981  23.252  1.00  0.00     0.140 C
BRANCH   2   3
HETATM    3  C5  UNL     1     -14.657  -9.448  23.750  1.00  0.00     0.016 C
HETATM    4  C4  UNL     1     -14.818 -10.333  24.971  1.00  0.00     0.007 C
HETATM    5  C3  UNL     1     -14.108  -9.665  26.125  1.00  0.00     0.005 C
HETATM    6  C2  UNL     1     -12.652  -9.489  25.819  1.00  0.00    -0.019 C
HETATM    7  C1  UNL     1     -11.990  -8.600  26.871  1.00  0.00     0.010 C
HETATM    8  C15 UNL     1     -12.425  -8.814  24.486  1.00  0.00     0.005 C
HETATM    9  C14 UNL     1     -13.789  -8.251  24.052  1.00  0.00     0.007 C
ENDBRANCH   2   3
BRANCH   2  10
HETATM   10  O1  UNL     1     -15.931  -7.745  22.641  1.00  0.00    -0.394 OA
ATOM     11  H1  UNL     1     -16.698  -7.214  22.822  1.00  0.00     0.210 HD
ENDBRANCH   2  10
ENDBRANCH   1   2
BRANCH   1  12
HETATM   12  N1  UNL     1     -17.868  -9.578  21.895  1.00  0.00    -0.210 N
HETATM   13  C8  UNL     1     -18.159  -8.709  20.804  1.00  0.00     0.674 C
HETATM   14  N2  UNL     1     -17.611  -7.885  19.980  1.00  0.00    -0.225 N
HETATM   15  N3  UNL     1     -19.569  -8.780  20.537  1.00  0.00    -0.215 N
HETATM   16  C9  UNL     1     -18.582  -7.317  19.070  1.00  0.00     0.158 C
ATOM     17  H2  UNL     1     -16.616  -7.661  19.970  1.00  0.00     0.177 HD
HETATM   18  C10 UNL     1     -19.887  -7.593  19.776  1.00  0.00     0.161 C
HETATM   19  C11 UNL     1     -19.982 -10.025  21.173  1.00  0.00     0.166 C
HETATM   20  C12 UNL     1     -19.158  -9.914  22.466  1.00  0.00     0.116 C
HETATM   21  C13 UNL     1     -19.705  -8.711  23.224  1.00  0.00     0.034 C
ENDBRANCH   1  12
TORSDOF 4
ENDMDL