MODEL 2
REMARK VINA RESULT: -5.114447707      4.615      7.272
REMARK  4 active torsions:
REMARK  status: ('A' for Active; 'I' for Inactive)
REMARK    1  A    between atoms: C1_2  and  C2_3
REMARK    2  A    between atoms: C1_2  and  C6_12
REMARK    3  A    between atoms: C4_5  and  O2_6
REMARK    4  A    between atoms: C6_12  and  C7_13
ROOT
HETATM    1  C6  UNL     1     -13.976 -11.497  27.590  1.00  0.00     0.049 C
HETATM    2  C11 UNL     1     -15.068 -10.621  28.200  1.00  0.00     0.020 C
HETATM    3  C12 UNL     1     -15.843 -11.525  29.134  1.00  0.00     0.001 C
HETATM    4  C13 UNL     1     -16.765 -12.338  28.237  1.00  0.00     0.000 C
HETATM    5  C14 UNL     1     -16.198 -12.444  26.849  1.00  0.00     0.001 C
HETATM    6  C15 UNL     1     -14.714 -12.563  26.802  1.00  0.00     0.020 C
ENDROOT
BRANCH   1   7
HETATM    7  C1  UNL     1     -13.169 -12.108  28.662  1.00  0.00     0.168 C
HETATM    8  O1  UNL     1     -12.765 -11.338  29.566  1.00  0.00    -0.295 OA
BRANCH   7   9
HETATM    9  C2  UNL     1     -12.764 -13.502  28.823  1.00  0.00     0.258 C
HETATM   10  C3  UNL     1     -13.131 -14.152  30.132  1.00  0.00     0.074 C
HETATM   11  C4  UNL     1     -12.035 -15.230  30.259  1.00  0.00     0.146 C
HETATM   12  C5  UNL     1     -10.842 -14.368  29.849  1.00  0.00     0.264 C
HETATM   13  N1  UNL     1     -11.329 -13.690  28.681  1.00  0.00    -0.062 N
ATOM     14  H12 UNL     1     -11.080 -14.172  27.816  1.00  0.00     0.278 HD
ATOM     15  H11 UNL     1     -10.835 -12.816  28.500  1.00  0.00     0.278 HD
BRANCH  11  16
HETATM   16  O2  UNL     1     -11.921 -15.693  31.553  1.00  0.00    -0.394 OA
ATOM     17  H2  UNL     1     -11.025 -15.653  31.864  1.00  0.00     0.210 HD
ENDBRANCH  11  16
ENDBRANCH   7   9
ENDBRANCH   1   7
BRANCH   1  18
HETATM   18  C7  UNL     1     -13.157 -10.625  26.712  1.00  0.00     0.137 C
HETATM   19  C8  UNL     1     -13.851 -10.223  25.438  1.00  0.00     0.035 C
HETATM   20  C9  UNL     1     -13.640  -8.752  25.363  1.00  0.00     0.029 C
HETATM   21  C10 UNL     1     -12.928  -8.383  26.618  1.00  0.00     0.168 C
HETATM   22  O3  UNL     1     -12.866  -9.470  27.433  1.00  0.00    -0.385 OA
ENDBRANCH   1  18
TORSDOF 4
ENDMDL