MODEL 4
REMARK VINA RESULT: -5.270288242      2.102      2.969
REMARK  3 active torsions:
REMARK  status: ('A' for Active; 'I' for Inactive)
REMARK    1  A    between atoms: C4_10  and  C5_11
REMARK    2  A    between atoms: N3_12  and  C6_14
REMARK    3  A    between atoms: C6_14  and  C7_15
ROOT
HETATM    1  O1  UNL     1     -10.599  -7.945  26.779  1.00  0.00    -0.272 OA
HETATM    2  C1  UNL     1     -10.946  -7.631  25.626  1.00  0.00     0.234 C
HETATM    3  N1  UNL     1     -10.300  -6.561  24.960  1.00  0.00    -0.303 N
ATOM      4  H1  UNL     1      -9.846  -5.817  25.489  1.00  0.00     0.171 HD
HETATM    5  C2  UNL     1     -10.298  -6.551  23.543  1.00  0.00     0.174 C
HETATM    6  S1  UNL     1      -9.576  -5.364  22.656  1.00  0.00    -0.041 SA
HETATM    7  N2  UNL     1     -10.949  -7.620  22.872  1.00  0.00    -0.366 N
ATOM      8  H2  UNL     1     -10.605  -7.951  21.971  1.00  0.00     0.161 HD
HETATM    9  C3  UNL     1     -12.096  -8.226  23.482  1.00  0.00     0.141 C
HETATM   10  C4  UNL     1     -12.029  -8.378  24.964  1.00  0.00     0.134 C
ENDROOT
BRANCH  10  11
HETATM   11  C5  UNL     1     -11.884  -9.814  25.376  1.00  0.00     0.071 C
HETATM   12  N3  UNL     1     -12.694 -10.300  26.221  1.00  0.00    -0.401 N
ATOM     13  H3  UNL     1     -12.594 -11.276  26.501  1.00  0.00     0.158 HD
BRANCH  12  14
HETATM   14  C6  UNL     1     -13.738  -9.522  26.787  1.00  0.00     0.123 C
BRANCH  14  15
HETATM   15  C7  UNL     1     -14.450 -10.264  27.918  1.00  0.00     0.005 C
HETATM   16  C8  UNL     1     -13.378 -10.805  28.814  1.00  0.00     0.016 C
HETATM   17  C9  UNL     1     -13.822 -11.740  29.865  1.00  0.00     0.074 C
HETATM   18  S2  UNL     1     -15.419 -12.485  29.649  1.00  0.00    -0.169 SA
HETATM   19  C10 UNL     1     -16.335 -11.763  28.269  1.00  0.00     0.074 C
HETATM   20  C11 UNL     1     -15.264 -11.349  27.253  1.00  0.00     0.016 C
ENDBRANCH  14  15
ENDBRANCH  12  14
ENDBRANCH  10  11
TORSDOF 3
ENDMDL