MODEL 5
REMARK VINA RESULT: -5.386038065      2.435      6.363
REMARK  7 active torsions:
REMARK  status: ('A' for Active; 'I' for Inactive)
REMARK    1  A    between atoms: C2_2  and  N1_3
REMARK    2  A    between atoms: N1_3  and  C3_5
REMARK    3  A    between atoms: C4_8  and  S1_9
REMARK    4  A    between atoms: S1_9  and  C5_10
REMARK    5  A    between atoms: C5_10  and  C6_11
REMARK    6  A    between atoms: C7_12  and  C8_13
REMARK    7  A    between atoms: C12_19  and  N4_20
ROOT
HETATM    1  C3  UNL     1     -15.831  -8.634  22.956  1.00  0.00     0.694 A
HETATM    2  N2  UNL     1     -14.625  -8.237  23.358  1.00  0.00    -0.169 N
ATOM      3  H2  UNL     1     -14.273  -7.315  23.102  1.00  0.00     0.186 HD
HETATM    4  C4  UNL     1     -13.881  -9.059  24.101  1.00  0.00     0.175 A
HETATM    5  N3  UNL     1     -14.378 -10.287  24.430  1.00  0.00    -0.169 N
ATOM      6  H3  UNL     1     -13.819 -10.924  24.998  1.00  0.00     0.186 HD
HETATM    7  C12 UNL     1     -15.588 -10.661  24.015  1.00  0.00     0.694 A
HETATM    8  N5  UNL     1     -16.332  -9.838  23.272  1.00  0.00    -0.022 N
ATOM      9  H5  UNL     1     -17.259 -10.118  22.952  1.00  0.00     0.203 HD
ENDROOT
BRANCH   4  10
HETATM   10  S1  UNL     1     -12.258  -8.666  24.710  1.00  0.00    -0.081 SA
BRANCH  10  11
HETATM   11  C5  UNL     1     -12.319  -8.117  26.444  1.00  0.00     0.176 C
BRANCH  11  12
HETATM   12  C6  UNL     1     -12.834  -9.227  27.244  1.00  0.00    -0.095 C
HETATM   13  C7  UNL     1     -13.263 -10.153  27.885  1.00  0.00    -0.097 C
BRANCH  13  14
HETATM   14  C8  UNL     1     -13.792 -11.291  28.640  1.00  0.00     0.013 C
HETATM   15  C9  UNL     1     -15.244 -11.019  28.967  1.00  0.00     0.028 C
HETATM   16  C10 UNL     1     -13.647 -12.509  27.747  1.00  0.00     0.028 C
HETATM   17  C11 UNL     1     -12.977 -11.547  29.889  1.00  0.00     0.028 C
ENDBRANCH  13  14
ENDBRANCH  11  12
ENDBRANCH  10  11
ENDBRANCH   4  10
BRANCH   1  18
HETATM   18  N1  UNL     1     -16.523  -7.811  22.236  1.00  0.00    -0.226 N
ATOM     19  H1  UNL     1     -16.865  -8.141  21.333  1.00  0.00     0.177 HD
BRANCH  18  20
HETATM   20  C2  UNL     1     -16.843  -6.465  22.622  1.00  0.00     0.133 C
HETATM   21  C1  UNL     1     -18.182  -6.398  23.339  1.00  0.00     0.027 C
ENDBRANCH  18  20
ENDBRANCH   1  18
BRANCH   7  22
HETATM   22  N4  UNL     1     -16.047 -11.810  24.327  1.00  0.00    -0.230 N
HETATM   23  C13 UNL     1     -16.189 -12.827  23.320  1.00  0.00     0.165 C
ATOM     24  H4  UNL     1     -16.314 -12.008  25.292  1.00  0.00     0.177 HD
ENDBRANCH   7  22
TORSDOF 7
ENDMDL