MODEL 5
REMARK VINA RESULT: -5.436928974      2.386      6.331
REMARK  4 active torsions:
REMARK  status: ('A' for Active; 'I' for Inactive)
REMARK    1  A    between atoms: C5_6  and  O1_7
REMARK    2  A    between atoms: C5_6  and  C6_9
REMARK    3  A    between atoms: C6_9  and  N2_10
REMARK    4  A    between atoms: N2_10  and  C7_12
ROOT
HETATM    1  C1  UNL     1     -18.992  -6.368  21.958  1.00  0.00     0.041 C
HETATM    2  C2  UNL     1     -17.672  -6.694  21.322  1.00  0.00     0.135 C
HETATM    3  C3  UNL     1     -16.535  -6.706  22.297  1.00  0.00     0.154 C
HETATM    4  N1  UNL     1     -16.410  -7.882  23.071  1.00  0.00    -0.381 N
HETATM    5  C4  UNL     1     -15.108  -8.070  23.546  1.00  0.00     0.098 C
HETATM    6  C5  UNL     1     -14.665  -9.405  23.934  1.00  0.00     0.105 C
HETATM    7  C12 UNL     1     -15.793 -10.441  24.055  1.00  0.00     0.047 C
HETATM    8  C13 UNL     1     -16.525 -10.325  22.713  1.00  0.00     0.030 C
HETATM    9  C14 UNL     1     -17.235  -8.964  22.791  1.00  0.00     0.107 C
HETATM   10  C15 UNL     1     -18.084  -8.874  21.556  1.00  0.00     0.193 C
HETATM   11  O2  UNL     1     -17.667  -7.914  20.658  1.00  0.00    -0.383 OA
ENDROOT
BRANCH   6  12
HETATM   12  O1  UNL     1     -13.775  -9.989  23.001  1.00  0.00    -0.383 OA
ATOM     13  H1  UNL     1     -13.110  -9.386  22.691  1.00  0.00     0.211 HD
ENDBRANCH   6  12
BRANCH   6  14
HETATM   14  C6  UNL     1     -13.928  -9.491  25.273  1.00  0.00     0.157 C
BRANCH  14  15
HETATM   15  N2  UNL     1     -13.132  -8.304  25.354  1.00  0.00    -0.414 N
ATOM     16  H2  UNL     1     -13.545  -7.372  25.381  1.00  0.00     0.153 HD
BRANCH  15  17
HETATM   17  C7  UNL     1     -11.728  -8.513  25.392  1.00  0.00     0.076 C
HETATM   18  C8  UNL     1     -11.210  -8.247  23.975  1.00  0.00     0.024 C
HETATM   19  C9  UNL     1     -10.528  -6.890  24.106  1.00  0.00     0.002 C
HETATM   20  C10 UNL     1      -9.841  -7.064  25.460  1.00  0.00     0.002 C
HETATM   21  C11 UNL     1     -11.009  -7.539  26.300  1.00  0.00     0.024 C
ENDBRANCH  15  17
ENDBRANCH  14  15
ENDBRANCH   6  14
TORSDOF 4
ENDMDL