MODEL 5
REMARK VINA RESULT: -5.903991277      1.004      1.228
REMARK  6 active torsions:
REMARK  status: ('A' for Active; 'I' for Inactive)
REMARK    1  A    between atoms: C1_2  and  O2_3
REMARK    2  A    between atoms: C1_2  and  C7_9
REMARK    3  A    between atoms: O2_3  and  C2_4
REMARK    4  A    between atoms: C2_4  and  C3_5
REMARK    5  A    between atoms: C7_9  and  O3_10
REMARK    6  A    between atoms: C13_17  and  O4_18
ROOT
HETATM    1  C7  UNL     1     -17.042  -8.880  22.465  1.00  0.00     0.152 C
HETATM    2  C8  UNL     1     -18.202  -9.040  23.407  1.00  0.00     0.053 C
HETATM    3  C9  UNL     1     -19.461  -8.704  22.606  1.00  0.00    -0.008 C
HETATM    4  C10 UNL     1     -19.388  -9.301  21.217  1.00  0.00     0.010 C
HETATM    5  C11 UNL     1     -18.336  -8.620  20.390  1.00  0.00    -0.001 C
HETATM    6  C12 UNL     1     -18.777  -7.174  20.106  1.00  0.00     0.043 C
HETATM    7  C13 UNL     1     -18.259  -6.878  21.526  1.00  0.00     0.066 C
HETATM    8  C14 UNL     1     -19.403  -7.183  22.441  1.00  0.00     0.043 C
HETATM    9  C15 UNL     1     -17.297  -7.984  21.321  1.00  0.00     0.069 C
ENDROOT
BRANCH   1  10
HETATM   10  C1  UNL     1     -15.812  -8.515  23.218  1.00  0.00     0.294 C
HETATM   11  O1  UNL     1     -15.551  -7.277  23.320  1.00  0.00    -0.262 OA
BRANCH  10  12
HETATM   12  O2  UNL     1     -14.961  -9.432  23.799  1.00  0.00    -0.319 OA
BRANCH  12  13
HETATM   13  C2  UNL     1     -13.568  -9.183  23.732  1.00  0.00     0.183 C
BRANCH  13  14
HETATM   14  C3  UNL     1     -12.919  -9.376  25.084  1.00  0.00     0.010 C
HETATM   15  C4  UNL     1     -11.677  -8.539  25.305  1.00  0.00     0.007 C
HETATM   16  C5  UNL     1     -12.193  -8.249  26.702  1.00  0.00     0.001 C
HETATM   17  C6  UNL     1     -13.594  -8.535  26.149  1.00  0.00     0.007 C
ENDBRANCH  13  14
ENDBRANCH  12  13
ENDBRANCH  10  12
ENDBRANCH   1  10
BRANCH   1  18
HETATM   18  O3  UNL     1     -16.794 -10.175  21.945  1.00  0.00    -0.379 OA
ATOM     19  H3  UNL     1     -16.605 -10.044  21.023  1.00  0.00     0.211 HD
ENDBRANCH   1  18
BRANCH   7  20
HETATM   20  O4  UNL     1     -17.709  -5.601  21.646  1.00  0.00    -0.389 OA
ATOM     21  H4  UNL     1     -17.863  -5.060  20.880  1.00  0.00     0.210 HD
ENDBRANCH   7  20
TORSDOF 6
ENDMDL