MODEL 3
REMARK VINA RESULT: -3.825879199      1.569      1.999
REMARK  0 active torsions:
REMARK  status: ('A' for Active; 'I' for Inactive)
ROOT
HETATM    1  C1  UNL     1      12.395 -10.667   9.967  1.00  0.00     0.011 C
HETATM    2  C2  UNL     1      12.887 -11.617  11.040  1.00  0.00     0.011 C
HETATM    3  C3  UNL     1      11.752 -12.295  11.734  1.00  0.00     0.076 C
HETATM    4  S1  UNL     1      10.369 -12.465  10.614  1.00  0.00    -0.140 SA
HETATM    5  C4  UNL     1      10.342 -13.973   9.680  1.00  0.00     0.184 A
HETATM    6  N1  UNL     1      11.565 -14.520   9.245  1.00  0.00    -0.324 N
ATOM      7  H1  UNL     1      12.307 -14.971   9.780  1.00  0.00     0.181 HD
HETATM    8  N2  UNL     1      11.484 -14.298   8.026  1.00  0.00    -0.331 N
ATOM      9  H2  UNL     1      12.083 -14.477   7.220  1.00  0.00     0.180 HD
HETATM   10  C5  UNL     1      10.238 -13.701   8.213  1.00  0.00     0.142 A
HETATM   11  C6  UNL     1      10.016 -12.294   7.847  1.00  0.00     0.103 C
HETATM   12  S2  UNL     1      11.391 -11.277   7.465  1.00  0.00    -0.167 SA
HETATM   13  C7  UNL     1      12.748 -11.176   8.579  1.00  0.00     0.074 C
ENDROOT
TORSDOF 0
ENDMDL