MODEL 5
REMARK VINA RESULT: -3.754817727      1.298      1.521
REMARK  0 active torsions:
REMARK  status: ('A' for Active; 'I' for Inactive)
ROOT
HETATM    1  C1  UNL     1      12.363 -10.870   7.771  1.00  0.00     0.061 C
HETATM    2  C2  UNL     1      11.007 -11.478   7.687  1.00  0.00     0.137 C
HETATM    3  C3  UNL     1      10.419 -11.179   6.300  1.00  0.00     0.061 C
HETATM    4  O1  UNL     1      10.952 -12.830   7.862  1.00  0.00    -0.216 OA
HETATM    5  O2  UNL     1      11.854 -13.347   8.624  1.00  0.00    -0.197 OA
HETATM    6  C4  UNL     1      11.526 -13.482   9.941  1.00  0.00     0.220 A
HETATM    7  C5  UNL     1      12.639 -13.257  10.919  1.00  0.00     0.085 C
HETATM    8  O3  UNL     1      10.579 -14.380  10.388  1.00  0.00    -0.340 OA
HETATM    9  C6  UNL     1      10.143 -13.117  10.170  1.00  0.00     0.191 A
HETATM   10  C7  UNL     1      10.019 -12.068  11.210  1.00  0.00     0.048 C
HETATM   11  C8  UNL     1      10.423 -10.746  10.540  1.00  0.00     0.080 C
HETATM   12  S1  UNL     1       9.828 -10.708   8.857  1.00  0.00    -0.129 SA
ENDROOT
TORSDOF 0
ENDMDL