MODEL 1
REMARK VINA RESULT: -4.029109211      0.000      0.000
REMARK  0 active torsions:
REMARK  status: ('A' for Active; 'I' for Inactive)
ROOT
HETATM    1  C1  UNL     1       8.358 -11.838   6.058  1.00  0.00     0.049 C
HETATM    2  C2  UNL     1       9.339 -11.067   6.956  1.00  0.00     0.091 C
HETATM    3  C3  UNL     1       8.816  -9.716   7.266  1.00  0.00     0.049 C
HETATM    4  C4  UNL     1      10.656 -11.089   6.243  1.00  0.00     0.067 C
HETATM    5  C5  UNL     1      11.698 -10.205   6.852  1.00  0.00     0.179 C
HETATM    6  O1  UNL     1      12.019 -10.434   8.161  1.00  0.00    -0.344 OA
HETATM    7  C6  UNL     1      11.834 -11.440   9.025  1.00  0.00     0.114 C
HETATM    8  S1  UNL     1      11.325 -11.225  10.563  1.00  0.00    -0.058 SA
HETATM    9  C7  UNL     1      12.092 -12.835   8.606  1.00  0.00     0.106 C
HETATM   10  C8  UNL     1      10.819 -13.634   8.437  1.00  0.00     0.217 C
HETATM   11  O2  UNL     1       9.928 -13.031   7.596  1.00  0.00    -0.240 OA
HETATM   12  O3  UNL     1       9.490 -11.883   8.097  1.00  0.00    -0.230 OA
ENDROOT
TORSDOF 0
ENDMDL