MODEL 3
REMARK VINA RESULT: -4.030463499      3.124      3.685
REMARK  0 active torsions:
REMARK  status: ('A' for Active; 'I' for Inactive)
ROOT
HETATM    1  O1  UNL     1       7.088  -8.530   6.648  1.00  0.00    -0.285 OA
HETATM    2  C1  UNL     1       7.499  -9.648   6.751  1.00  0.00     0.189 C
HETATM    3  C2  UNL     1       7.117 -10.775   5.805  1.00  0.00     0.091 C
HETATM    4  C3  UNL     1       8.019 -11.925   5.888  1.00  0.00     0.013 C
HETATM    5  C4  UNL     1       9.202 -12.425   6.591  1.00  0.00     0.062 C
HETATM    6  C5  UNL     1       9.779 -11.426   7.610  1.00  0.00     0.165 C
HETATM    7  O2  UNL     1      10.261 -12.023   8.732  1.00  0.00    -0.359 OA
HETATM    8  C6  UNL     1      11.487 -12.566   8.502  1.00  0.00     0.181 C
HETATM    9  C7  UNL     1      12.437 -11.431   8.082  1.00  0.00     0.104 C
HETATM   10  S1  UNL     1      11.274 -10.618   6.909  1.00  0.00    -0.118 SA
HETATM   11  S2  UNL     1       8.629 -10.130   8.051  1.00  0.00    -0.043 SA
ENDROOT
TORSDOF 0
ENDMDL