MODEL 5
REMARK VINA RESULT: -4.995080685      4.649      6.137
REMARK  0 active torsions:
REMARK  status: ('A' for Active; 'I' for Inactive)
ROOT
HETATM    1  C1  UNL     1      12.033 -12.823   8.424  1.00  0.00     0.084 C
HETATM    2  C2  UNL     1      11.104 -11.665   8.605  1.00  0.00     0.222 C
HETATM    3  C3  UNL     1      11.357 -11.110  10.014  1.00  0.00     0.084 C
HETATM    4  O1  UNL     1      11.287 -10.633   7.729  1.00  0.00    -0.195 OA
HETATM    5  O2  UNL     1      10.882 -10.826   6.525  1.00  0.00    -0.195 OA
HETATM    6  C4  UNL     1       9.604 -11.395   6.438  1.00  0.00     0.229 C
HETATM    7  C5  UNL     1       8.572 -10.410   6.857  1.00  0.00     0.074 C
HETATM    8  C6  UNL     1       7.196 -10.676   6.371  1.00  0.00     0.006 C
HETATM    9  C7  UNL     1       7.098 -11.206   4.984  1.00  0.00     0.000 C
HETATM   10  C8  UNL     1       8.069 -12.303   4.671  1.00  0.00     0.006 C
HETATM   11  C9  UNL     1       9.459 -11.874   5.018  1.00  0.00     0.074 C
HETATM   12  O3  UNL     1       9.627 -12.537   7.265  1.00  0.00    -0.195 OA
HETATM   13  O4  UNL     1       9.774 -12.085   8.506  1.00  0.00    -0.195 OA
ENDROOT
TORSDOF 0
ENDMDL