MODEL 3
REMARK VINA RESULT: -6.188100584      3.822      5.932
REMARK  3 active torsions:
REMARK  status: ('A' for Active; 'I' for Inactive)
REMARK    1  A    between atoms: C2_3  and  C3_4
REMARK    2  A    between atoms: C3_4  and  N2_5
REMARK    3  A    between atoms: N2_5  and  N3_7
ROOT
HETATM    1  N1  UNL     1      10.375 -17.255   4.538  1.00  0.00    -0.195 NA
HETATM    2  C1  UNL     1       9.708 -17.104   3.582  1.00  0.00     0.092 C
HETATM    3  C2  UNL     1       8.921 -16.909   2.415  1.00  0.00     0.288 C
HETATM    4  C10 UNL     1       8.282 -17.987   1.746  1.00  0.00     0.092 C
HETATM    5  N4  UNL     1       7.742 -18.873   1.203  1.00  0.00    -0.195 NA
ENDROOT
BRANCH   3   6
HETATM    6  C3  UNL     1       8.777 -15.700   1.953  1.00  0.00    -0.020 C
BRANCH   6   7
HETATM    7  N2  UNL     1       8.712 -14.415   1.796  1.00  0.00    -0.267 N
ATOM      8  H2  UNL     1       8.390 -14.000   0.922  1.00  0.00     0.196 HD
BRANCH   7   9
HETATM    9  N3  UNL     1       9.104 -13.628   2.879  1.00  0.00    -0.302 N
HETATM   10  C4  UNL     1       8.466 -12.617   3.310  1.00  0.00     0.004 C
HETATM   11  C5  UNL     1       7.203 -12.093   2.752  1.00  0.00     0.054 C
HETATM   12  C9  UNL     1       9.040 -11.892   4.485  1.00  0.00     0.054 C
HETATM   13  C6  UNL     1       6.203 -11.714   3.793  1.00  0.00     0.006 C
HETATM   14  C7  UNL     1       6.789 -11.152   5.044  1.00  0.00     0.001 C
HETATM   15  C8  UNL     1       7.968 -11.933   5.567  1.00  0.00     0.006 C
ATOM     16  H3  UNL     1       9.966 -13.883   3.360  1.00  0.00     0.187 HD
ENDBRANCH   7   9
ENDBRANCH   6   7
ENDBRANCH   3   6
TORSDOF 3
ENDMDL