MODEL 1
REMARK VINA RESULT: -3.987024609      0.000      0.000
REMARK  0 active torsions:
REMARK  status: ('A' for Active; 'I' for Inactive)
ROOT
HETATM    1  C1  UNL     1       9.561 -13.588   3.571  1.00  0.00     0.049 C
HETATM    2  C2  UNL     1       8.945 -12.614   4.524  1.00  0.00     0.093 C
HETATM    3  C3  UNL     1       7.787 -11.928   3.799  1.00  0.00     0.049 C
HETATM    4  C4  UNL     1       9.920 -11.497   4.919  1.00  0.00     0.105 C
HETATM    5  C5  UNL     1       9.844 -11.593   6.408  1.00  0.00     0.195 C
HETATM    6  O1  UNL     1       9.466 -12.906   6.617  1.00  0.00    -0.206 OA
HETATM    7  O2  UNL     1       8.557 -13.158   5.724  1.00  0.00    -0.228 OA
HETATM    8  S1  UNL     1      11.302 -11.081   7.275  1.00  0.00    -0.116 SA
HETATM    9  C6  UNL     1      10.675  -9.767   8.390  1.00  0.00     0.088 C
HETATM   10  C7  UNL     1       9.316 -10.267   8.772  1.00  0.00     0.088 C
HETATM   11  S2  UNL     1       8.562 -10.506   7.112  1.00  0.00    -0.116 SA
ENDROOT
TORSDOF 0
ENDMDL