MODEL 2
REMARK VINA RESULT: -3.830608223      1.397      3.405
REMARK  0 active torsions:
REMARK  status: ('A' for Active; 'I' for Inactive)
ROOT
HETATM    1  C1  UNL     1       5.719 -11.548   3.943  1.00  0.00     0.011 C
HETATM    2  C2  UNL     1       6.546 -10.757   4.946  1.00  0.00     0.012 C
HETATM    3  C3  UNL     1       7.251 -11.637   5.928  1.00  0.00     0.086 C
HETATM    4  S1  UNL     1       9.022 -11.744   5.674  1.00  0.00    -0.098 SA
HETATM    5  S2  UNL     1       9.581 -12.090   3.692  1.00  0.00    -0.097 SA
HETATM    6  C4  UNL     1       9.295 -13.778   3.136  1.00  0.00     0.096 C
HETATM    7  C5  UNL     1       8.459 -13.685   1.855  1.00  0.00     0.084 C
HETATM    8  S3  UNL     1       6.742 -13.322   2.207  1.00  0.00    -0.168 SA
HETATM    9  C6  UNL     1       6.427 -11.604   2.592  1.00  0.00     0.074 C
ENDROOT
TORSDOF 0
ENDMDL