MODEL 3
REMARK VINA RESULT: -3.059310870      0.927      3.638
REMARK  0 active torsions:
REMARK  status: ('A' for Active; 'I' for Inactive)
ROOT
HETATM    1  C1  UNL     1       5.713 -10.888   4.372  1.00  0.00     0.021 C
HETATM    2  C2  UNL     1       6.116 -11.154   2.960  1.00  0.00     0.074 C
HETATM    3  S1  UNL     1       6.186 -12.946   2.590  1.00  0.00    -0.169 SA
HETATM    4  C3  UNL     1       7.689 -13.337   1.638  1.00  0.00     0.074 C
HETATM    5  C4  UNL     1       8.617 -14.186   2.452  1.00  0.00     0.021 C
HETATM    6  C5  UNL     1       9.850 -13.431   2.916  1.00  0.00     0.087 C
HETATM    7  S2  UNL     1       9.382 -11.902   3.742  1.00  0.00    -0.098 SA
HETATM    8  S3  UNL     1       7.889 -12.370   5.185  1.00  0.00    -0.098 SA
HETATM    9  C6  UNL     1       6.819 -10.933   5.361  1.00  0.00     0.087 C
ENDROOT
TORSDOF 0
ENDMDL