MODEL 4
REMARK VINA RESULT: -7.374820800      0.999      1.931
REMARK  4 active torsions:
REMARK  status: ('A' for Active; 'I' for Inactive)
REMARK    1  A    between atoms: C2_2  and  N1_4
REMARK    2  A    between atoms: C7_8  and  C8_9
REMARK    3  A    between atoms: C8_9  and  C9_10
REMARK    4  A    between atoms: N4_18  and  C13_20
ROOT
HETATM    1  C9  UNL     1      17.702  75.496  61.061  1.00  0.00     0.079 A
HETATM    2  N2  UNL     1      17.521  75.317  62.413  1.00  0.00    -0.340 N
ATOM      3  H2  UNL     1      17.147  76.022  63.048  1.00  0.00     0.167 HD
HETATM    4  C10 UNL     1      17.902  74.093  62.776  1.00  0.00     0.097 A
HETATM    5  C11 UNL     1      17.874  73.562  63.997  1.00  0.00     0.063 C
HETATM    6  N3  UNL     1      18.340  73.440  61.694  1.00  0.00    -0.328 N
ATOM      7  H3  UNL     1      18.696  72.484  61.664  1.00  0.00     0.169 HD
HETATM    8  C12 UNL     1      18.218  74.301  60.631  1.00  0.00     0.130 A
HETATM    9  N4  UNL     1      18.556  73.964  59.447  1.00  0.00    -0.375 N
ATOM     10  H4  UNL     1      18.455  74.621  58.673  1.00  0.00     0.161 HD
ENDROOT
BRANCH   1  11
HETATM   11  C8  UNL     1      17.407  76.610  60.447  1.00  0.00     0.046 C
BRANCH  11  12
HETATM   12  C7  UNL     1      16.648  76.853  59.261  1.00  0.00    -0.018 A
HETATM   13  C6  UNL     1      15.443  76.214  59.061  1.00  0.00     0.014 A
HETATM   14  C5  UNL     1      14.700  76.403  57.909  1.00  0.00     0.019 A
HETATM   15  C4  UNL     1      15.184  77.253  56.945  1.00  0.00     0.096 A
HETATM   16  N1  UNL     1      16.372  77.903  57.107  1.00  0.00    -0.337 N
HETATM   17  C15 UNL     1      17.075  77.703  58.233  1.00  0.00     0.107 A
BRANCH  16  18
HETATM   18  C2  UNL     1      16.802  78.762  56.065  1.00  0.00     0.002 C
HETATM   19  C1  UNL     1      18.068  78.828  55.723  1.00  0.00     0.038 C
HETATM   20  C3  UNL     1      15.818  79.609  55.341  1.00  0.00     0.068 C
ENDBRANCH  16  18
ENDBRANCH  11  12
ENDBRANCH   1  11
BRANCH   9  21
HETATM   21  C13 UNL     1      19.092  72.619  59.215  1.00  0.00     0.116 C
HETATM   22  C14 UNL     1      18.793  72.134  57.827  1.00  0.00     0.026 C
ENDBRANCH   9  21
TORSDOF 4
ENDMDL