MODEL 5
REMARK VINA RESULT: -6.167863932      2.236      6.448
REMARK  5 active torsions:
REMARK  status: ('A' for Active; 'I' for Inactive)
REMARK    1  A    between atoms: N1_2  and  C2_4
REMARK    2  A    between atoms: N2_6  and  C4_8
REMARK    3  A    between atoms: C4_8  and  N3_9
REMARK    4  A    between atoms: C4_8  and  C5_13
REMARK    5  A    between atoms: C5_13  and  N4_14
ROOT
HETATM    1  C5  UNL     1      17.873  76.187  58.985  1.00  0.00     0.182 C
ENDROOT
BRANCH   1   2
HETATM    2  C4  UNL     1      17.540  75.752  60.394  1.00  0.00     0.301 C
BRANCH   2   3
HETATM    3  N2  UNL     1      18.335  74.574  60.669  1.00  0.00    -0.352 N
HETATM    4  C2  UNL     1      17.799  73.591  61.310  1.00  0.00     0.070 C
HETATM    5  C3  UNL     1      16.421  73.571  61.791  1.00  0.00     0.088 C
ATOM      6  H2  UNL     1      19.306  74.521  60.360  1.00  0.00     0.162 HD
BRANCH   4   7
HETATM    7  N1  UNL     1      18.628  72.460  61.551  1.00  0.00    -0.385 N
HETATM    8  C1  UNL     1      19.533  72.077  60.478  1.00  0.00     0.147 C
ATOM      9  H1  UNL     1      18.591  71.945  62.431  1.00  0.00     0.160 HD
ENDBRANCH   4   7
ENDBRANCH   2   3
BRANCH   2  10
HETATM   10  N3  UNL     1      17.869  76.804  61.341  1.00  0.00    -0.057 N
ATOM     11  H33 UNL     1      18.866  77.018  61.345  1.00  0.00     0.276 HD
ATOM     12  H32 UNL     1      17.523  77.714  61.038  1.00  0.00     0.276 HD
ATOM     13  H31 UNL     1      17.527  76.555  62.270  1.00  0.00     0.276 HD
ENDBRANCH   2  10
ENDBRANCH   1   2
BRANCH   1  14
HETATM   14  N4  UNL     1      16.757  76.718  58.270  1.00  0.00    -0.356 N
HETATM   15  C6  UNL     1      15.507  76.241  58.432  1.00  0.00     0.092 A
HETATM   16  C7  UNL     1      14.419  76.725  57.776  1.00  0.00     0.031 A
HETATM   17  C8  UNL     1      14.584  77.759  56.894  1.00  0.00    -0.007 A
HETATM   18  C9  UNL     1      13.531  78.316  56.184  1.00  0.00     0.102 A
HETATM   19  C13 UNL     1      15.842  78.272  56.704  1.00  0.00    -0.001 A
HETATM   20  N5  UNL     1      13.711  79.333  55.321  1.00  0.00    -0.370 N
HETATM   21  C10 UNL     1      12.594  79.917  54.572  1.00  0.00     0.154 C
HETATM   22  C11 UNL     1      14.957  79.813  55.157  1.00  0.00     0.091 A
HETATM   23  C12 UNL     1      16.046  79.313  55.825  1.00  0.00     0.031 A
HETATM   24  C14 UNL     1      16.922  77.729  57.410  1.00  0.00     0.018 A
HETATM   25  C15 UNL     1      18.237  78.306  57.161  1.00  0.00     0.069 C
ENDBRANCH   1  14
TORSDOF 5
ENDMDL