MODEL 4
REMARK VINA RESULT: -5.783219097      1.738      6.523
REMARK  5 active torsions:
REMARK  status: ('A' for Active; 'I' for Inactive)
REMARK    1  A    between atoms: N1_2  and  C4_5
REMARK    2  A    between atoms: C4_5  and  C5_6
REMARK    3  A    between atoms: C5_6  and  N2_7
REMARK    4  A    between atoms: C9_11  and  N3_12
REMARK    5  A    between atoms: C14_18  and  O1_19
ROOT
HETATM    1  N2  UNL     1      16.551  76.696  58.662  1.00  0.00    -0.043 N
HETATM    2  C6  UNL     1      15.251  76.116  58.939  1.00  0.00     0.275 C
HETATM    3  C7  UNL     1      17.110  77.342  59.806  1.00  0.00     0.242 C
HETATM    4  C8  UNL     1      17.393  76.452  60.962  1.00  0.00     0.063 C
HETATM    5  C9  UNL     1      18.249  75.266  60.561  1.00  0.00     0.216 C
HETATM    6  C13 UNL     1      17.819  74.670  59.249  1.00  0.00     0.097 C
HETATM    7  C14 UNL     1      17.475  75.682  58.208  1.00  0.00     0.324 C
ENDROOT
BRANCH   1   8
HETATM    8  C5  UNL     1      16.479  77.676  57.588  1.00  0.00     0.268 C
BRANCH   8   9
HETATM    9  C4  UNL     1      15.135  78.351  57.514  1.00  0.00     0.264 C
BRANCH   9  10
HETATM   10  N1  UNL     1      14.980  78.840  56.156  1.00  0.00    -0.077 N
HETATM   11  C1  UNL     1      14.383  77.831  55.290  1.00  0.00     0.271 C
HETATM   12  C2  UNL     1      16.295  79.137  55.570  1.00  0.00     0.271 C
HETATM   13  C3  UNL     1      14.189  80.026  56.063  1.00  0.00     0.271 C
ENDBRANCH   9  10
ENDBRANCH   8   9
ENDBRANCH   1   8
BRANCH   7  14
HETATM   14  O1  UNL     1      18.620  76.362  57.737  1.00  0.00    -0.369 OA
ATOM     15  H1  UNL     1      19.169  75.710  57.316  1.00  0.00     0.212 HD
ENDBRANCH   7  14
BRANCH   5  16
HETATM   16  N3  UNL     1      18.350  74.278  61.575  1.00  0.00     0.012 N
HETATM   17  C10 UNL     1      18.663  72.931  61.155  1.00  0.00     0.297 C
HETATM   18  C11 UNL     1      19.114  74.610  62.753  1.00  0.00     0.278 C
HETATM   19  C12 UNL     1      18.012  73.938  63.582  1.00  0.00     0.172 C
HETATM   20  N4  UNL     1      17.204  74.226  62.417  1.00  0.00    -0.045 NA
ENDBRANCH   5  16
TORSDOF 5
ENDMDL