MODEL 2
REMARK VINA RESULT: -7.154455277      2.234      3.176
REMARK  6 active torsions:
REMARK  status: ('A' for Active; 'I' for Inactive)
REMARK    1  A    between atoms: C3_3  and  C4_4
REMARK    2  A    between atoms: C5_5  and  C6_6
REMARK    3  A    between atoms: C6_6  and  N1_7
REMARK       I    between atoms: N1_7  and  C7_9
REMARK    4  A    between atoms: C7_9  and  C8_11
REMARK    5  A    between atoms: C8_11  and  N2_12
REMARK    6  A    between atoms: C14_18  and  N3_19
ROOT
HETATM    1  C1  UNL     1      20.096  73.595  53.133  1.00  0.00     0.113 C
HETATM    2  C2  UNL     1      19.711  74.653  54.079  1.00  0.00    -0.097 C
HETATM    3  C3  UNL     1      19.378  75.513  54.863  1.00  0.00    -0.015 C
ENDROOT
BRANCH   3   4
HETATM    4  C4  UNL     1      18.965  76.512  55.787  1.00  0.00    -0.013 C
HETATM    5  C5  UNL     1      18.601  77.351  56.584  1.00  0.00    -0.073 C
BRANCH   5   6
HETATM    6  C6  UNL     1      18.152  78.346  57.562  1.00  0.00     0.218 C
BRANCH   6   7
HETATM    7  N1  UNL     1      18.311  77.765  58.881  1.00  0.00    -0.349 N
HETATM    8  C7  UNL     1      17.204  77.204  59.590  1.00  0.00     0.244 C
HETATM    9  O1  UNL     1      16.081  77.235  59.017  1.00  0.00    -0.272 OA
ATOM     10  H1  UNL     1      19.235  77.757  59.314  1.00  0.00     0.163 HD
BRANCH   8  11
HETATM   11  C8  UNL     1      17.418  76.629  60.921  1.00  0.00     0.341 C
BRANCH  11  12
HETATM   12  N2  UNL     1      17.578  75.195  60.953  1.00  0.00    -0.041 N
HETATM   13  C9  UNL     1      16.333  74.493  60.969  1.00  0.00     0.275 C
HETATM   14  C10 UNL     1      18.326  74.817  59.764  1.00  0.00     0.240 C
HETATM   15  C11 UNL     1      18.492  73.319  59.662  1.00  0.00     0.028 C
HETATM   16  C12 UNL     1      18.935  72.696  60.943  1.00  0.00     0.005 C
HETATM   17  C13 UNL     1      19.328  73.742  61.928  1.00  0.00     0.056 C
HETATM   18  C14 UNL     1      18.347  74.840  62.139  1.00  0.00     0.302 C
BRANCH  18  19
HETATM   19  N3  UNL     1      17.449  74.609  63.220  1.00  0.00    -0.312 N
HETATM   20  N4  UNL     1      17.691  73.857  64.177  1.00  0.00    -0.347 N
ATOM     21  H42 UNL     1      18.594  73.382  64.175  1.00  0.00     0.176 HD
ATOM     22  H41 UNL     1      17.048  73.691  64.951  1.00  0.00     0.176 HD
ATOM     23  H3  UNL     1      16.550  75.091  63.206  1.00  0.00     0.182 HD
ENDBRANCH  18  19
ENDBRANCH  11  12
ENDBRANCH   8  11
ENDBRANCH   6   7
ENDBRANCH   5   6
ENDBRANCH   3   4
TORSDOF 6
ENDMDL