MODEL 4
REMARK VINA RESULT: -7.608582344      2.963      5.624
REMARK  4 active torsions:
REMARK  status: ('A' for Active; 'I' for Inactive)
REMARK       I    between atoms: N3_4  and  C2_6
REMARK    1  A    between atoms: C2_6  and  C3_8
REMARK    2  A    between atoms: C3_8  and  N4_9
REMARK    3  A    between atoms: C7_13  and  C8_14
REMARK    4  A    between atoms: C8_14  and  N5_15
ROOT
HETATM    1  N4  UNL     1      17.749  73.427  60.234  1.00  0.00    -0.357 N
HETATM    2  C4  UNL     1      18.509  72.930  61.237  1.00  0.00     0.091 A
HETATM    3  C5  UNL     1      18.999  73.828  62.151  1.00  0.00     0.018 A
HETATM    4  C6  UNL     1      18.732  75.179  62.059  1.00  0.00     0.011 A
HETATM    5  C7  UNL     1      17.949  75.677  61.024  1.00  0.00    -0.024 A
HETATM    6  C14 UNL     1      17.475  74.742  60.125  1.00  0.00     0.099 A
ENDROOT
BRANCH   1   7
HETATM    7  C3  UNL     1      17.210  72.535  59.248  1.00  0.00     0.230 C
BRANCH   7   8
HETATM    8  C2  UNL     1      17.254  73.045  57.884  1.00  0.00     0.241 C
HETATM    9  N3  UNL     1      18.453  72.970  57.140  1.00  0.00    -0.302 N
HETATM   10  C1  UNL     1      18.825  71.825  56.674  1.00  0.00     0.203 C
ATOM     11  H3  UNL     1      19.014  73.806  56.974  1.00  0.00     0.171 HD
HETATM   12  N1  UNL     1      18.084  70.630  56.873  1.00  0.00    -0.066 NA
HETATM   13  N2  UNL     1      20.032  71.791  55.934  1.00  0.00    -0.066 NA
HETATM   14  O1  UNL     1      16.252  73.554  57.344  1.00  0.00    -0.271 OA
ENDBRANCH   7   8
ENDBRANCH   1   7
BRANCH   5  15
HETATM   15  C8  UNL     1      17.653  77.118  60.910  1.00  0.00     0.167 C
BRANCH  15  16
HETATM   16  N5  UNL     1      17.474  77.544  59.537  1.00  0.00    -0.362 N
HETATM   17  C9  UNL     1      16.226  77.625  59.067  1.00  0.00     0.090 A
HETATM   18  C10 UNL     1      15.948  78.020  57.776  1.00  0.00     0.017 A
HETATM   19  C11 UNL     1      17.021  78.336  56.970  1.00  0.00     0.003 A
HETATM   20  C12 UNL     1      18.303  78.252  57.459  1.00  0.00     0.017 A
HETATM   21  C13 UNL     1      18.502  77.851  58.754  1.00  0.00     0.090 A
ENDBRANCH  15  16
ENDBRANCH   5  15
TORSDOF 4
ENDMDL