MODEL 5
REMARK VINA RESULT: -5.732814215      1.550      3.791
REMARK  7 active torsions:
REMARK  status: ('A' for Active; 'I' for Inactive)
REMARK    1  A    between atoms: C3_3  and  C4_4
REMARK    2  A    between atoms: C4_4  and  N1_5
REMARK    3  A    between atoms: N1_5  and  C5_6
REMARK    4  A    between atoms: C5_6  and  C6_7
REMARK    5  A    between atoms: C6_7  and  N2_9
REMARK    6  A    between atoms: N2_9  and  C8_11
REMARK    7  A    between atoms: C8_11  and  N3_13
ROOT
HETATM    1  C1  UNL     1      19.726  72.086  60.101  1.00  0.00     0.112 C
HETATM    2  C2  UNL     1      18.770  72.867  59.314  1.00  0.00    -0.109 C
HETATM    3  C3  UNL     1      17.985  73.536  58.654  1.00  0.00    -0.079 C
ENDROOT
BRANCH   3   4
HETATM    4  C4  UNL     1      17.077  74.342  57.870  1.00  0.00     0.336 C
BRANCH   4   5
HETATM    5  N1  UNL     1      16.824  75.638  58.503  1.00  0.00    -0.032 N
HETATM    6  C10 UNL     1      15.974  76.469  57.726  1.00  0.00     0.272 C
HETATM    7  C11 UNL     1      16.395  76.454  56.274  1.00  0.00     0.265 C
HETATM    8  N4  UNL     1      17.679  77.064  56.163  1.00  0.00    -0.071 N
HETATM    9  C12 UNL     1      17.481  78.523  56.226  1.00  0.00     0.272 C
HETATM   10  C13 UNL     1      18.223  76.840  54.821  1.00  0.00     0.272 C
HETATM   11  C14 UNL     1      18.641  76.619  57.121  1.00  0.00     0.265 C
HETATM   12  C15 UNL     1      18.151  76.278  58.458  1.00  0.00     0.272 C
BRANCH   5  13
HETATM   13  C5  UNL     1      16.498  75.537  59.898  1.00  0.00     0.227 C
BRANCH  13  14
HETATM   14  C6  UNL     1      17.234  76.354  60.838  1.00  0.00     0.026 C
HETATM   15  C7  UNL     1      17.777  77.719  60.551  1.00  0.00     0.069 C
BRANCH  14  16
HETATM   16  N2  UNL     1      17.446  75.944  62.010  1.00  0.00    -0.366 N
ATOM     17  H2  UNL     1      17.289  76.601  62.773  1.00  0.00     0.161 HD
BRANCH  16  18
HETATM   18  C8  UNL     1      17.890  74.629  62.355  1.00  0.00     0.277 C
HETATM   19  C9  UNL     1      19.359  74.647  62.679  1.00  0.00     0.063 C
BRANCH  18  20
HETATM   20  N3  UNL     1      17.218  74.166  63.576  1.00  0.00    -0.059 N
ATOM     21  H33 UNL     1      16.225  74.399  63.575  1.00  0.00     0.276 HD
ATOM     22  H32 UNL     1      17.135  73.150  63.602  1.00  0.00     0.276 HD
ATOM     23  H31 UNL     1      17.693  74.528  64.403  1.00  0.00     0.276 HD
ENDBRANCH  18  20
ENDBRANCH  16  18
ENDBRANCH  14  16
ENDBRANCH  13  14
ENDBRANCH   5  13
ENDBRANCH   4   5
ENDBRANCH   3   4
TORSDOF 7
ENDMDL