MODEL 4
REMARK VINA RESULT: -6.433806541      2.086      4.106
REMARK  4 active torsions:
REMARK  status: ('A' for Active; 'I' for Inactive)
REMARK    1  A    between atoms: N2_10  and  C9_12
REMARK    2  A    between atoms: C9_12  and  N3_14
REMARK    3  A    between atoms: C9_12  and  C11_18
REMARK    4  A    between atoms: C11_18  and  N4_19
ROOT
HETATM    1  C1  UNL     1      14.284  76.896  57.446  1.00  0.00     0.012 C
HETATM    2  C2  UNL     1      15.468  77.448  58.187  1.00  0.00     0.017 C
HETATM    3  C3  UNL     1      16.614  77.823  57.297  1.00  0.00     0.242 C
HETATM    4  N1  UNL     1      17.817  77.131  57.688  1.00  0.00    -0.066 N
HETATM    5  C4  UNL     1      18.892  77.547  56.821  1.00  0.00     0.272 C
HETATM    6  C5  UNL     1      18.157  77.491  59.039  1.00  0.00     0.238 C
HETATM    7  C6  UNL     1      17.019  77.332  60.024  1.00  0.00     0.039 C
HETATM    8  C7  UNL     1      15.941  76.509  59.292  1.00  0.00     0.040 C
HETATM    9  C8  UNL     1      16.708  75.359  58.719  1.00  0.00     0.015 C
HETATM   10  N2  UNL     1      16.602  74.230  59.228  1.00  0.00    -0.362 N
ATOM     11  H2  UNL     1      15.974  74.174  60.030  1.00  0.00     0.161 HD
HETATM   12  C15 UNL     1      17.541  75.698  57.563  1.00  0.00     0.289 C
ENDROOT
BRANCH  10  13
HETATM   13  C9  UNL     1      17.229  72.993  58.859  1.00  0.00     0.216 C
HETATM   14  C10 UNL     1      18.547  72.881  59.580  1.00  0.00     0.072 C
BRANCH  13  15
HETATM   15  N3  UNL     1      16.388  71.923  59.433  1.00  0.00    -0.051 N
ATOM     16  H33 UNL     1      15.436  71.913  59.067  1.00  0.00     0.277 HD
ATOM     17  H32 UNL     1      16.650  70.988  59.121  1.00  0.00     0.277 HD
ATOM     18  H31 UNL     1      16.434  72.042  60.445  1.00  0.00     0.277 HD
ENDBRANCH  13  15
BRANCH  13  19
HETATM   19  C11 UNL     1      17.323  72.780  57.388  1.00  0.00     0.297 C
BRANCH  19  20
HETATM   20  N4  UNL     1      16.164  72.232  56.749  1.00  0.00    -0.064 N
HETATM   21  C12 UNL     1      15.973  70.792  56.678  1.00  0.00     0.272 C
HETATM   22  C13 UNL     1      15.889  72.881  55.422  1.00  0.00     0.265 A
HETATM   23  C14 UNL     1      14.966  73.000  56.539  1.00  0.00     0.265 A
ENDBRANCH  19  20
ENDBRANCH  13  19
ENDBRANCH  10  13
TORSDOF 4
ENDMDL