MODEL 3
REMARK VINA RESULT: -7.289721282      3.790      6.264
REMARK  7 active torsions:
REMARK  status: ('A' for Active; 'I' for Inactive)
REMARK    1  A    between atoms: C2_2  and  C3_3
REMARK    2  A    between atoms: C4_6  and  C5_7
REMARK    3  A    between atoms: C5_7  and  C6_8
REMARK    4  A    between atoms: C6_8  and  N2_9
REMARK    5  A    between atoms: C10_13  and  C11_14
REMARK    6  A    between atoms: C14_18  and  N3_19
REMARK    7  A    between atoms: N3_19  and  N4_20
ROOT
HETATM    1  C3  UNL     1      17.137  73.215  59.691  1.00  0.00     0.151 A
HETATM    2  N1  UNL     1      17.694  74.426  59.636  1.00  0.00    -0.332 N
ATOM      3  H1  UNL     1      17.987  74.899  58.782  1.00  0.00     0.168 HD
HETATM    4  C4  UNL     1      17.813  74.935  60.887  1.00  0.00     0.093 A
HETATM    5  C14 UNL     1      17.299  73.982  61.737  1.00  0.00     0.231 A
HETATM    6  N5  UNL     1      16.898  72.946  60.953  1.00  0.00    -0.307 N
ATOM      7  H5  UNL     1      16.472  72.084  61.295  1.00  0.00     0.170 HD
ENDROOT
BRANCH   4   8
HETATM    8  C5  UNL     1      18.326  76.113  61.158  1.00  0.00     0.028 C
BRANCH   8   9
HETATM    9  C6  UNL     1      17.515  77.324  60.920  1.00  0.00     0.157 C
BRANCH   9  10
HETATM   10  N2  UNL     1      17.403  77.655  59.523  1.00  0.00    -0.362 N
HETATM   11  C7  UNL     1      18.473  77.860  58.779  1.00  0.00     0.090 A
HETATM   12  C8  UNL     1      18.408  78.181  57.432  1.00  0.00     0.018 A
HETATM   13  C9  UNL     1      17.159  78.286  56.857  1.00  0.00     0.018 A
HETATM   14  C10 UNL     1      16.044  78.071  57.634  1.00  0.00     0.025 A
HETATM   15  C13 UNL     1      16.182  77.754  58.977  1.00  0.00     0.106 A
BRANCH  14  16
HETATM   16  C11 UNL     1      14.699  78.167  57.087  1.00  0.00     0.157 C
HETATM   17  C12 UNL     1      14.117  79.494  56.746  1.00  0.00     0.097 C
HETATM   18  O1  UNL     1      13.995  77.151  56.887  1.00  0.00    -0.293 OA
ENDBRANCH  14  16
ENDBRANCH   9  10
ENDBRANCH   8   9
ENDBRANCH   4   8
BRANCH   5  19
HETATM   19  N3  UNL     1      17.235  74.084  62.967  1.00  0.00    -0.312 NA
BRANCH  19  20
HETATM   20  N4  UNL     1      17.420  74.223  64.176  1.00  0.00    -0.278 N
ATOM     21  H42 UNL     1      18.429  74.178  64.035  1.00  0.00     0.191 HD
ATOM     22  H41 UNL     1      17.364  74.346  65.188  1.00  0.00     0.191 HD
ENDBRANCH  19  20
ENDBRANCH   5  19
BRANCH   1  23
HETATM   23  C2  UNL     1      16.831  72.359  58.767  1.00  0.00    -0.113 C
HETATM   24  C1  UNL     1      16.425  71.812  57.658  1.00  0.00     0.106 C
ENDBRANCH   1  23
TORSDOF 7
ENDMDL