MODEL 5
REMARK VINA RESULT: -6.768761464      2.737      4.234
REMARK  6 active torsions:
REMARK  status: ('A' for Active; 'I' for Inactive)
REMARK    1  A    between atoms: N2_7  and  C6_8
REMARK    2  A    between atoms: C6_8  and  C7_9
REMARK    3  A    between atoms: C8_10  and  C9_11
REMARK    4  A    between atoms: C9_11  and  C10_12
REMARK    5  A    between atoms: C10_12  and  C11_13
REMARK    6  A    between atoms: C11_13  and  N3_14
ROOT
HETATM    1  C7  UNL     1      17.885  78.305  57.099  1.00  0.00    -0.086 C
HETATM    2  C8  UNL     1      18.127  78.036  58.251  1.00  0.00    -0.105 C
ENDROOT
BRANCH   2   3
HETATM    3  C9  UNL     1      18.416  77.685  59.642  1.00  0.00     0.095 C
BRANCH   3   4
HETATM    4  C10 UNL     1      17.341  76.739  60.185  1.00  0.00     0.036 C
BRANCH   4   5
HETATM    5  C11 UNL     1      17.827  76.043  61.436  1.00  0.00     0.174 C
BRANCH   5   6
HETATM    6  N3  UNL     1      17.080  74.814  61.604  1.00  0.00    -0.201 N
HETATM    7  N4  UNL     1      16.046  74.266  60.968  1.00  0.00    -0.209 N
HETATM    8  N5  UNL     1      16.098  73.247  61.787  1.00  0.00    -0.209 N
ATOM      9  H4  UNL     1      15.461  74.530  60.176  1.00  0.00     0.211 HD
HETATM   10  N6  UNL     1      17.132  73.787  62.426  1.00  0.00    -0.205 N
ATOM     11  H5  UNL     1      15.562  72.385  61.893  1.00  0.00     0.211 HD
HETATM   12  C12 UNL     1      17.942  73.379  63.555  1.00  0.00     0.203 C
ENDBRANCH   5   6
ENDBRANCH   4   5
ENDBRANCH   3   4
ENDBRANCH   2   3
BRANCH   1  13
HETATM   13  C6  UNL     1      17.578  78.611  55.688  1.00  0.00     0.222 C
BRANCH  13  14
HETATM   14  N2  UNL     1      16.197  78.993  55.631  1.00  0.00    -0.341 N
HETATM   15  C5  UNL     1      15.235  78.126  55.916  1.00  0.00     0.185 A
HETATM   16  N1  UNL     1      13.921  78.424  55.880  1.00  0.00    -0.357 N
HETATM   17  C3  UNL     1      13.599  79.685  55.534  1.00  0.00     0.099 A
HETATM   18  C4  UNL     1      12.924  77.445  56.197  1.00  0.00     0.156 C
HETATM   19  C2  UNL     1      14.566  80.619  55.230  1.00  0.00    -0.031 A
HETATM   20  C1  UNL     1      14.253  82.020  54.843  1.00  0.00     0.051 C
HETATM   21  C13 UNL     1      15.897  80.256  55.283  1.00  0.00     0.100 A
ENDBRANCH  13  14
ENDBRANCH   1  13
TORSDOF 6
ENDMDL