MODEL 2
REMARK VINA RESULT: -6.242973011      1.968      3.427
REMARK  7 active torsions:
REMARK  status: ('A' for Active; 'I' for Inactive)
REMARK    1  A    between atoms: C2_2  and  C3_3
REMARK    2  A    between atoms: N2_6  and  C4_7
REMARK    3  A    between atoms: C4_7  and  C5_8
REMARK    4  A    between atoms: C6_9  and  C7_10
REMARK    5  A    between atoms: C7_10  and  C8_11
REMARK    6  A    between atoms: C8_11  and  C9_12
REMARK    7  A    between atoms: C9_12  and  C12_15
ROOT
HETATM    1  C4  UNL     1      15.405  78.381  57.571  1.00  0.00     0.244 C
ENDROOT
BRANCH   1   2
HETATM    2  N2  UNL     1      14.230  77.668  57.119  1.00  0.00    -0.275 N
HETATM    3  N1  UNL     1      13.782  76.482  57.486  1.00  0.00    -0.285 N
HETATM    4  C3  UNL     1      12.652  76.176  56.826  1.00  0.00     0.098 A
ATOM      5  H1  UNL     1      14.231  75.881  58.176  1.00  0.00     0.188 HD
HETATM    6  N4  UNL     1      12.378  77.208  56.010  1.00  0.00    -0.335 N
HETATM    7  C13 UNL     1      13.366  78.128  56.202  1.00  0.00     0.205 A
HETATM    8  C14 UNL     1      11.255  77.330  55.102  1.00  0.00     0.158 C
BRANCH   4   9
HETATM    9  C2  UNL     1      11.810  74.947  56.926  1.00  0.00     0.073 C
HETATM   10  C1  UNL     1      10.789  75.038  58.021  1.00  0.00     0.013 C
ENDBRANCH   4   9
ENDBRANCH   1   2
BRANCH   1  11
HETATM   11  C5  UNL     1      16.093  77.482  58.525  1.00  0.00    -0.071 C
HETATM   12  C6  UNL     1      16.653  76.758  59.313  1.00  0.00    -0.013 C
BRANCH  12  13
HETATM   13  C7  UNL     1      17.302  75.891  60.224  1.00  0.00    -0.014 C
BRANCH  13  14
HETATM   14  C8  UNL     1      17.864  75.130  60.998  1.00  0.00    -0.074 C
BRANCH  14  15
HETATM   15  C9  UNL     1      18.532  74.206  61.914  1.00  0.00     0.095 C
HETATM   16  C10 UNL     1      19.438  73.318  61.090  1.00  0.00     0.039 C
HETATM   17  C11 UNL     1      19.398  74.972  62.904  1.00  0.00     0.039 C
BRANCH  15  18
HETATM   18  C12 UNL     1      17.537  73.445  62.671  1.00  0.00     0.251 C
HETATM   19  N3  UNL     1      16.173  73.436  62.290  1.00  0.00    -0.061 NA
HETATM   20  O1  UNL     1      17.891  72.788  63.677  1.00  0.00    -0.275 OA
ENDBRANCH  15  18
ENDBRANCH  14  15
ENDBRANCH  13  14
ENDBRANCH  12  13
ENDBRANCH   1  11
TORSDOF 7
ENDMDL