MODEL 5
REMARK VINA RESULT: -6.195762356      2.933      6.326
REMARK  4 active torsions:
REMARK  status: ('A' for Active; 'I' for Inactive)
REMARK    1  A    between atoms: C3_3  and  N1_4
REMARK    2  A    between atoms: N1_4  and  C4_5
REMARK    3  A    between atoms: C4_5  and  C5_6
REMARK    4  A    between atoms: C6_7  and  N2_8
REMARK       I    between atoms: N2_8  and  C7_10
ROOT
HETATM    1  C1  UNL     1      16.415  76.841  59.023  1.00  0.00     0.013 C
HETATM    2  C2  UNL     1      16.363  75.733  59.498  1.00  0.00    -0.089 C
HETATM    3  C3  UNL     1      16.287  74.376  60.092  1.00  0.00     0.332 C
ENDROOT
BRANCH   3   4
HETATM    4  N1  UNL     1      17.509  73.646  59.929  1.00  0.00    -0.031 N
HETATM    5  C8  UNL     1      17.303  72.277  60.326  1.00  0.00     0.205 C
HETATM    6  C9  UNL     1      18.726  71.778  60.126  1.00  0.00     0.041 C
HETATM    7  C12 UNL     1      17.229  72.398  61.848  1.00  0.00     0.089 C
HETATM    8  C10 UNL     1      19.320  72.728  61.181  1.00  0.00     0.027 C
HETATM    9  C11 UNL     1      18.632  71.968  62.343  1.00  0.00     0.021 C
HETATM   10  C14 UNL     1      18.505  73.974  60.971  1.00  0.00     0.266 C
HETATM   11  C13 UNL     1      17.520  73.841  62.085  1.00  0.00     0.164 C
HETATM   12  O2  UNL     1      17.154  74.653  62.845  1.00  0.00    -0.295 OA
BRANCH   4  13
HETATM   13  C4  UNL     1      18.022  73.877  58.639  1.00  0.00     0.335 C
BRANCH  13  14
HETATM   14  C5  UNL     1      17.340  73.099  57.589  1.00  0.00    -0.055 C
HETATM   15  C6  UNL     1      16.786  72.478  56.715  1.00  0.00     0.015 C
BRANCH  15  16
HETATM   16  N2  UNL     1      16.146  71.776  55.688  1.00  0.00    -0.270 N
HETATM   17  C7  UNL     1      15.357  70.624  55.919  1.00  0.00     0.340 C
HETATM   18  N3  UNL     1      14.713  69.920  54.880  1.00  0.00    -0.039 NA
HETATM   19  O1  UNL     1      15.227  70.214  57.093  1.00  0.00    -0.250 OA
ATOM     20  H2  UNL     1      16.252  72.111  54.730  1.00  0.00     0.180 HD
ENDBRANCH  15  16
ENDBRANCH  13  14
ENDBRANCH   4  13
ENDBRANCH   3   4
TORSDOF 4
ENDMDL