MODEL 3
REMARK VINA RESULT: -6.671366221      3.319      3.559
REMARK  2 active torsions:
REMARK  status: ('A' for Active; 'I' for Inactive)
REMARK    1  A    between atoms: C3_3  and  N1_4
REMARK       I    between atoms: N1_4  and  C4_6
REMARK       I    between atoms: C4_6  and  N2_8
REMARK    2  A    between atoms: N4_16  and  C9_17
ROOT
HETATM    1  C1  UNL     1      13.268  70.849  55.098  1.00  0.00     0.014 C
HETATM    2  C2  UNL     1      13.520  71.977  55.449  1.00  0.00    -0.098 C
HETATM    3  C3  UNL     1      13.846  73.340  55.865  1.00  0.00     0.217 C
ENDROOT
BRANCH   3   4
HETATM    4  N1  UNL     1      14.714  73.306  56.997  1.00  0.00    -0.333 N
HETATM    5  C4  UNL     1      15.370  74.486  57.470  1.00  0.00     0.319 C
HETATM    6  O1  UNL     1      15.157  75.561  56.856  1.00  0.00    -0.247 OA
HETATM    7  N2  UNL     1      16.228  74.487  58.578  1.00  0.00    -0.326 N
HETATM    8  C5  UNL     1      16.616  73.354  59.435  1.00  0.00     0.155 C
HETATM    9  C12 UNL     1      16.929  75.618  59.126  1.00  0.00     0.109 C
HETATM   10  C6  UNL     1      16.609  73.915  60.830  1.00  0.00     0.132 C
HETATM   11  C7  UNL     1      16.843  75.372  60.615  1.00  0.00     0.133 C
HETATM   12  N4  UNL     1      17.733  73.451  61.616  1.00  0.00    -0.315 N
HETATM   13  N3  UNL     1      18.087  75.716  61.243  1.00  0.00    -0.334 N
HETATM   14  C8  UNL     1      18.424  74.607  62.080  1.00  0.00     0.320 C
ATOM     15  H3  UNL     1      18.622  76.575  61.117  1.00  0.00     0.164 HD
HETATM   16  O2  UNL     1      19.218  74.690  63.069  1.00  0.00    -0.247 OA
HETATM   17  C13 UNL     1      16.376  76.946  58.727  1.00  0.00     0.034 C
ATOM     18  H1  UNL     1      14.870  72.421  57.479  1.00  0.00     0.165 HD
BRANCH  12  19
HETATM   19  C9  UNL     1      18.147  72.104  61.921  1.00  0.00     0.221 C
HETATM   20  C10 UNL     1      19.162  71.634  60.963  1.00  0.00    -0.098 C
HETATM   21  C11 UNL     1      20.007  71.240  60.191  1.00  0.00     0.014 C
ENDBRANCH  12  19
ENDBRANCH   3   4
TORSDOF 2
ENDMDL