MODEL 5
REMARK VINA RESULT: -6.835417649      1.610      2.546
REMARK  8 active torsions:
REMARK  status: ('A' for Active; 'I' for Inactive)
REMARK    1  A    between atoms: C2_2  and  C4_4
REMARK    2  A    between atoms: C5_5  and  C6_6
REMARK    3  A    between atoms: C7_7  and  C8_8
REMARK    4  A    between atoms: C9_9  and  C10_10
REMARK    5  A    between atoms: C11_11  and  C12_12
REMARK    6  A    between atoms: C13_13  and  C14_14
REMARK    7  A    between atoms: C14_14  and  N4_22
REMARK    8  A    between atoms: N1_15  and  N2_17
ROOT
HETATM    1  C12 UNL     1      16.332  74.763  59.644  1.00  0.00    -0.070 C
HETATM    2  C13 UNL     1      16.939  73.843  60.135  1.00  0.00    -0.024 C
ENDROOT
BRANCH   1   3
HETATM    3  C11 UNL     1      15.609  75.867  59.030  1.00  0.00     0.073 C
HETATM    4  C10 UNL     1      15.945  76.282  57.848  1.00  0.00     0.074 C
BRANCH   4   5
HETATM    5  C9  UNL     1      15.215  77.377  57.261  1.00  0.00    -0.064 C
HETATM    6  C8  UNL     1      14.614  78.290  56.751  1.00  0.00    -0.009 C
BRANCH   6   7
HETATM    7  C7  UNL     1      13.930  79.364  56.139  1.00  0.00    -0.001 C
HETATM    8  C6  UNL     1      13.323  80.276  55.614  1.00  0.00    -0.001 C
BRANCH   8   9
HETATM    9  C5  UNL     1      12.601  81.344  55.019  1.00  0.00    -0.014 C
HETATM   10  C4  UNL     1      11.974  82.241  54.508  1.00  0.00    -0.088 C
BRANCH  10  11
HETATM   11  C2  UNL     1      11.201  83.315  53.883  1.00  0.00     0.058 C
HETATM   12  C1  UNL     1       9.753  82.908  53.653  1.00  0.00     0.023 C
HETATM   13  C3  UNL     1      11.839  83.632  52.564  1.00  0.00     0.023 C
ENDBRANCH  10  11
ENDBRANCH   8   9
ENDBRANCH   6   7
ENDBRANCH   4   5
ENDBRANCH   1   3
BRANCH   2  14
HETATM   14  C14 UNL     1      17.667  72.743  60.696  1.00  0.00     0.175 C
HETATM   15  N1  UNL     1      17.646  72.541  61.960  1.00  0.00    -0.264 N
ATOM     16  H1  UNL     1      18.164  71.760  62.361  1.00  0.00     0.190 HD
BRANCH  15  17
HETATM   17  N2  UNL     1      16.915  73.386  62.782  1.00  0.00    -0.247 N
HETATM   18  N3  UNL     1      17.296  73.705  63.962  1.00  0.00    -0.331 N
ATOM     19  H32 UNL     1      18.177  73.312  64.297  1.00  0.00     0.178 HD
ATOM     20  H31 UNL     1      16.759  74.326  64.566  1.00  0.00     0.178 HD
ATOM     21  H2  UNL     1      16.037  73.770  62.431  1.00  0.00     0.207 HD
ENDBRANCH  15  17
BRANCH  14  22
HETATM   22  N4  UNL     1      18.432  71.845  59.899  1.00  0.00    -0.368 N
HETATM   23  C15 UNL     1      18.154  71.681  58.491  1.00  0.00     0.151 C
HETATM   24  C16 UNL     1      19.516  71.080  60.522  1.00  0.00     0.151 C
ENDBRANCH  14  22
ENDBRANCH   2  14
TORSDOF 8
ENDMDL