MODEL 2
REMARK VINA RESULT: -6.596075350      3.907      9.515
REMARK  7 active torsions:
REMARK  status: ('A' for Active; 'I' for Inactive)
REMARK    1  A    between atoms: C3_3  and  N1_4
REMARK    2  A    between atoms: C3_3  and  C4_8
REMARK    3  A    between atoms: N1_4  and  N2_5
REMARK       I    between atoms: C4_8  and  N3_10
REMARK       I    between atoms: N3_10  and  C5_12
REMARK       I    between atoms: C5_12  and  N4_14
REMARK    4  A    between atoms: N4_14  and  C6_16
REMARK    5  A    between atoms: C6_16  and  C7_17
REMARK    6  A    between atoms: C8_18  and  C9_19
REMARK    7  A    between atoms: C10_20  and  C11_21
ROOT
HETATM    1  C1  UNL     1      19.375  74.260  63.025  1.00  0.00     0.021 C
HETATM    2  C2  UNL     1      18.572  74.567  62.168  1.00  0.00    -0.037 C
HETATM    3  C3  UNL     1      17.619  74.900  61.155  1.00  0.00     0.250 C
ENDROOT
BRANCH   3   4
HETATM    4  N1  UNL     1      16.477  74.346  61.202  1.00  0.00    -0.318 NA
BRANCH   4   5
HETATM    5  N2  UNL     1      15.572  73.520  61.470  1.00  0.00    -0.279 N
ATOM      6  H22 UNL     1      15.277  73.957  62.343  1.00  0.00     0.191 HD
ATOM      7  H21 UNL     1      14.950  72.716  61.394  1.00  0.00     0.191 HD
ENDBRANCH   4   5
ENDBRANCH   3   4
BRANCH   3   8
HETATM    8  C4  UNL     1      17.913  75.824  60.137  1.00  0.00     0.301 C
HETATM    9  O1  UNL     1      18.380  76.879  60.170  1.00  0.00    -0.264 OA
HETATM   10  N3  UNL     1      17.477  75.212  58.580  1.00  0.00    -0.272 N
HETATM   11  C5  UNL     1      17.893  76.300  57.879  1.00  0.00     0.323 C
ATOM     12  H3  UNL     1      17.052  74.332  58.287  1.00  0.00     0.174 HD
HETATM   13  O2  UNL     1      18.442  77.352  58.273  1.00  0.00    -0.247 OA
HETATM   14  N4  UNL     1      17.677  76.279  56.403  1.00  0.00    -0.332 N
ATOM     15  H4  UNL     1      17.241  75.461  55.975  1.00  0.00     0.165 HD
BRANCH  14  16
HETATM   16  C6  UNL     1      18.063  77.372  55.576  1.00  0.00     0.219 C
BRANCH  16  17
HETATM   17  C7  UNL     1      16.936  78.254  55.219  1.00  0.00    -0.073 C
HETATM   18  C8  UNL     1      16.029  78.990  54.941  1.00  0.00    -0.013 C
BRANCH  18  19
HETATM   19  C9  UNL     1      14.971  79.855  54.594  1.00  0.00    -0.015 C
HETATM   20  C10 UNL     1      14.073  80.594  54.275  1.00  0.00    -0.088 C
BRANCH  20  21
HETATM   21  C11 UNL     1      12.986  81.526  53.881  1.00  0.00     0.058 C
HETATM   22  C12 UNL     1      13.604  82.746  53.271  1.00  0.00     0.023 C
HETATM   23  C13 UNL     1      12.132  81.892  55.094  1.00  0.00     0.023 C
ENDBRANCH  20  21
ENDBRANCH  18  19
ENDBRANCH  16  17
ENDBRANCH  14  16
ENDBRANCH   3   8
TORSDOF 7
ENDMDL