MODEL 2
REMARK VINA RESULT: -6.477507956      0.757      2.106
REMARK  7 active torsions:
REMARK  status: ('A' for Active; 'I' for Inactive)
REMARK    1  A    between atoms: N1_3  and  C3_4
REMARK    2  A    between atoms: N1_3  and  C14_18
REMARK    3  A    between atoms: C3_4  and  C4_5
REMARK    4  A    between atoms: C5_6  and  N2_7
REMARK       I    between atoms: N2_7  and  C6_9
REMARK    5  A    between atoms: C6_9  and  C7_11
REMARK    6  A    between atoms: C8_12  and  C9_13
REMARK    7  A    between atoms: C10_14  and  C11_15
ROOT
HETATM    1  C1  UNL     1      19.197  74.380  63.005  1.00  0.00     0.116 C
HETATM    2  C2  UNL     1      18.684  73.518  62.310  1.00  0.00    -0.101 C
HETATM    3  N1  UNL     1      18.093  72.532  61.505  1.00  0.00    -0.239 NA
ENDROOT
BRANCH   3   4
HETATM    4  C3  UNL     1      16.678  72.732  61.467  1.00  0.00     0.200 C
BRANCH   4   5
HETATM    5  C4  UNL     1      16.383  73.913  60.677  1.00  0.00    -0.068 C
HETATM    6  C5  UNL     1      16.117  74.904  60.024  1.00  0.00     0.015 C
BRANCH   6   7
HETATM    7  N2  UNL     1      15.786  76.038  59.270  1.00  0.00    -0.275 N
HETATM    8  C6  UNL     1      14.912  75.992  58.159  1.00  0.00     0.308 C
HETATM    9  O1  UNL     1      14.420  74.887  57.843  1.00  0.00    -0.257 OA
ATOM     10  H2  UNL     1      16.193  76.935  59.534  1.00  0.00     0.180 HD
BRANCH   8  11
HETATM   11  C7  UNL     1      14.631  77.197  57.448  1.00  0.00     0.009 C
HETATM   12  C8  UNL     1      14.395  78.213  56.825  1.00  0.00    -0.005 C
BRANCH  12  13
HETATM   13  C9  UNL     1      14.111  79.382  56.083  1.00  0.00    -0.014 C
HETATM   14  C10 UNL     1      13.886  80.394  55.449  1.00  0.00    -0.088 C
BRANCH  14  15
HETATM   15  C11 UNL     1      13.640  81.618  54.680  1.00  0.00     0.058 C
HETATM   16  C12 UNL     1      12.194  81.997  54.864  1.00  0.00     0.023 C
HETATM   17  C13 UNL     1      13.855  81.288  53.218  1.00  0.00     0.023 C
ENDBRANCH  14  15
ENDBRANCH  12  13
ENDBRANCH   8  11
ENDBRANCH   6   7
ENDBRANCH   4   5
ENDBRANCH   3   4
BRANCH   3  18
HETATM   18  C14 UNL     1      18.706  72.567  60.191  1.00  0.00     0.072 A
HETATM   19  C15 UNL     1      19.729  71.435  59.968  1.00  0.00     0.022 A
HETATM   20  C16 UNL     1      18.463  71.480  59.214  1.00  0.00     0.022 A
ENDBRANCH   3  18
TORSDOF 7
ENDMDL