MODEL 2
REMARK VINA RESULT: -5.303917910      3.831      6.616
REMARK  6 active torsions:
REMARK  status: ('A' for Active; 'I' for Inactive)
REMARK    1  A    between atoms: N1_2  and  C3_4
REMARK    2  A    between atoms: C3_4  and  N2_6
REMARK       I    between atoms: C4_8  and  N4_10
REMARK    3  A    between atoms: N4_10  and  C5_12
REMARK    4  A    between atoms: C5_12  and  C6_13
REMARK    5  A    between atoms: C7_14  and  C8_15
REMARK    6  A    between atoms: C8_15  and  N5_16
ROOT
HETATM    1  N2  UNL     1      15.321  69.393  55.451  1.00  0.00    -0.307 N
ATOM      2  H2  UNL     1      15.089  68.498  55.020  1.00  0.00     0.171 HD
HETATM    3  C4  UNL     1      16.065  69.249  56.433  1.00  0.00     0.191 C
HETATM    4  N3  UNL     1      16.420  67.845  56.725  1.00  0.00    -0.063 NA
HETATM    5  N4  UNL     1      16.617  70.207  57.326  1.00  0.00    -0.354 N
ATOM      6  H4  UNL     1      16.031  70.556  58.084  1.00  0.00     0.163 HD
ENDROOT
BRANCH   5   7
HETATM    7  C5  UNL     1      17.963  70.712  57.215  1.00  0.00     0.216 C
BRANCH   7   8
HETATM    8  C6  UNL     1      18.445  71.322  58.469  1.00  0.00    -0.085 C
HETATM    9  C7  UNL     1      18.854  71.793  59.510  1.00  0.00    -0.077 C
BRANCH   9  10
HETATM   10  C8  UNL     1      19.351  72.333  60.802  1.00  0.00     0.329 C
BRANCH  10  11
HETATM   11  N5  UNL     1      18.396  73.251  61.329  1.00  0.00    -0.069 N
HETATM   12  C9  UNL     1      17.148  72.656  61.750  1.00  0.00     0.272 C
HETATM   13  C10 UNL     1      18.108  74.387  60.474  1.00  0.00     0.272 C
HETATM   14  C11 UNL     1      19.014  73.833  62.535  1.00  0.00     0.272 C
ENDBRANCH  10  11
ENDBRANCH   9  10
ENDBRANCH   7   8
ENDBRANCH   5   7
BRANCH   1  15
HETATM   15  C3  UNL     1      14.723  70.452  54.786  1.00  0.00     0.175 C
HETATM   16  S1  UNL     1      15.584  71.332  53.717  1.00  0.00    -0.041 SA
BRANCH  15  17
HETATM   17  N1  UNL     1      13.332  70.797  55.027  1.00  0.00    -0.367 N
HETATM   18  C1  UNL     1      12.891  71.379  56.265  1.00  0.00     0.151 C
HETATM   19  C2  UNL     1      12.386  70.536  53.978  1.00  0.00     0.151 C
ENDBRANCH  15  17
ENDBRANCH   1  15
TORSDOF 6
ENDMDL