MODEL 4
REMARK VINA RESULT: -6.893349254      3.338      4.160
REMARK  2 active torsions:
REMARK  status: ('A' for Active; 'I' for Inactive)
REMARK       I    between atoms: C2_2  and  N1_4
REMARK       I    between atoms: C3_6  and  N2_7
REMARK       I    between atoms: C3_6  and  N4_19
REMARK    1  A    between atoms: N3_14  and  O2_15
REMARK    2  A    between atoms: N4_19  and  N5_21
ROOT
HETATM    1  C1  UNL     1      18.803  74.711  61.983  1.00  0.00     0.118 C
HETATM    2  C2  UNL     1      18.170  74.735  60.649  1.00  0.00     0.232 C
HETATM    3  O1  UNL     1      17.507  75.737  60.303  1.00  0.00    -0.273 OA
HETATM    4  N1  UNL     1      18.314  73.649  59.787  1.00  0.00    -0.159 N
ATOM      5  H1  UNL     1      18.717  73.840  58.869  1.00  0.00     0.187 HD
HETATM    6  C3  UNL     1      17.989  72.439  60.035  1.00  0.00     0.700 C
HETATM    7  N2  UNL     1      18.198  71.449  59.051  1.00  0.00    -0.196 N
ATOM      8  H2  UNL     1      18.970  70.797  59.196  1.00  0.00     0.184 HD
HETATM    9  C4  UNL     1      17.501  71.306  57.997  1.00  0.00     0.026 C
HETATM   10  C5  UNL     1      16.351  72.099  57.555  1.00  0.00     0.081 C
HETATM   11  C6  UNL     1      15.768  71.344  56.408  1.00  0.00     0.037 C
HETATM   12  C7  UNL     1      15.828  72.128  55.099  1.00  0.00     0.034 C
HETATM   13  C8  UNL     1      14.304  71.048  56.749  1.00  0.00     0.034 C
HETATM   14  N3  UNL     1      16.514  70.138  56.218  1.00  0.00    -0.181 NA
HETATM   15  C9  UNL     1      17.744  70.254  56.974  1.00  0.00     0.129 C
HETATM   16  C10 UNL     1      18.833  70.704  56.021  1.00  0.00     0.035 C
HETATM   17  N4  UNL     1      17.424  72.108  61.284  1.00  0.00    -0.118 N
ATOM     18  H4  UNL     1      18.045  71.856  62.053  1.00  0.00     0.207 HD
ENDROOT
BRANCH  17  19
HETATM   19  N5  UNL     1      16.037  72.112  61.507  1.00  0.00    -0.235 N
HETATM   20  N6  UNL     1      15.407  73.137  61.910  1.00  0.00    -0.330 N
ATOM     21  H62 UNL     1      15.946  73.987  62.075  1.00  0.00     0.178 HD
ATOM     22  H61 UNL     1      14.400  73.140  62.072  1.00  0.00     0.178 HD
ATOM     23  H5  UNL     1      15.513  71.253  61.336  1.00  0.00     0.208 HD
ENDBRANCH  17  19
BRANCH  14  24
HETATM   24  O2  UNL     1      15.819  69.028  56.560  1.00  0.00    -0.312 OA
ATOM     25  H2  UNL     1      16.363  68.357  56.954  1.00  0.00     0.237 HD
ENDBRANCH  14  24
TORSDOF 2
ENDMDL