MODEL 3
REMARK VINA RESULT: -8.121872764      3.038      6.100
REMARK  3 active torsions:
REMARK  status: ('A' for Active; 'I' for Inactive)
REMARK    1  A    between atoms: C8_8  and  C9_9
REMARK       I    between atoms: C9_9  and  N1_11
REMARK    2  A    between atoms: C10_13  and  N3_16
REMARK    3  A    between atoms: N3_16  and  N4_18
ROOT
HETATM    1  C1  UNL     1      17.453  71.352  63.909  1.00  0.00     0.013 C
HETATM    2  C2  UNL     1      18.057  72.094  63.175  1.00  0.00    -0.107 C
HETATM    3  C3  UNL     1      18.798  73.026  62.291  1.00  0.00     0.028 A
HETATM    4  C4  UNL     1      19.537  72.364  61.163  1.00  0.00     0.023 C
HETATM    5  C5  UNL     1      18.487  72.029  60.102  1.00  0.00     0.007 C
HETATM    6  C6  UNL     1      17.836  73.262  59.533  1.00  0.00    -0.005 C
HETATM    7  C7  UNL     1      18.178  73.381  58.049  1.00  0.00     0.011 C
HETATM    8  C8  UNL     1      18.319  74.456  60.329  1.00  0.00     0.087 C
HETATM    9  C12 UNL     1      18.006  74.222  61.781  1.00  0.00     0.021 A
HETATM   10  C13 UNL     1      19.084  74.364  62.796  1.00  0.00     0.030 A
ENDROOT
BRANCH   8  11
HETATM   11  C9  UNL     1      17.580  75.657  59.869  1.00  0.00     0.228 C
HETATM   12  O1  UNL     1      18.203  76.759  59.844  1.00  0.00    -0.273 OA
HETATM   13  N1  UNL     1      16.226  75.569  59.472  1.00  0.00    -0.303 N
HETATM   14  C10 UNL     1      15.826  76.183  58.432  1.00  0.00     0.206 C
ATOM     15  H1  UNL     1      15.570  75.014  60.020  1.00  0.00     0.171 HD
HETATM   16  C11 UNL     1      16.742  76.957  57.670  1.00  0.00     0.138 C
HETATM   17  N2  UNL     1      17.479  77.596  57.032  1.00  0.00    -0.188 NA
BRANCH  14  18
HETATM   18  N3  UNL     1      14.443  76.065  58.068  1.00  0.00    -0.262 N
ATOM     19  H3  UNL     1      13.939  76.850  57.656  1.00  0.00     0.190 HD
BRANCH  18  20
HETATM   20  N4  UNL     1      13.813  74.849  58.295  1.00  0.00    -0.247 N
HETATM   21  N5  UNL     1      12.611  74.709  57.928  1.00  0.00    -0.331 N
ATOM     22  H52 UNL     1      12.128  75.485  57.474  1.00  0.00     0.178 HD
ATOM     23  H51 UNL     1      12.148  73.816  58.094  1.00  0.00     0.178 HD
ATOM     24  H4  UNL     1      14.310  74.083  58.750  1.00  0.00     0.207 HD
ENDBRANCH  18  20
ENDBRANCH  14  18
ENDBRANCH   8  11
TORSDOF 3
ENDMDL