MODEL 2
REMARK VINA RESULT: -10.392199862      1.484      1.771
REMARK  7 active torsions:
REMARK  status: ('A' for Active; 'I' for Inactive)
REMARK    1  A    between atoms: C12_12  and  O1_13
REMARK    2  A    between atoms: O1_13  and  C13_14
REMARK    3  A    between atoms: C13_14  and  C14_15
REMARK    4  A    between atoms: C14_15  and  O2_16
REMARK    5  A    between atoms: N1_18  and  C15_20
REMARK    6  A    between atoms: C16_23  and  C17_24
REMARK    7  A    between atoms: C17_24  and  N3_25
ROOT
HETATM    1  C13 UNL     1      17.811  76.010  61.514  1.00  0.00     0.259 C
ENDROOT
BRANCH   1   2
HETATM    2  O1  UNL     1      16.779  76.401  60.615  1.00  0.00    -0.342 OA
BRANCH   2   3
HETATM    3  C12 UNL     1      16.929  77.108  59.462  1.00  0.00     0.091 A
HETATM    4  C11 UNL     1      18.024  77.882  59.150  1.00  0.00     0.039 A
HETATM    5  C10 UNL     1      18.045  78.554  57.939  1.00  0.00     0.011 A
HETATM    6  C9  UNL     1      17.024  78.485  57.035  1.00  0.00    -0.045 A
HETATM    7  C8  UNL     1      17.049  79.229  55.721  1.00  0.00     0.078 C
HETATM    8  C24 UNL     1      15.936  77.703  57.368  1.00  0.00    -0.023 A
HETATM    9  C6  UNL     1      15.655  79.692  55.452  1.00  0.00    -0.047 A
HETATM   10  C5  UNL     1      14.571  78.911  55.787  1.00  0.00    -0.047 A
HETATM   11  C7  UNL     1      15.468  80.918  54.872  1.00  0.00     0.014 A
HETATM   12  C4  UNL     1      13.280  79.348  55.546  1.00  0.00     0.008 A
HETATM   13  C25 UNL     1      14.808  77.597  56.396  1.00  0.00     0.080 C
HETATM   14  C3  UNL     1      13.120  80.594  54.957  1.00  0.00     0.007 A
HETATM   15  C2  UNL     1      14.180  81.385  54.618  1.00  0.00    -0.061 A
HETATM   16  C1  UNL     1      13.978  82.710  53.991  1.00  0.00     0.048 C
HETATM   17  C23 UNL     1      15.878  77.029  58.546  1.00  0.00     0.074 A
HETATM   18 CL1  UNL     1      14.462  76.060  58.893  1.00  0.00    -0.081 Cl
ENDBRANCH   2   3
ENDBRANCH   1   2
BRANCH   1  19
HETATM   19  C14 UNL     1      17.534  74.757  62.203  1.00  0.00     0.142 C
HETATM   20  N1  UNL     1      17.457  73.496  61.684  1.00  0.00    -0.319 N
ATOM     21  H1  UNL     1      17.229  72.751  62.343  1.00  0.00     0.169 HD
BRANCH  19  22
HETATM   22  O2  UNL     1      17.333  74.864  63.484  1.00  0.00    -0.348 OA
ATOM     23  H2  UNL     1      16.901  74.121  63.887  1.00  0.00     0.219 HD
ENDBRANCH  19  22
BRANCH  20  24
HETATM   24  C15 UNL     1      17.659  73.100  60.332  1.00  0.00     0.150 A
HETATM   25  N2  UNL     1      16.871  72.914  59.296  1.00  0.00    -0.338 N
HETATM   26  C16 UNL     1      17.372  72.526  58.145  1.00  0.00     0.046 A
ATOM     27  H2  UNL     1      15.867  73.071  59.387  1.00  0.00     0.168 HD
HETATM   28  C22 UNL     1      18.720  72.328  58.071  1.00  0.00     0.080 A
HETATM   29  S1  UNL     1      19.227  72.702  59.643  1.00  0.00    -0.064 SA
BRANCH  26  30
HETATM   30  C17 UNL     1      16.481  72.303  56.925  1.00  0.00     0.330 C
BRANCH  30  31
HETATM   31  N3  UNL     1      15.447  73.285  56.901  1.00  0.00     0.098 N
HETATM   32  C18 UNL     1      14.181  72.551  56.864  1.00  0.00     0.299 C
HETATM   33  C19 UNL     1      13.070  73.521  56.608  1.00  0.00     0.198 C
HETATM   34  O3  UNL     1      13.138  73.931  55.279  1.00  0.00    -0.388 OA
HETATM   35  C20 UNL     1      14.381  73.713  54.720  1.00  0.00     0.198 C
HETATM   36  C21 UNL     1      15.522  74.037  55.661  1.00  0.00     0.299 C
ENDBRANCH  30  31
ENDBRANCH  26  30
ENDBRANCH  20  24
ENDBRANCH   1  19
TORSDOF 7
ENDMDL