MODEL 1
REMARK VINA RESULT: -8.530397757      0.000      0.000
REMARK  11 active torsions:
REMARK  status: ('A' for Active; 'I' for Inactive)
REMARK    1  A    between atoms: C2_2  and  C3_3
REMARK    2  A    between atoms: C3_3  and  N1_5
REMARK    3  A    between atoms: C3_3  and  C11_17
REMARK       I    between atoms: N1_5  and  C5_7
REMARK       I    between atoms: C5_7  and  N2_9
REMARK    4  A    between atoms: N2_9  and  C6_11
REMARK    5  A    between atoms: C6_11  and  C7_12
REMARK    6  A    between atoms: C13_21  and  C14_22
REMARK       I    between atoms: C14_22  and  N4_24
REMARK    7  A    between atoms: N4_24  and  N5_26
REMARK       I    between atoms: N5_26  and  C15_28
REMARK       I    between atoms: C15_28  and  N6_30
REMARK    8  A    between atoms: N6_30  and  C16_32
REMARK    9  A    between atoms: C16_32  and  C17_33
REMARK   10  A    between atoms: C16_32  and  C18_36
REMARK   11  A    between atoms: C17_33  and  O5_34
ROOT
HETATM    1  C11 UNL     1      14.848  79.751  55.062  1.00  0.00    -0.013 A
HETATM    2  C12 UNL     1      15.792  79.467  54.119  1.00  0.00     0.098 A
HETATM    3  N3  UNL     1      16.853  78.877  54.747  1.00  0.00    -0.361 N
ATOM      4  H3  UNL     1      17.700  78.563  54.273  1.00  0.00     0.165 HD
HETATM    5  C13 UNL     1      16.642  78.769  56.036  1.00  0.00     0.102 A
HETATM    6  C20 UNL     1      15.386  79.308  56.272  1.00  0.00     0.046 A
ENDROOT
BRANCH   5   7
HETATM    7  C14 UNL     1      17.516  78.251  57.102  1.00  0.00     0.286 C
HETATM    8  O3  UNL     1      18.650  77.865  56.802  1.00  0.00    -0.264 OA
HETATM    9  N4  UNL     1      17.071  78.197  58.441  1.00  0.00    -0.261 N
ATOM     10  H4  UNL     1      16.118  78.514  58.617  1.00  0.00     0.190 HD
BRANCH   9  11
HETATM   11  N5  UNL     1      17.782  77.762  59.532  1.00  0.00    -0.249 N
HETATM   12  C15 UNL     1      17.442  76.492  60.119  1.00  0.00     0.335 C
HETATM   13  O4  UNL     1      16.493  75.845  59.536  1.00  0.00    -0.246 OA
HETATM   14  N6  UNL     1      18.056  75.956  61.231  1.00  0.00    -0.329 N
ATOM     15  H6  UNL     1      18.775  76.562  61.625  1.00  0.00     0.165 HD
ATOM     16  H5  UNL     1      18.537  78.328  59.919  1.00  0.00     0.192 HD
BRANCH  14  17
HETATM   17  C16 UNL     1      17.901  74.751  61.937  1.00  0.00     0.170 C
BRANCH  17  18
HETATM   18  C17 UNL     1      18.429  74.815  63.377  1.00  0.00     0.196 C
BRANCH  18  19
HETATM   19  O5  UNL     1      17.435  74.523  64.302  1.00  0.00    -0.398 OA
ATOM     20  H5  UNL     1      17.381  75.186  64.981  1.00  0.00     0.209 HD
ENDBRANCH  18  19
ENDBRANCH  17  18
BRANCH  17  21
HETATM   21  C18 UNL     1      18.487  73.570  61.301  1.00  0.00     0.118 A
HETATM   22  C19 UNL     1      18.557  73.000  60.054  1.00  0.00     0.151 A
HETATM   23  N7  UNL     1      19.296  71.987  60.530  1.00  0.00    -0.270 N
HETATM   24  O6  UNL     1      19.224  72.529  61.699  1.00  0.00    -0.239 OA
ATOM     25  H7  UNL     1      19.727  71.150  60.138  1.00  0.00     0.194 HD
ENDBRANCH  17  21
ENDBRANCH  14  17
ENDBRANCH   9  11
ENDBRANCH   5   7
BRANCH   1  26
HETATM   26  C3  UNL     1      13.524  80.426  54.967  1.00  0.00     0.059 C
HETATM   27  C4  UNL     1      13.285  80.606  53.463  1.00  0.00     0.044 C
BRANCH  26  28
HETATM   28  C2  UNL     1      13.716  81.832  55.593  1.00  0.00     0.031 C
HETATM   29  C1  UNL     1      13.611  82.846  54.516  1.00  0.00     0.008 C
ENDBRANCH  26  28
BRANCH  26  30
HETATM   30  N1  UNL     1      12.436  79.824  55.637  1.00  0.00    -0.330 N
HETATM   31  C5  UNL     1      11.926  78.503  55.539  1.00  0.00     0.317 C
HETATM   32  O1  UNL     1      12.436  77.680  54.754  1.00  0.00    -0.247 OA
HETATM   33  N2  UNL     1      10.827  78.053  56.309  1.00  0.00    -0.341 N
ATOM     34  H2  UNL     1      10.389  78.729  56.935  1.00  0.00     0.164 HD
ATOM     35  H1  UNL     1      11.941  80.431  56.291  1.00  0.00     0.165 HD
BRANCH  33  36
HETATM   36  C6  UNL     1      10.282  76.744  56.286  1.00  0.00     0.156 C
BRANCH  36  37
HETATM   37  C7  UNL     1       9.100  76.457  57.144  1.00  0.00     0.139 C
HETATM   38  C8  UNL     1       9.657  75.990  58.491  1.00  0.00     0.035 C
HETATM   39  C9  UNL     1       8.857  76.815  59.469  1.00  0.00     0.029 C
HETATM   40  C10 UNL     1       7.627  77.153  58.652  1.00  0.00     0.168 C
HETATM   41  O2  UNL     1       8.239  77.469  57.427  1.00  0.00    -0.384 OA
ENDBRANCH  36  37
ENDBRANCH  33  36
ENDBRANCH  26  30
ENDBRANCH   1  26
TORSDOF 11
ENDMDL