MODEL 1
REMARK VINA RESULT: -8.601024115      0.000      0.000
REMARK  10 active torsions:
REMARK  status: ('A' for Active; 'I' for Inactive)
REMARK    1  A    between atoms: N1_1  and  C1_5
REMARK    2  A    between atoms: C1_5  and  C2_6
REMARK    3  A    between atoms: C2_6  and  N2_7
REMARK    4  A    between atoms: C2_6  and  C20_39
REMARK       I    between atoms: N2_7  and  C3_9
REMARK    5  A    between atoms: C3_9  and  C4_11
REMARK    6  A    between atoms: C7_14  and  N3_15
REMARK       I    between atoms: N3_15  and  C8_17
REMARK    7  A    between atoms: C8_17  and  C9_19
REMARK    8  A    between atoms: C13_24  and  N4_25
REMARK       I    between atoms: N4_25  and  C14_27
REMARK       I    between atoms: C14_27  and  N5_29
REMARK    9  A    between atoms: N5_29  and  C15_31
REMARK   10  A    between atoms: C15_31  and  C16_32
ROOT
HETATM    1  C4  UNL     1      11.582  76.683  56.675  1.00  0.00     0.034 A
HETATM    2  C5  UNL     1      12.084  76.632  55.400  1.00  0.00     0.019 A
HETATM    3  C6  UNL     1      13.406  76.254  55.139  1.00  0.00     0.033 A
HETATM    4  C7  UNL     1      14.269  75.915  56.152  1.00  0.00     0.062 A
HETATM    5  C13 UNL     1      13.781  75.956  57.482  1.00  0.00     0.064 A
HETATM    6  C19 UNL     1      12.483  76.331  57.686  1.00  0.00     0.049 A
ENDROOT
BRANCH   1   7
HETATM    7  C3  UNL     1      10.209  77.078  56.934  1.00  0.00     0.252 C
HETATM    8  N2  UNL     1       9.408  76.526  57.948  1.00  0.00    -0.342 N
ATOM      9  H2  UNL     1       9.810  75.802  58.543  1.00  0.00     0.163 HD
HETATM   10  O1  UNL     1       9.705  77.969  56.206  1.00  0.00    -0.268 OA
BRANCH   8  11
HETATM   11  C2  UNL     1       8.038  76.937  58.188  1.00  0.00     0.199 C
BRANCH  11  12
HETATM   12  C1  UNL     1       7.049  75.942  57.625  1.00  0.00     0.264 C
BRANCH  12  13
HETATM   13  N1  UNL     1       7.462  74.637  58.036  1.00  0.00    -0.077 N
ATOM     14  H13 UNL     1       8.445  74.600  58.307  1.00  0.00     0.274 HD
ATOM     15  H12 UNL     1       7.064  74.360  58.932  1.00  0.00     0.274 HD
ATOM     16  H11 UNL     1       7.235  73.987  57.284  1.00  0.00     0.274 HD
ENDBRANCH  12  13
ENDBRANCH  11  12
BRANCH  11  17
HETATM   17  C20 UNL     1       7.755  77.129  59.623  1.00  0.00     0.255 C
HETATM   18  N7  UNL     1       6.449  76.817  60.090  1.00  0.00    -0.060 NA
HETATM   19  O6  UNL     1       8.585  77.551  60.468  1.00  0.00    -0.275 OA
ENDBRANCH  11  17
ENDBRANCH   8  11
ENDBRANCH   1   7
BRANCH   5  20
HETATM   20  N4  UNL     1      14.658  75.537  58.506  1.00  0.00    -0.307 N
HETATM   21  C14 UNL     1      15.576  76.378  59.204  1.00  0.00     0.320 C
HETATM   22  O4  UNL     1      15.735  77.595  58.996  1.00  0.00    -0.247 OA
HETATM   23  N5  UNL     1      16.366  75.722  60.226  1.00  0.00    -0.340 N
ATOM     24  H5  UNL     1      16.243  74.727  60.413  1.00  0.00     0.164 HD
ATOM     25  H4  UNL     1      14.633  74.552  58.769  1.00  0.00     0.170 HD
BRANCH  23  26
HETATM   26  C15 UNL     1      17.318  76.485  60.967  1.00  0.00     0.159 C
BRANCH  26  27
HETATM   27  C16 UNL     1      18.033  75.632  61.952  1.00  0.00     0.174 C
HETATM   28  C17 UNL     1      18.365  74.250  61.361  1.00  0.00     0.083 C
HETATM   29  C18 UNL     1      18.358  73.434  62.598  1.00  0.00     0.089 C
HETATM   30  N6  UNL     1      17.661  74.026  63.493  1.00  0.00    -0.281 N
HETATM   31  O5  UNL     1      17.153  75.212  63.017  1.00  0.00    -0.274 OA
ATOM     32  H6  UNL     1      17.502  73.666  64.434  1.00  0.00     0.193 HD
ENDBRANCH  26  27
ENDBRANCH  23  26
ENDBRANCH   5  20
BRANCH   4  33
HETATM   33  N3  UNL     1      15.621  75.603  55.889  1.00  0.00    -0.319 N
HETATM   34  C8  UNL     1      16.699  76.462  55.646  1.00  0.00     0.280 C
HETATM   35  O2  UNL     1      16.608  77.704  55.624  1.00  0.00    -0.265 OA
ATOM     36  H3  UNL     1      15.843  74.608  55.873  1.00  0.00     0.169 HD
BRANCH  34  37
HETATM   37  C9  UNL     1      18.022  75.822  55.404  1.00  0.00     0.142 A
HETATM   38  C10 UNL     1      19.224  76.353  55.838  1.00  0.00     0.045 A
HETATM   39  C11 UNL     1      20.222  75.494  55.434  1.00  0.00     0.027 A
HETATM   40  C12 UNL     1      19.565  74.467  54.763  1.00  0.00     0.143 A
HETATM   41  O3  UNL     1      18.291  74.721  54.783  1.00  0.00    -0.317 OA
ENDBRANCH  34  37
ENDBRANCH   4  33
TORSDOF 10
ENDMDL