MODEL 5
REMARK VINA RESULT: -8.952775522      3.668      5.590
REMARK  6 active torsions:
REMARK  status: ('A' for Active; 'I' for Inactive)
REMARK    1  A    between atoms: C4_5  and  C5_6
REMARK    2  A    between atoms: N2_8  and  C7_9
REMARK    3  A    between atoms: C7_9  and  C8_10
REMARK    4  A    between atoms: C12_16  and  C13_17
REMARK    5  A    between atoms: C13_17  and  C14_18
REMARK       I    between atoms: C14_18  and  N3_20
REMARK    6  A    between atoms: N3_20  and  C15_22
ROOT
HETATM    1  N1  UNL     1      18.078  72.457  55.497  1.00  0.00    -0.191 NA
HETATM    2  C1  UNL     1      18.036  73.023  56.503  1.00  0.00     0.099 C
HETATM    3  C2  UNL     1      17.959  73.733  57.773  1.00  0.00     0.046 A
HETATM    4  C3  UNL     1      17.133  74.832  57.918  1.00  0.00     0.033 A
HETATM    5  C4  UNL     1      16.998  75.557  59.071  1.00  0.00    -0.015 A
HETATM    6  C19 UNL     1      17.755  75.137  60.156  1.00  0.00    -0.017 A
HETATM    7  C20 UNL     1      17.742  75.739  61.389  1.00  0.00     0.013 A
HETATM    8  C21 UNL     1      18.506  75.301  62.472  1.00  0.00     0.001 A
HETATM    9  C22 UNL     1      19.318  74.216  62.319  1.00  0.00     0.001 A
HETATM   10  C23 UNL     1      19.373  73.572  61.102  1.00  0.00     0.012 A
HETATM   11  C24 UNL     1      18.599  74.027  60.032  1.00  0.00    -0.024 A
HETATM   12  C25 UNL     1      18.705  73.327  58.854  1.00  0.00     0.035 A
ENDROOT
BRANCH   5  13
HETATM   13  C5  UNL     1      16.140  76.736  59.235  1.00  0.00     0.194 C
HETATM   14  C6  UNL     1      14.833  76.728  58.556  1.00  0.00     0.311 C
HETATM   15  N2  UNL     1      14.687  77.447  57.347  1.00  0.00     0.110 N
HETATM   16  C12 UNL     1      15.844  77.918  56.689  1.00  0.00     0.330 C
HETATM   17  C18 UNL     1      17.045  78.106  57.511  1.00  0.00     0.293 C
HETATM   18  O2  UNL     1      18.102  78.490  56.983  1.00  0.00    -0.263 OA
HETATM   19  O3  UNL     1      16.959  77.851  58.837  1.00  0.00    -0.308 OA
BRANCH  15  20
HETATM   20  C7  UNL     1      13.938  76.656  56.335  1.00  0.00     0.320 C
BRANCH  20  21
HETATM   21  C8  UNL     1      12.458  76.826  56.537  1.00  0.00     0.012 A
HETATM   22  C9  UNL     1      11.652  77.818  56.049  1.00  0.00     0.018 A
HETATM   23  C10 UNL     1      10.351  77.764  56.356  1.00  0.00     0.032 A
HETATM   24  C11 UNL     1       9.930  76.717  57.135  1.00  0.00     0.075 A
HETATM   25 CL1  UNL     1       8.285  76.381  57.698  1.00  0.00    -0.076 Cl
HETATM   26  S1  UNL     1      11.374  75.849  57.410  1.00  0.00    -0.081 SA
ENDBRANCH  20  21
ENDBRANCH  15  20
BRANCH  16  27
HETATM   27  C13 UNL     1      15.634  79.194  55.876  1.00  0.00     0.149 C
BRANCH  27  28
HETATM   28  C14 UNL     1      15.812  79.038  54.441  1.00  0.00     0.220 C
HETATM   29  O1  UNL     1      15.454  79.890  53.605  1.00  0.00    -0.274 OA
HETATM   30  N3  UNL     1      16.425  77.863  53.930  1.00  0.00    -0.356 N
ATOM     31  H3  UNL     1      16.728  77.150  54.594  1.00  0.00     0.162 HD
BRANCH  30  32
HETATM   32  C15 UNL     1      16.642  77.624  52.518  1.00  0.00     0.084 A
HETATM   33  C16 UNL     1      15.713  76.637  51.825  1.00  0.00     0.027 A
HETATM   34  C17 UNL     1      17.138  76.230  52.137  1.00  0.00     0.027 A
ENDBRANCH  30  32
ENDBRANCH  27  28
ENDBRANCH  16  27
ENDBRANCH   5  13
TORSDOF 6
ENDMDL