MODEL 4
REMARK VINA RESULT: -8.253541659      3.411      5.667
REMARK  9 active torsions:
REMARK  status: ('A' for Active; 'I' for Inactive)
REMARK    1  A    between atoms: C2_2  and  N1_3
REMARK    2  A    between atoms: N1_3  and  N2_4
REMARK       I    between atoms: N2_4  and  C3_6
REMARK    3  A    between atoms: C3_6  and  C4_8
REMARK    4  A    between atoms: C7_11  and  O2_12
REMARK       I    between atoms: N3_15  and  C9_16
REMARK    5  A    between atoms: C9_16  and  C10_18
REMARK    6  A    between atoms: C10_18  and  C11_19
REMARK    7  A    between atoms: C11_19  and  O4_20
REMARK    8  A    between atoms: O4_20  and  C12_21
REMARK    9  A    between atoms: C13_24  and  C14_25
ROOT
HETATM    1  C11 UNL     1      17.408  75.831  54.416  1.00  0.00     0.186 C
ENDROOT
BRANCH   1   2
HETATM    2  C10 UNL     1      15.976  76.103  54.741  1.00  0.00     0.129 C
BRANCH   2   3
HETATM    3  C9  UNL     1      15.103  74.937  54.346  1.00  0.00     0.222 C
HETATM    4  N3  UNL     1      14.291  74.281  55.270  1.00  0.00    -0.336 N
HETATM    5  C4  UNL     1      13.438  73.160  55.126  1.00  0.00     0.180 C
HETATM    6  C8  UNL     1      14.229  74.863  56.656  1.00  0.00     0.158 C
HETATM    7  C5  UNL     1      12.021  73.736  55.056  1.00  0.00     0.038 C
HETATM    8  C6  UNL     1      11.760  74.331  56.417  1.00  0.00     0.036 C
HETATM    9  C7  UNL     1      12.797  75.251  56.939  1.00  0.00     0.136 C
HETATM   10  O3  UNL     1      15.162  74.609  53.151  1.00  0.00    -0.273 OA
BRANCH   5  11
HETATM   11  C3  UNL     1      13.737  72.114  54.185  1.00  0.00     0.256 C
HETATM   12  N2  UNL     1      15.045  71.494  54.257  1.00  0.00    -0.272 N
ATOM     13  H2  UNL     1      15.710  71.813  54.961  1.00  0.00     0.185 HD
HETATM   14  O1  UNL     1      12.992  71.648  53.276  1.00  0.00    -0.270 OA
BRANCH  12  15
HETATM   15  N1  UNL     1      15.413  70.470  53.383  1.00  0.00    -0.139 NA
BRANCH  15  16
HETATM   16  C2  UNL     1      16.542  69.713  53.871  1.00  0.00     0.130 C
HETATM   17  C1  UNL     1      16.474  69.380  55.311  1.00  0.00     0.024 C
ENDBRANCH  15  16
ENDBRANCH  12  15
ENDBRANCH   5  11
BRANCH   9  18
HETATM   18  O2  UNL     1      12.660  75.318  58.331  1.00  0.00    -0.394 OA
ATOM     19  H2  UNL     1      11.990  75.961  58.533  1.00  0.00     0.210 HD
ENDBRANCH   9  18
ENDBRANCH   2   3
ENDBRANCH   1   2
BRANCH   1  20
HETATM   20  O4  UNL     1      18.255  75.657  55.486  1.00  0.00    -0.334 OA
BRANCH  20  21
HETATM   21  C12 UNL     1      18.058  74.918  56.635  1.00  0.00     0.167 A
HETATM   22  N4  UNL     1      18.093  75.328  57.911  1.00  0.00    -0.334 N
HETATM   23  C13 UNL     1      17.848  74.293  58.773  1.00  0.00     0.053 A
ATOM     24  H4  UNL     1      18.279  76.288  58.203  1.00  0.00     0.168 HD
HETATM   25  C19 UNL     1      17.645  73.164  58.018  1.00  0.00     0.061 A
HETATM   26  C20 UNL     1      17.781  73.581  56.677  1.00  0.00     0.099 A
HETATM   27  N7  UNL     1      17.655  72.762  55.544  1.00  0.00    -0.098 NA
BRANCH  23  28
HETATM   28  C14 UNL     1      17.899  74.346  60.220  1.00  0.00     0.081 A
HETATM   29  C15 UNL     1      18.778  73.657  60.979  1.00  0.00     0.028 A
HETATM   30  C16 UNL     1      19.688  72.634  60.431  1.00  0.00     0.069 C
HETATM   31  N5  UNL     1      18.837  73.824  62.329  1.00  0.00    -0.312 N
HETATM   32  C17 UNL     1      18.030  74.672  62.960  1.00  0.00     0.327 A
ATOM     33  H5  UNL     1      19.516  73.286  62.869  1.00  0.00     0.170 HD
HETATM   34  O5  UNL     1      18.072  74.840  64.220  1.00  0.00    -0.247 OA
HETATM   35  N6  UNL     1      17.148  75.365  62.225  1.00  0.00    -0.275 N
HETATM   36  C18 UNL     1      17.041  75.246  60.885  1.00  0.00     0.263 A
ATOM     37  H6  UNL     1      16.526  76.015  62.704  1.00  0.00     0.173 HD
HETATM   38  O6  UNL     1      16.197  75.931  60.291  1.00  0.00    -0.267 OA
ENDBRANCH  23  28
ENDBRANCH  20  21
ENDBRANCH   1  20
TORSDOF 9
ENDMDL