MODEL 1
REMARK VINA RESULT: -8.775337173      0.000      0.000
REMARK  8 active torsions:
REMARK  status: ('A' for Active; 'I' for Inactive)
REMARK    1  A    between atoms: O1_2  and  C2_3
REMARK    2  A    between atoms: C2_3  and  C3_4
REMARK    3  A    between atoms: C3_4  and  O2_5
REMARK    4  A    between atoms: C3_4  and  C4_7
REMARK    5  A    between atoms: C4_7  and  N1_8
REMARK    6  A    between atoms: C8_12  and  C9_13
REMARK       I    between atoms: C9_13  and  N2_15
REMARK    7  A    between atoms: N3_18  and  C12_19
REMARK    8  A    between atoms: C12_19  and  C13_20
ROOT
HETATM    1  C9  UNL     1      19.012  72.228  55.749  1.00  0.00     0.258 C
HETATM    2  O3  UNL     1      20.142  72.458  56.245  1.00  0.00    -0.271 OA
HETATM    3  N2  UNL     1      17.869  72.773  56.388  1.00  0.00    -0.310 N
HETATM    4  C10 UNL     1      16.583  72.803  55.672  1.00  0.00     0.176 C
HETATM    5  C11 UNL     1      15.734  73.958  56.156  1.00  0.00     0.084 C
HETATM    6  N3  UNL     1      16.386  75.158  56.369  1.00  0.00    -0.363 N
HETATM    7  C15 UNL     1      16.803  75.537  57.653  1.00  0.00     0.105 C
HETATM    8  C16 UNL     1      17.622  74.461  58.319  1.00  0.00     0.018 A
HETATM    9  C17 UNL     1      18.047  73.305  57.709  1.00  0.00     0.051 A
HETATM   10  C18 UNL     1      18.821  72.388  58.446  1.00  0.00     0.055 A
HETATM   11  C19 UNL     1      19.125  72.677  59.739  1.00  0.00     0.047 A
HETATM   12 CL1  UNL     1      20.084  71.561  60.667  1.00  0.00    -0.083 Cl
HETATM   13  C20 UNL     1      18.688  73.839  60.327  1.00  0.00    -0.003 A
HETATM   14  C21 UNL     1      18.992  74.142  61.651  1.00  0.00     0.014 A
HETATM   15  C22 UNL     1      18.547  75.310  62.231  1.00  0.00     0.001 A
HETATM   16  C23 UNL     1      17.790  76.205  61.508  1.00  0.00     0.001 A
HETATM   17  C24 UNL     1      17.471  75.932  60.188  1.00  0.00     0.013 A
HETATM   18  C25 UNL     1      17.921  74.772  59.635  1.00  0.00    -0.010 A
ENDROOT
BRANCH   1  19
HETATM   19  C8  UNL     1      18.818  71.422  54.541  1.00  0.00     0.314 C
HETATM   20  N1  UNL     1      19.564  71.869  53.379  1.00  0.00     0.104 N
HETATM   21  C5  UNL     1      20.957  71.608  53.663  1.00  0.00     0.273 C
HETATM   22  C6  UNL     1      20.991  70.316  54.431  1.00  0.00     0.033 C
HETATM   23  C7  UNL     1      19.536  70.088  54.803  1.00  0.00     0.047 C
BRANCH  20  24
HETATM   24  C4  UNL     1      19.292  73.198  52.988  1.00  0.00     0.307 C
BRANCH  24  25
HETATM   25  C3  UNL     1      18.404  73.341  51.787  1.00  0.00     0.170 C
BRANCH  25  26
HETATM   26  C2  UNL     1      18.905  74.206  50.690  1.00  0.00     0.200 C
BRANCH  26  27
HETATM   27  O1  UNL     1      18.480  74.002  49.423  1.00  0.00    -0.393 OA
HETATM   28  C1  UNL     1      18.477  75.065  48.568  1.00  0.00     0.201 C
ENDBRANCH  26  27
ENDBRANCH  25  26
BRANCH  25  29
HETATM   29  O2  UNL     1      17.105  73.513  52.178  1.00  0.00    -0.392 OA
ATOM     30  H2  UNL     1      16.930  73.530  53.111  1.00  0.00     0.210 HD
ENDBRANCH  25  29
ENDBRANCH  24  25
ENDBRANCH  20  24
ENDBRANCH   1  19
BRANCH   6  31
HETATM   31  C12 UNL     1      15.983  76.185  55.458  1.00  0.00     0.174 C
BRANCH  31  32
HETATM   32  C13 UNL     1      16.937  77.290  55.288  1.00  0.00     0.007 A
HETATM   33  C14 UNL     1      18.071  77.710  54.636  1.00  0.00     0.066 A
HETATM   34  S1  UNL     1      17.423  78.944  55.757  1.00  0.00    -0.103 SA
ENDBRANCH  31  32
ENDBRANCH   6  31
TORSDOF 8
ENDMDL