MODEL 4
REMARK VINA RESULT: -8.593216298      2.007      2.659
REMARK  9 active torsions:
REMARK  status: ('A' for Active; 'I' for Inactive)
REMARK    1  A    between atoms: C3_4  and  C4_5
REMARK    2  A    between atoms: C4_5  and  N1_6
REMARK       I    between atoms: N1_6  and  C5_7
REMARK    3  A    between atoms: C5_7  and  C6_9
REMARK    4  A    between atoms: C6_9  and  C7_10
REMARK    5  A    between atoms: C7_10  and  N2_11
REMARK    6  A    between atoms: C10_14  and  N3_15
REMARK       I    between atoms: N3_15  and  C11_17
REMARK       I    between atoms: C11_17  and  N4_19
REMARK    7  A    between atoms: N4_19  and  C12_21
REMARK    8  A    between atoms: C16_29  and  N6_30
REMARK    9  A    between atoms: C20_38  and  N7_39
ROOT
HETATM    1  N2  UNL     1      16.098  79.140  55.865  1.00  0.00    -0.373 N
HETATM    2  C8  UNL     1      15.290  79.252  54.754  1.00  0.00     0.065 C
HETATM    3  C9  UNL     1      13.996  78.512  54.649  1.00  0.00     0.070 C
HETATM    4  C10 UNL     1      13.306  78.333  55.948  1.00  0.00     0.092 C
HETATM    5  C17 UNL     1      14.025  79.174  57.015  1.00  0.00     0.045 C
HETATM    6  C18 UNL     1      15.482  78.657  57.040  1.00  0.00     0.129 C
ENDROOT
BRANCH   4   7
HETATM    7  N3  UNL     1      11.912  78.699  55.883  1.00  0.00    -0.338 N
HETATM    8  C11 UNL     1      10.938  77.851  56.465  1.00  0.00     0.320 C
HETATM    9  O3  UNL     1      11.327  76.778  57.061  1.00  0.00    -0.247 OA
HETATM   10  N4  UNL     1       9.557  78.127  56.422  1.00  0.00    -0.310 N
ATOM     11  H4  UNL     1       9.212  78.947  55.925  1.00  0.00     0.170 HD
ATOM     12  H3  UNL     1      11.629  79.564  55.420  1.00  0.00     0.164 HD
BRANCH  10  13
HETATM   13  C12 UNL     1       8.635  77.239  57.088  1.00  0.00     0.058 C
HETATM   14  C13 UNL     1       8.303  77.410  58.351  1.00  0.00     0.102 C
HETATM   15  C14 UNL     1       7.384  76.602  59.104  1.00  0.00     0.249 C
HETATM   16  O4  UNL     1       7.118  76.819  60.335  1.00  0.00    -0.268 OA
HETATM   17  N5  UNL     1       6.739  75.508  58.431  1.00  0.00    -0.292 N
HETATM   18  C15 UNL     1       7.096  75.358  57.063  1.00  0.00     0.261 C
ATOM     19  H5  UNL     1       6.077  74.887  58.897  1.00  0.00     0.172 HD
HETATM   20  O5  UNL     1       6.341  74.566  56.391  1.00  0.00    -0.270 OA
HETATM   21  C16 UNL     1       8.209  76.007  56.372  1.00  0.00     0.324 C
BRANCH  21  22
HETATM   22  N6  UNL     1       8.059  76.158  54.959  1.00  0.00    -0.061 N
ATOM     23  H63 UNL     1       8.664  75.500  54.467  1.00  0.00     0.275 HD
ATOM     24  H62 UNL     1       7.146  75.816  54.661  1.00  0.00     0.275 HD
ATOM     25  H61 UNL     1       8.212  77.106  54.613  1.00  0.00     0.275 HD
ENDBRANCH  21  22
ENDBRANCH  10  13
ENDBRANCH   4   7
BRANCH   1  26
HETATM   26  C7  UNL     1      17.472  78.919  55.829  1.00  0.00     0.073 C
BRANCH  26  27
HETATM   27  C6  UNL     1      18.114  78.088  56.879  1.00  0.00     0.163 C
BRANCH  27  28
HETATM   28  C5  UNL     1      18.599  76.757  56.311  1.00  0.00     0.291 C
HETATM   29  N1  UNL     1      18.274  75.564  56.893  1.00  0.00    -0.412 NA
HETATM   30  O2  UNL     1      19.321  76.824  55.253  1.00  0.00    -0.257 OA
BRANCH  29  31
HETATM   31  C4  UNL     1      17.956  74.385  57.464  1.00  0.00     0.256 C
BRANCH  31  32
HETATM   32  C3  UNL     1      18.327  74.406  58.993  1.00  0.00     0.183 C
HETATM   33  O1  UNL     1      18.063  75.669  59.483  1.00  0.00    -0.338 OA
HETATM   34  C2  UNL     1      17.565  75.866  60.774  1.00  0.00     0.110 C
HETATM   35  C1  UNL     1      17.426  77.135  61.132  1.00  0.00     0.055 C
HETATM   36  C20 UNL     1      17.250  74.732  61.595  1.00  0.00     0.169 C
HETATM   37  O6  UNL     1      17.472  73.456  61.032  1.00  0.00    -0.331 OA
HETATM   38  C19 UNL     1      17.311  73.425  59.612  1.00  0.00     0.212 C
BRANCH  36  39
HETATM   39  N7  UNL     1      16.784  74.874  62.780  1.00  0.00    -0.378 N
ATOM     40  H72 UNL     1      17.295  75.383  63.500  1.00  0.00     0.158 HD
ATOM     41  H71 UNL     1      15.884  74.476  63.048  1.00  0.00     0.158 HD
ENDBRANCH  36  39
ENDBRANCH  31  32
ENDBRANCH  29  31
ENDBRANCH  27  28
ENDBRANCH  26  27
ENDBRANCH   1  26
TORSDOF 9
ENDMDL