MODEL 3
REMARK VINA RESULT: -8.074850635      2.012      5.983
REMARK  10 active torsions:
REMARK  status: ('A' for Active; 'I' for Inactive)
REMARK    1  A    between atoms: C2_2  and  C3_3
REMARK    2  A    between atoms: C3_3  and  C4_4
REMARK    3  A    between atoms: C7_11  and  O2_12
REMARK    4  A    between atoms: O2_12  and  C8_13
REMARK    5  A    between atoms: C8_13  and  C9_14
REMARK    6  A    between atoms: C9_14  and  O3_15
REMARK    7  A    between atoms: C9_14  and  C10_17
REMARK    8  A    between atoms: C10_17  and  N3_18
REMARK       I    between atoms: N3_18  and  C11_19
REMARK       I    between atoms: C11_19  and  N4_21
REMARK    9  A    between atoms: N4_21  and  C12_23
REMARK   10  A    between atoms: C17_29  and  N6_30
REMARK       I    between atoms: N6_30  and  C18_31
ROOT
HETATM    1  C9  UNL     1      18.454  73.581  62.498  1.00  0.00     0.172 C
ENDROOT
BRANCH   1   2
HETATM    2  C8  UNL     1      19.152  72.952  61.352  1.00  0.00     0.210 C
BRANCH   2   3
HETATM    3  O2  UNL     1      18.214  73.006  60.267  1.00  0.00    -0.345 OA
BRANCH   3   4
HETATM    4  C7  UNL     1      18.584  72.684  58.965  1.00  0.00     0.112 A
HETATM    5  C6  UNL     1      19.760  72.651  58.372  1.00  0.00     0.146 A
HETATM    6  N2  UNL     1      19.565  72.251  57.098  1.00  0.00    -0.307 N
HETATM    7  N1  UNL     1      18.329  72.046  56.892  1.00  0.00    -0.289 N
ATOM      8  H2  UNL     1      20.301  72.132  56.403  1.00  0.00     0.186 HD
HETATM    9  C5  UNL     1      17.532  71.698  55.760  1.00  0.00     0.186 C
HETATM   10  C19 UNL     1      17.581  72.296  58.055  1.00  0.00     0.087 A
HETATM   11  C2  UNL     1      16.347  70.844  56.181  1.00  0.00     0.081 C
HETATM   12  C1  UNL     1      16.724  69.384  56.024  1.00  0.00     0.048 C
HETATM   13  O6  UNL     1      15.648  71.163  57.258  1.00  0.00    -0.372 OA
HETATM   14  C20 UNL     1      16.149  72.129  58.134  1.00  0.00     0.230 C
BRANCH  11  15
HETATM   15  C3  UNL     1      15.338  71.102  54.971  1.00  0.00     0.108 C
BRANCH  15  16
HETATM   16  C4  UNL     1      16.044  70.704  53.733  1.00  0.00     0.234 C
HETATM   17  O1  UNL     1      15.432  70.057  52.881  1.00  0.00    -0.307 OA
ENDBRANCH  15  16
ENDBRANCH  11  15
ENDBRANCH   3   4
ENDBRANCH   2   3
ENDBRANCH   1   2
BRANCH   1  18
HETATM   18  O3  UNL     1      17.232  73.036  62.843  1.00  0.00    -0.391 OA
ATOM     19  H3  UNL     1      16.667  73.579  63.379  1.00  0.00     0.210 HD
ENDBRANCH   1  18
BRANCH   1  20
HETATM   20  C10 UNL     1      18.566  75.043  62.548  1.00  0.00     0.257 C
BRANCH  20  21
HETATM   21  N3  UNL     1      18.029  75.869  61.515  1.00  0.00    -0.394 NA
HETATM   22  C11 UNL     1      17.540  76.701  60.558  1.00  0.00     0.393 C
HETATM   23  O4  UNL     1      17.549  77.881  60.529  1.00  0.00    -0.230 OA
HETATM   24  N4  UNL     1      16.943  75.897  59.467  1.00  0.00    -0.294 N
ATOM     25  H4  UNL     1      17.236  74.922  59.523  1.00  0.00     0.172 HD
BRANCH  24  26
HETATM   26  C12 UNL     1      16.117  76.100  58.417  1.00  0.00     0.078 A
HETATM   27  C13 UNL     1      14.768  76.481  58.680  1.00  0.00     0.035 A
HETATM   28  C14 UNL     1      13.839  76.246  57.740  1.00  0.00     0.029 A
HETATM   29  C15 UNL     1      14.161  75.642  56.525  1.00  0.00     0.049 A
HETATM   30  N5  UNL     1      13.108  75.369  55.635  1.00  0.00    -0.102 NA
HETATM   31  C16 UNL     1      15.472  75.280  56.256  1.00  0.00     0.073 A
HETATM   32  C17 UNL     1      16.418  75.512  57.189  1.00  0.00     0.141 A
BRANCH  32  33
HETATM   33  N6  UNL     1      17.776  75.676  56.733  1.00  0.00    -0.352 NA
HETATM   34  C18 UNL     1      18.931  75.639  56.293  1.00  0.00     0.406 C
HETATM   35  N7  UNL     1      19.513  77.130  56.267  1.00  0.00    -0.025 NA
HETATM   36  O5  UNL     1      19.864  74.993  55.834  1.00  0.00    -0.234 OA
ENDBRANCH  32  33
ENDBRANCH  24  26
ENDBRANCH  20  21
ENDBRANCH   1  20
TORSDOF 10
ENDMDL