MODEL 1
REMARK VINA RESULT: -8.079003235      0.000      0.000
REMARK  9 active torsions:
REMARK  status: ('A' for Active; 'I' for Inactive)
REMARK    1  A    between atoms: C2_2  and  C3_4
REMARK    2  A    between atoms: C7_11  and  C8_12
REMARK    3  A    between atoms: C9_15  and  C10_16
REMARK       I    between atoms: C10_16  and  N4_18
REMARK    4  A    between atoms: N4_18  and  C11_19
REMARK    5  A    between atoms: N4_18  and  C13_25
REMARK    6  A    between atoms: C11_19  and  C12_20
REMARK    7  A    between atoms: C12_20  and  O4_21
REMARK    8  A    between atoms: O4_21  and  N5_22
REMARK    9  A    between atoms: C13_25  and  C14_26
ROOT
HETATM    1  C10 UNL     1      17.652  74.250  57.918  1.00  0.00     0.259 C
HETATM    2  O3  UNL     1      18.717  73.741  58.275  1.00  0.00    -0.267 OA
HETATM    3  N4  UNL     1      16.673  73.349  57.345  1.00  0.00    -0.323 N
ENDROOT
BRANCH   3   4
HETATM    4  C11 UNL     1      15.388  73.859  56.909  1.00  0.00     0.160 C
BRANCH   4   5
HETATM    5  C12 UNL     1      14.179  73.072  57.140  1.00  0.00     0.220 C
BRANCH   5   6
HETATM    6  O4  UNL     1      13.258  73.211  56.058  1.00  0.00    -0.286 OA
BRANCH   6   7
HETATM    7  N5  UNL     1      12.589  72.079  55.857  1.00  0.00    -0.311 N
ATOM      8  H52 UNL     1      11.625  71.929  56.154  1.00  0.00     0.184 HD
ATOM      9  H51 UNL     1      13.171  71.396  55.372  1.00  0.00     0.184 HD
ENDBRANCH   6   7
ENDBRANCH   5   6
ENDBRANCH   4   5
ENDBRANCH   3   4
BRANCH   3  10
HETATM   10  C13 UNL     1      16.996  72.000  57.088  1.00  0.00     0.099 C
BRANCH  10  11
HETATM   11  C14 UNL     1      17.803  71.415  56.049  1.00  0.00     0.077 C
HETATM   12  C15 UNL     1      19.118  72.020  55.666  1.00  0.00     0.039 C
HETATM   13  C16 UNL     1      19.156  71.933  54.119  1.00  0.00     0.023 C
HETATM   14  C17 UNL     1      17.718  72.426  53.870  1.00  0.00     0.129 C
HETATM   15  N6  UNL     1      17.012  71.551  54.787  1.00  0.00    -0.319 N
HETATM   16  C18 UNL     1      15.792  70.849  54.706  1.00  0.00     0.326 C
HETATM   17  O5  UNL     1      14.815  71.310  54.022  1.00  0.00    -0.247 OA
HETATM   18  N7  UNL     1      15.635  69.619  55.382  1.00  0.00    -0.279 N
HETATM   19  C19 UNL     1      16.761  69.146  56.136  1.00  0.00     0.228 C
ATOM     20  H7  UNL     1      14.763  69.092  55.337  1.00  0.00     0.173 HD
HETATM   21  O6  UNL     1      16.704  68.085  56.810  1.00  0.00    -0.273 OA
HETATM   22  C20 UNL     1      18.036  69.903  56.142  1.00  0.00     0.140 C
ENDBRANCH  10  11
ENDBRANCH   3  10
BRANCH   1  23
HETATM   23  C9  UNL     1      17.471  75.685  58.091  1.00  0.00     0.067 C
HETATM   24  C3  UNL     1      17.591  76.261  59.419  1.00  0.00     0.048 C
HETATM   25  C4  UNL     1      17.699  77.597  59.514  1.00  0.00     0.021 C
HETATM   26  C5  UNL     1      17.708  78.268  60.855  1.00  0.00     0.069 C
HETATM   27  N1  UNL     1      17.943  78.434  58.384  1.00  0.00    -0.347 N
HETATM   28  C6  UNL     1      18.067  77.810  57.133  1.00  0.00     0.133 C
ATOM     29  H1  UNL     1      18.023  79.446  58.481  1.00  0.00     0.167 HD
HETATM   30  N2  UNL     1      18.337  78.698  56.020  1.00  0.00    -0.082 NA
HETATM   31  C7  UNL     1      17.946  76.499  56.977  1.00  0.00     0.087 C
BRANCH  24  32
HETATM   32  C2  UNL     1      17.499  75.518  60.697  1.00  0.00     0.158 C
HETATM   33  C1  UNL     1      18.595  74.907  61.450  1.00  0.00     0.097 C
HETATM   34  O1  UNL     1      16.349  75.374  61.244  1.00  0.00    -0.293 OA
ENDBRANCH  24  32
BRANCH  31  35
HETATM   35  C8  UNL     1      18.142  76.068  55.606  1.00  0.00     0.269 C
HETATM   36  N3  UNL     1      19.366  75.697  55.070  1.00  0.00    -0.057 NA
HETATM   37  O2  UNL     1      17.163  76.015  54.816  1.00  0.00    -0.271 OA
ENDBRANCH  31  35
ENDBRANCH   1  23
TORSDOF 9
ENDMDL