MODEL 1
REMARK VINA RESULT: -8.930859082      0.000      0.000
REMARK  10 active torsions:
REMARK  status: ('A' for Active; 'I' for Inactive)
REMARK    1  A    between atoms: C2_2  and  C3_3
REMARK    2  A    between atoms: C3_3  and  N1_6
REMARK    3  A    between atoms: N1_6  and  N2_8
REMARK       I    between atoms: N2_8  and  C6_10
REMARK    4  A    between atoms: C6_10  and  C7_12
REMARK    5  A    between atoms: C7_12  and  C8_13
REMARK    6  A    between atoms: C8_13  and  N3_14
REMARK       I    between atoms: N3_14  and  C9_16
REMARK       I    between atoms: C9_16  and  N4_18
REMARK    7  A    between atoms: N4_18  and  C10_20
REMARK    8  A    between atoms: C15_31  and  C16_32
REMARK    9  A    between atoms: C16_32  and  C17_33
REMARK   10  A    between atoms: C17_33  and  C18_34
ROOT
HETATM    1  C10 UNL     1      19.185  72.088  56.385  1.00  0.00     0.111 A
HETATM    2  C11 UNL     1      18.643  71.087  55.758  1.00  0.00     0.061 A
HETATM    3  N5  UNL     1      18.163  69.970  56.558  1.00  0.00    -0.309 N
ATOM      4  H5  UNL     1      18.653  69.694  57.409  1.00  0.00     0.170 HD
HETATM    5  C12 UNL     1      17.007  69.272  56.138  1.00  0.00     0.327 C
HETATM    6  O3  UNL     1      16.586  68.305  56.848  1.00  0.00    -0.247 OA
HETATM    7  N6  UNL     1      16.357  69.677  54.942  1.00  0.00    -0.278 N
ATOM      8  H6  UNL     1      15.519  69.189  54.625  1.00  0.00     0.173 HD
HETATM    9  C13 UNL     1      16.886  70.780  54.174  1.00  0.00     0.239 C
HETATM   10  O4  UNL     1      16.204  71.512  53.486  1.00  0.00    -0.272 OA
HETATM   11  C14 UNL     1      18.379  70.950  54.303  1.00  0.00     0.159 A
HETATM   12  C15 UNL     1      18.903  72.059  53.510  1.00  0.00    -0.057 A
HETATM   13  C19 UNL     1      19.478  73.080  54.069  1.00  0.00     0.061 A
HETATM   14  C20 UNL     1      19.662  73.202  55.478  1.00  0.00     0.200 A
HETATM   15  O6  UNL     1      20.205  74.208  55.970  1.00  0.00    -0.286 OA
ENDROOT
BRANCH   1  16
HETATM   16  N4  UNL     1      19.378  72.292  57.744  1.00  0.00    -0.304 N
HETATM   17  C9  UNL     1      18.712  72.647  58.905  1.00  0.00     0.320 C
HETATM   18  N3  UNL     1      19.504  72.623  60.145  1.00  0.00    -0.342 N
HETATM   19  O2  UNL     1      17.548  72.993  59.134  1.00  0.00    -0.247 OA
ATOM     20  H3  UNL     1      20.490  72.369  60.094  1.00  0.00     0.164 HD
ATOM     21  H4  UNL     1      20.358  72.120  57.968  1.00  0.00     0.171 HD
BRANCH  18  22
HETATM   22  C8  UNL     1      18.947  72.940  61.401  1.00  0.00     0.134 C
BRANCH  22  23
HETATM   23  C7  UNL     1      19.207  74.320  61.926  1.00  0.00     0.124 C
BRANCH  23  24
HETATM   24  C6  UNL     1      18.056  75.228  61.710  1.00  0.00     0.237 C
HETATM   25  N2  UNL     1      17.873  75.830  60.455  1.00  0.00    -0.270 N
ATOM     26  H2  UNL     1      18.552  75.625  59.722  1.00  0.00     0.190 HD
HETATM   27  O1  UNL     1      17.255  75.450  62.642  1.00  0.00    -0.272 OA
BRANCH  25  28
HETATM   28  N1  UNL     1      16.820  76.691  60.151  1.00  0.00    -0.299 N
ATOM     29  H1  UNL     1      16.061  76.815  60.822  1.00  0.00     0.187 HD
BRANCH  28  30
HETATM   30  C3  UNL     1      16.793  77.397  58.922  1.00  0.00     0.043 C
HETATM   31  C4  UNL     1      15.755  77.244  58.134  1.00  0.00    -0.000 C
HETATM   32  C5  UNL     1      14.641  76.372  58.519  1.00  0.00     0.038 C
BRANCH  30  33
HETATM   33  C2  UNL     1      17.870  78.262  58.518  1.00  0.00     0.020 C
HETATM   34  C1  UNL     1      18.088  78.628  57.283  1.00  0.00     0.013 C
ENDBRANCH  30  33
ENDBRANCH  28  30
ENDBRANCH  25  28
ENDBRANCH  23  24
ENDBRANCH  22  23
ENDBRANCH  18  22
ENDBRANCH   1  16
BRANCH  12  35
HETATM   35  C16 UNL     1      18.823  71.909  52.032  1.00  0.00     0.044 C
BRANCH  35  36
HETATM   36  C17 UNL     1      19.446  72.979  51.223  1.00  0.00     0.104 C
BRANCH  36  37
HETATM   37  C18 UNL     1      18.444  73.829  50.550  1.00  0.00     0.231 C
HETATM   38  N7  UNL     1      18.463  74.152  49.187  1.00  0.00    -0.062 NA
HETATM   39  O5  UNL     1      17.502  74.297  51.264  1.00  0.00    -0.277 OA
ENDBRANCH  36  37
ENDBRANCH  35  36
ENDBRANCH  12  35
TORSDOF 10
ENDMDL