MODEL 3
REMARK VINA RESULT: -7.802547784      2.717      8.953
REMARK  17 active torsions:
REMARK  status: ('A' for Active; 'I' for Inactive)
REMARK    1  A    between atoms: N1_5  and  C5_7
REMARK    2  A    between atoms: C5_7  and  C6_8
REMARK    3  A    between atoms: C6_8  and  C7_9
REMARK    4  A    between atoms: C7_9  and  C8_10
REMARK    5  A    between atoms: C8_10  and  N2_11
REMARK    6  A    between atoms: N3_16  and  C13_17
REMARK    7  A    between atoms: C13_17  and  C14_18
REMARK    8  A    between atoms: C13_17  and  C18_26
REMARK    9  A    between atoms: C14_18  and  C15_19
REMARK   10  A    between atoms: C15_19  and  C16_20
REMARK   11  A    between atoms: C16_20  and  N4_21
REMARK       I    between atoms: C18_26  and  N7_28
REMARK   12  A    between atoms: N7_28  and  C19_30
REMARK   13  A    between atoms: C19_30  and  C20_31
REMARK   14  A    between atoms: C19_30  and  C21_33
REMARK   15  A    between atoms: C21_33  and  C22_34
REMARK   16  A    between atoms: C22_34  and  C23_35
REMARK   17  A    between atoms: C23_35  and  N8_36
ROOT
HETATM    1  C13 UNL     1      35.227  -8.368   2.216  1.00  0.00     0.177 C
ENDROOT
BRANCH   1   2
HETATM    2  N3  UNL     1      36.252  -7.474   1.818  1.00  0.00    -0.357 N
HETATM    3  C4  UNL     1      36.134  -6.695   0.585  1.00  0.00     0.076 C
HETATM    4  C3  UNL     1      37.150  -5.616   0.571  1.00  0.00     0.082 C
HETATM    5  N1  UNL     1      35.300  -6.913  -0.364  1.00  0.00    -0.380 N
HETATM    6  C2  UNL     1      37.523  -5.563   2.060  1.00  0.00     0.006 C
HETATM    7  C1  UNL     1      36.382  -4.845   2.727  1.00  0.00     0.012 C
HETATM    8  C25 UNL     1      37.528  -7.067   2.343  1.00  0.00     0.129 C
ATOM      9  H1  UNL     1      34.632  -7.679  -0.269  1.00  0.00     0.160 HD
BRANCH   5  10
HETATM   10  C5  UNL     1      35.276  -6.105  -1.566  1.00  0.00     0.121 C
BRANCH  10  11
HETATM   11  C6  UNL     1      35.653  -6.964  -2.746  1.00  0.00     0.021 C
BRANCH  11  12
HETATM   12  C7  UNL     1      36.391  -6.154  -3.768  1.00  0.00     0.032 C
BRANCH  12  13
HETATM   13  C8  UNL     1      37.461  -5.355  -3.113  1.00  0.00     0.272 C
BRANCH  13  14
HETATM   14  N2  UNL     1      37.434  -3.952  -3.469  1.00  0.00     0.088 N
HETATM   15  C9  UNL     1      36.470  -3.597  -4.445  1.00  0.00     0.272 C
HETATM   16  C10 UNL     1      35.820  -2.293  -4.005  1.00  0.00     0.032 C
HETATM   17  C11 UNL     1      36.017  -2.317  -2.509  1.00  0.00     0.032 C
HETATM   18  C12 UNL     1      37.305  -3.087  -2.333  1.00  0.00     0.272 C
ENDBRANCH  13  14
ENDBRANCH  12  13
ENDBRANCH  11  12
ENDBRANCH  10  11
ENDBRANCH   5  10
ENDBRANCH   1   2
BRANCH   1  19
HETATM   19  C14 UNL     1      35.001  -8.591   3.668  1.00  0.00     0.037 C
BRANCH  19  20
HETATM   20  C15 UNL     1      36.152  -9.048   4.481  1.00  0.00     0.022 C
BRANCH  20  21
HETATM   21  C16 UNL     1      35.901 -10.420   5.109  1.00  0.00     0.122 C
BRANCH  21  22
HETATM   22  N4  UNL     1      36.946 -10.807   6.013  1.00  0.00    -0.367 N
HETATM   23  C17 UNL     1      37.630 -11.893   5.795  1.00  0.00     0.196 C
HETATM   24  N5  UNL     1      38.654 -12.266   6.687  1.00  0.00    -0.067 NA
HETATM   25  N6  UNL     1      37.354 -12.705   4.674  1.00  0.00    -0.067 NA
ATOM     26  H4  UNL     1      37.152 -10.230   6.828  1.00  0.00     0.161 HD
ENDBRANCH  21  22
ENDBRANCH  20  21
ENDBRANCH  19  20
ENDBRANCH   1  19
BRANCH   1  27
HETATM   27  C18 UNL     1      35.287  -9.721   1.579  1.00  0.00     0.241 C
HETATM   28  O1  UNL     1      36.445 -10.138   1.319  1.00  0.00    -0.271 OA
HETATM   29  N7  UNL     1      34.187 -10.529   1.264  1.00  0.00    -0.348 N
ATOM     30  H7  UNL     1      33.245 -10.197   1.470  1.00  0.00     0.163 HD
BRANCH  29  31
HETATM   31  C19 UNL     1      34.368 -11.826   0.651  1.00  0.00     0.146 C
BRANCH  31  32
HETATM   32  C20 UNL     1      34.368 -12.904   1.678  1.00  0.00     0.256 C
HETATM   33  O2  UNL     1      34.190 -12.578   2.854  1.00  0.00    -0.305 OA
ENDBRANCH  31  32
BRANCH  31  34
HETATM   34  C21 UNL     1      33.265 -12.109  -0.323  1.00  0.00     0.034 C
BRANCH  34  35
HETATM   35  C22 UNL     1      33.852 -12.355  -1.702  1.00  0.00     0.022 C
BRANCH  35  36
HETATM   36  C23 UNL     1      34.018 -10.984  -2.348  1.00  0.00     0.122 C
BRANCH  36  37
HETATM   37  N8  UNL     1      32.755 -10.487  -2.827  1.00  0.00    -0.367 N
HETATM   38  C24 UNL     1      32.188  -9.406  -2.361  1.00  0.00     0.196 C
HETATM   39  N9  UNL     1      32.829  -8.673  -1.338  1.00  0.00    -0.067 NA
HETATM   40  N10 UNL     1      30.938  -9.019  -2.919  1.00  0.00    -0.067 NA
ATOM     41  H8  UNL     1      32.280 -11.003  -3.567  1.00  0.00     0.161 HD
ENDBRANCH  36  37
ENDBRANCH  35  36
ENDBRANCH  34  35
ENDBRANCH  31  34
ENDBRANCH  29  31
ENDBRANCH   1  27
TORSDOF 17
ENDMDL