MODEL 5
REMARK VINA RESULT: -7.458623254      2.329      5.946
REMARK  18 active torsions:
REMARK  status: ('A' for Active; 'I' for Inactive)
REMARK    1  A    between atoms: C2_2  and  C3_3
REMARK    2  A    between atoms: C3_3  and  N1_4
REMARK    3  A    between atoms: N1_4  and  C4_6
REMARK    4  A    between atoms: C4_6  and  O1_7
REMARK    5  A    between atoms: C5_9  and  N2_10
REMARK    6  A    between atoms: N2_10  and  C7_12
REMARK    7  A    between atoms: N2_10  and  C15_26
REMARK    8  A    between atoms: C7_12  and  C8_13
REMARK    9  A    between atoms: C8_13  and  C9_14
REMARK   10  A    between atoms: C9_14  and  C10_15
REMARK   11  A    between atoms: C10_15  and  C11_16
REMARK   12  A    between atoms: C11_16  and  C12_17
REMARK   13  A    between atoms: C12_17  and  C13_18
REMARK   14  A    between atoms: C13_18  and  C14_19
REMARK   15  A    between atoms: C14_19  and  S1_20
REMARK   16  A    between atoms: S1_20  and  N3_21
REMARK   17  A    between atoms: C15_26  and  C16_27
REMARK       I    between atoms: C16_27  and  N4_29
REMARK   18  A    between atoms: N4_29  and  C17_31
ROOT
HETATM    1  N2  UNL     1      35.897  -8.618   2.475  1.00  0.00    -0.021 N
HETATM    2  C6  UNL     1      36.850  -9.671   2.259  1.00  0.00     0.284 C
ENDROOT
BRANCH   1   3
HETATM    3  C5  UNL     1      35.591  -8.457   3.838  1.00  0.00     0.263 C
HETATM    4  C4  UNL     1      35.177  -9.565   4.671  1.00  0.00     0.160 C
BRANCH   4   5
HETATM    5  N1  UNL     1      35.011 -10.902   4.377  1.00  0.00    -0.366 N
ATOM      6  H1  UNL     1      34.871 -11.189   3.407  1.00  0.00     0.161 HD
BRANCH   5   7
HETATM    7  C3  UNL     1      35.031 -11.918   5.432  1.00  0.00     0.148 C
BRANCH   7   8
HETATM    8  C2  UNL     1      34.036 -12.973   5.224  1.00  0.00    -0.018 C
HETATM    9  C1  UNL     1      34.152 -14.213   5.694  1.00  0.00     0.008 C
ENDBRANCH   7   8
ENDBRANCH   5   7
ENDBRANCH   4   5
BRANCH   4  10
HETATM   10  O1  UNL     1      34.919  -9.239   5.904  1.00  0.00    -0.345 OA
ATOM     11  H1  UNL     1      35.674  -8.971   6.414  1.00  0.00     0.219 HD
ENDBRANCH   4  10
ENDBRANCH   1   3
BRANCH   1  12
HETATM   12  C7  UNL     1      36.457  -7.410   1.882  1.00  0.00     0.248 C
BRANCH  12  13
HETATM   13  C8  UNL     1      37.232  -6.557   2.817  1.00  0.00     0.029 C
BRANCH  13  14
HETATM   14  C9  UNL     1      38.547  -6.071   2.186  1.00  0.00     0.002 C
BRANCH  14  15
HETATM   15  C10 UNL     1      38.111  -5.273   0.951  1.00  0.00     0.000 C
BRANCH  15  16
HETATM   16  C11 UNL     1      37.954  -3.806   1.284  1.00  0.00     0.000 C
BRANCH  16  17
HETATM   17  C12 UNL     1      38.176  -2.908   0.087  1.00  0.00     0.001 C
BRANCH  17  18
HETATM   18  C13 UNL     1      37.442  -3.530  -1.081  1.00  0.00     0.017 C
BRANCH  18  19
HETATM   19  C14 UNL     1      36.011  -3.079  -1.143  1.00  0.00     0.163 C
BRANCH  19  20
HETATM   20  S1  UNL     1      35.575  -2.726  -2.827  1.00  0.00     0.224 S
HETATM   21  O2  UNL     1      35.737  -1.249  -3.054  1.00  0.00    -0.206 OA
HETATM   22  O3  UNL     1      36.486  -3.494  -3.730  1.00  0.00    -0.206 OA
BRANCH  20  23
HETATM   23  N3  UNL     1      33.953  -3.179  -3.144  1.00  0.00    -0.328 N
ATOM     24  H32 UNL     1      33.598  -4.130  -3.035  1.00  0.00     0.168 HD
ATOM     25  H31 UNL     1      33.406  -2.375  -3.451  1.00  0.00     0.168 HD
ENDBRANCH  20  23
ENDBRANCH  19  20
ENDBRANCH  18  19
ENDBRANCH  17  18
ENDBRANCH  16  17
ENDBRANCH  15  16
ENDBRANCH  14  15
ENDBRANCH  13  14
ENDBRANCH  12  13
ENDBRANCH   1  12
BRANCH   1  26
HETATM   26  C15 UNL     1      34.663  -8.979   1.793  1.00  0.00     0.281 C
BRANCH  26  27
HETATM   27  C16 UNL     1      34.769  -9.566   0.477  1.00  0.00     0.265 C
HETATM   28  O4  UNL     1      35.144 -10.732   0.308  1.00  0.00    -0.267 OA
HETATM   29  N4  UNL     1      34.448  -8.829  -0.677  1.00  0.00    -0.350 N
ATOM     30  H4  UNL     1      34.141  -7.866  -0.534  1.00  0.00     0.163 HD
BRANCH  29  31
HETATM   31  C17 UNL     1      34.509  -9.289  -2.030  1.00  0.00     0.103 C
HETATM   32  C18 UNL     1      34.817  -8.230  -3.043  1.00  0.00     0.101 C
HETATM   33  C19 UNL     1      34.960  -8.879  -4.384  1.00  0.00     0.020 C
HETATM   34  C23 UNL     1      33.732  -7.189  -3.046  1.00  0.00     0.224 C
HETATM   35  C20 UNL     1      33.889  -9.870  -4.722  1.00  0.00    -0.011 C
HETATM   36  C21 UNL     1      32.501  -9.258  -4.676  1.00  0.00     0.030 C
HETATM   37  C25 UNL     1      33.726 -10.933  -3.625  1.00  0.00     0.013 C
HETATM   38  C22 UNL     1      32.273  -9.137  -3.171  1.00  0.00     0.090 C
HETATM   39  N5  UNL     1      32.412  -7.732  -2.867  1.00  0.00    -0.356 N
HETATM   40  C24 UNL     1      33.259 -10.012  -2.487  1.00  0.00     0.032 C
ATOM     41  H5  UNL     1      31.628  -7.163  -2.547  1.00  0.00     0.162 HD
HETATM   42  O5  UNL     1      33.950  -5.980  -3.188  1.00  0.00    -0.273 OA
ENDBRANCH  29  31
ENDBRANCH  26  27
ENDBRANCH   1  26
TORSDOF 18
ENDMDL