MODEL 3
REMARK VINA RESULT: -6.953152502      1.431      1.795
REMARK  18 active torsions:
REMARK  status: ('A' for Active; 'I' for Inactive)
REMARK       I    between atoms: C1_4  and  N3_6
REMARK       I    between atoms: N4_9  and  C4_10
REMARK    1  A    between atoms: C4_10  and  C5_12
REMARK    2  A    between atoms: C5_12  and  C6_13
REMARK    3  A    between atoms: C5_12  and  N6_21
REMARK    4  A    between atoms: C6_13  and  C7_14
REMARK    5  A    between atoms: C7_14  and  C8_15
REMARK    6  A    between atoms: C8_15  and  C9_16
REMARK    7  A    between atoms: C9_16  and  N5_17
REMARK    8  A    between atoms: N6_21  and  S1_23
REMARK    9  A    between atoms: S1_23  and  C10_26
REMARK   10  A    between atoms: C10_26  and  C11_27
REMARK   11  A    between atoms: C11_27  and  C12_28
REMARK   12  A    between atoms: C12_28  and  C13_29
REMARK   13  A    between atoms: C13_29  and  C14_30
REMARK   14  A    between atoms: C14_30  and  C15_31
REMARK   15  A    between atoms: C15_31  and  C16_32
REMARK   16  A    between atoms: C16_32  and  C17_33
REMARK   17  A    between atoms: C17_33  and  C18_34
REMARK   18  A    between atoms: C18_34  and  C19_35
REMARK       I    between atoms: C19_35  and  N7_37
ROOT
HETATM    1  C5  UNL     1      34.197  -8.342  -1.048  1.00  0.00     0.184 C
ENDROOT
BRANCH   1   2
HETATM    2  C4  UNL     1      34.075  -6.943  -1.500  1.00  0.00     0.243 C
HETATM    3  N4  UNL     1      34.930  -6.332  -2.423  1.00  0.00    -0.347 N
HETATM    4  C3  UNL     1      34.712  -4.926  -2.798  1.00  0.00     0.145 C
HETATM    5  C21 UNL     1      36.051  -6.966  -3.069  1.00  0.00     0.145 C
HETATM    6  C2  UNL     1      35.897  -4.173  -2.178  1.00  0.00     0.145 C
HETATM    7  N3  UNL     1      37.109  -4.916  -2.443  1.00  0.00    -0.353 N
HETATM    8  C1  UNL     1      38.296  -4.652  -1.726  1.00  0.00     0.184 C
HETATM    9  C22 UNL     1      37.103  -5.944  -3.461  1.00  0.00     0.145 C
HETATM   10  N1  UNL     1      39.109  -5.586  -1.360  1.00  0.00    -0.374 N
HETATM   11  N2  UNL     1      38.678  -3.317  -1.353  1.00  0.00    -0.064 NA
ATOM     12  H12 UNL     1      39.967  -5.395  -0.842  1.00  0.00     0.158 HD
ATOM     13  H11 UNL     1      38.838  -6.533  -1.625  1.00  0.00     0.158 HD
HETATM   14  O1  UNL     1      33.116  -6.261  -1.001  1.00  0.00    -0.271 OA
ENDBRANCH   1   2
BRANCH   1  15
HETATM   15  C6  UNL     1      33.237  -9.284  -1.786  1.00  0.00     0.035 C
BRANCH  15  16
HETATM   16  C7  UNL     1      34.018 -10.335  -2.501  1.00  0.00     0.004 C
BRANCH  16  17
HETATM   17  C8  UNL     1      34.008 -11.644  -1.746  1.00  0.00     0.027 C
BRANCH  17  18
HETATM   18  C9  UNL     1      32.837 -11.726  -0.809  1.00  0.00     0.229 C
BRANCH  18  19
HETATM   19  N5  UNL     1      33.368 -11.974   0.533  1.00  0.00    -0.079 N
ATOM     20  H53 UNL     1      34.030 -12.748   0.562  1.00  0.00     0.274 HD
ATOM     21  H52 UNL     1      34.003 -11.243   0.851  1.00  0.00     0.274 HD
ATOM     22  H51 UNL     1      32.571 -12.108   1.156  1.00  0.00     0.274 HD
ENDBRANCH  18  19
ENDBRANCH  17  18
ENDBRANCH  16  17
ENDBRANCH  15  16
ENDBRANCH   1  15
BRANCH   1  23
HETATM   23  N6  UNL     1      33.870  -8.485   0.349  1.00  0.00    -0.306 N
ATOM     24  H6  UNL     1      32.934  -8.351   0.730  1.00  0.00     0.173 HD
BRANCH  23  25
HETATM   25  S1  UNL     1      35.248  -8.911   1.305  1.00  0.00     0.227 S
HETATM   26  O2  UNL     1      36.256  -7.805   1.317  1.00  0.00    -0.206 OA
HETATM   27  O3  UNL     1      35.855 -10.120   0.661  1.00  0.00    -0.206 OA
BRANCH  25  28
HETATM   28  C10 UNL     1      34.681  -9.181   2.945  1.00  0.00     0.163 C
BRANCH  28  29
HETATM   29  C11 UNL     1      35.531  -8.583   4.026  1.00  0.00     0.017 C
BRANCH  29  30
HETATM   30  C12 UNL     1      35.922  -9.578   5.059  1.00  0.00     0.001 C
BRANCH  30  31
HETATM   31  C13 UNL     1      36.534 -10.831   4.447  1.00  0.00     0.000 C
BRANCH  31  32
HETATM   32  C14 UNL     1      36.205 -12.076   5.218  1.00  0.00     0.000 C
BRANCH  32  33
HETATM   33  C15 UNL     1      34.755 -12.021   5.614  1.00  0.00     0.000 C
BRANCH  33  34
HETATM   34  C16 UNL     1      33.825 -12.626   4.608  1.00  0.00     0.000 C
BRANCH  34  35
HETATM   35  C17 UNL     1      34.438 -13.944   4.146  1.00  0.00     0.009 C
BRANCH  35  36
HETATM   36  C18 UNL     1      33.751 -15.126   4.792  1.00  0.00     0.103 C
BRANCH  36  37
HETATM   37  C19 UNL     1      34.790 -15.886   5.531  1.00  0.00     0.223 C
HETATM   38  O4  UNL     1      36.015 -15.776   5.322  1.00  0.00    -0.273 OA
HETATM   39  N7  UNL     1      34.321 -16.795   6.537  1.00  0.00    -0.304 N
HETATM   40  C20 UNL     1      34.204 -18.064   6.290  1.00  0.00     0.203 C
ATOM     41  H7  UNL     1      34.077 -16.438   7.460  1.00  0.00     0.171 HD
HETATM   42  N8  UNL     1      33.732 -18.892   7.344  1.00  0.00    -0.066 NA
HETATM   43  N9  UNL     1      34.531 -18.617   5.020  1.00  0.00    -0.066 NA
ENDBRANCH  36  37
ENDBRANCH  35  36
ENDBRANCH  34  35
ENDBRANCH  33  34
ENDBRANCH  32  33
ENDBRANCH  31  32
ENDBRANCH  30  31
ENDBRANCH  29  30
ENDBRANCH  28  29
ENDBRANCH  25  28
ENDBRANCH  23  25
ENDBRANCH   1  23
TORSDOF 18
ENDMDL