MODEL 1
REMARK VINA RESULT: -7.845081537      0.000      0.000
REMARK  17 active torsions:
REMARK  status: ('A' for Active; 'I' for Inactive)
REMARK    1  A    between atoms: C3_3  and  C4_4
REMARK    2  A    between atoms: C4_4  and  C5_5
REMARK    3  A    between atoms: C5_5  and  N1_6
REMARK    4  A    between atoms: N1_6  and  C6_8
REMARK    5  A    between atoms: C6_8  and  C11_19
REMARK    6  A    between atoms: N2_9  and  C7_11
REMARK    7  A    between atoms: C7_11  and  C8_12
REMARK    8  A    between atoms: C8_12  and  C9_13
REMARK    9  A    between atoms: C9_13  and  N3_14
REMARK   10  A    between atoms: C14_22  and  C15_23
REMARK   11  A    between atoms: C15_23  and  C16_24
REMARK   12  A    between atoms: C16_24  and  C17_25
REMARK   13  A    between atoms: C17_25  and  C18_26
REMARK   14  A    between atoms: N7_31  and  C20_32
REMARK   15  A    between atoms: C20_32  and  C21_33
REMARK   16  A    between atoms: C21_33  and  C22_34
REMARK   17  A    between atoms: C22_34  and  N8_35
ROOT
HETATM    1  C1  UNL     1      32.647 -13.519  -0.922  1.00  0.00     0.012 C
HETATM    2  C2  UNL     1      32.781 -12.332  -1.054  1.00  0.00    -0.117 C
HETATM    3  C3  UNL     1      32.972 -10.868  -1.208  1.00  0.00     0.094 C
ENDROOT
BRANCH   3   4
HETATM    4  C4  UNL     1      34.354 -10.540  -0.676  1.00  0.00     0.032 C
BRANCH   4   5
HETATM    5  C5  UNL     1      34.506  -9.046  -0.439  1.00  0.00     0.122 C
BRANCH   5   6
HETATM    6  N1  UNL     1      34.306  -8.683   0.927  1.00  0.00    -0.376 N
ATOM      7  H1  UNL     1      33.352  -8.531   1.256  1.00  0.00     0.161 HD
BRANCH   6   8
HETATM    8  C6  UNL     1      35.401  -8.520   1.872  1.00  0.00     0.107 C
HETATM    9  N2  UNL     1      36.214  -7.585   1.662  1.00  0.00    -0.376 N
ATOM     10  H2  UNL     1      36.025  -7.021   0.834  1.00  0.00     0.161 HD
BRANCH   9  11
HETATM   11  C7  UNL     1      37.348  -7.204   2.405  1.00  0.00     0.123 C
BRANCH  11  12
HETATM   12  C8  UNL     1      37.824  -5.805   1.996  1.00  0.00     0.039 C
BRANCH  12  13
HETATM   13  C9  UNL     1      36.615  -4.903   1.869  1.00  0.00     0.123 C
BRANCH  13  14
HETATM   14  N3  UNL     1      36.818  -3.994   0.787  1.00  0.00    -0.367 N
HETATM   15  C10 UNL     1      36.334  -4.218  -0.388  1.00  0.00     0.196 C
HETATM   16  N4  UNL     1      36.573  -3.267  -1.432  1.00  0.00    -0.067 NA
HETATM   17  N5  UNL     1      35.586  -5.394  -0.594  1.00  0.00    -0.067 NA
ATOM     18  H3  UNL     1      37.360  -3.145   0.947  1.00  0.00     0.161 HD
ENDBRANCH  13  14
ENDBRANCH  12  13
ENDBRANCH  11  12
ENDBRANCH   9  11
BRANCH   8  19
HETATM   19  C11 UNL     1      35.493  -9.458   2.983  1.00  0.00     0.007 A
HETATM   20  C12 UNL     1      35.615  -9.023   4.308  1.00  0.00     0.016 A
HETATM   21  C13 UNL     1      35.668  -9.950   5.328  1.00  0.00     0.008 A
HETATM   22  C14 UNL     1      35.603 -11.305   5.089  1.00  0.00    -0.058 A
HETATM   23  C25 UNL     1      35.482 -11.708   3.760  1.00  0.00     0.008 A
HETATM   24  C26 UNL     1      35.428 -10.806   2.717  1.00  0.00     0.016 A
BRANCH  22  25
HETATM   25  C15 UNL     1      35.653 -12.330   6.188  1.00  0.00     0.039 C
BRANCH  25  26
HETATM   26  C16 UNL     1      36.943 -13.130   5.985  1.00  0.00     0.011 C
BRANCH  26  27
HETATM   27  C17 UNL     1      38.119 -12.182   5.953  1.00  0.00     0.063 C
BRANCH  27  28
HETATM   28  C18 UNL     1      38.719 -12.162   7.324  1.00  0.00     0.082 A
HETATM   29  N6  UNL     1      38.455 -11.282   8.225  1.00  0.00    -0.307 N
HETATM   30  C19 UNL     1      39.208 -11.567   9.421  1.00  0.00     0.329 A
ATOM     31  H6  UNL     1      37.809 -10.501   8.109  1.00  0.00     0.170 HD
HETATM   32  O1  UNL     1      39.148 -10.869  10.478  1.00  0.00    -0.246 OA
HETATM   33  N7  UNL     1      39.987 -12.714   9.207  1.00  0.00    -0.265 N
HETATM   34  C24 UNL     1      39.680 -13.114   7.848  1.00  0.00     0.274 A
HETATM   35  O2  UNL     1      40.141 -14.094   7.216  1.00  0.00    -0.266 OA
BRANCH  33  36
HETATM   36  C20 UNL     1      40.937 -13.451   9.988  1.00  0.00     0.139 C
BRANCH  36  37
HETATM   37  C21 UNL     1      42.283 -12.791   9.966  1.00  0.00     0.040 C
BRANCH  37  38
HETATM   38  C22 UNL     1      43.367 -13.765   9.648  1.00  0.00     0.123 C
BRANCH  38  39
HETATM   39  N8  UNL     1      42.906 -14.716   8.647  1.00  0.00    -0.367 N
HETATM   40  C23 UNL     1      43.523 -14.782   7.536  1.00  0.00     0.196 C
HETATM   41  N9  UNL     1      44.629 -13.949   7.285  1.00  0.00    -0.067 NA
HETATM   42  N10 UNL     1      43.102 -15.693   6.551  1.00  0.00    -0.067 NA
ATOM     43  H8  UNL     1      42.103 -15.316   8.833  1.00  0.00     0.161 HD
ENDBRANCH  38  39
ENDBRANCH  37  38
ENDBRANCH  36  37
ENDBRANCH  33  36
ENDBRANCH  27  28
ENDBRANCH  26  27
ENDBRANCH  25  26
ENDBRANCH  22  25
ENDBRANCH   8  19
ENDBRANCH   6   8
ENDBRANCH   5   6
ENDBRANCH   4   5
ENDBRANCH   3   4
TORSDOF 17
ENDMDL