MODEL 1
REMARK VINA RESULT: -8.038717162      0.000      0.000
REMARK  16 active torsions:
REMARK  status: ('A' for Active; 'I' for Inactive)
REMARK       I    between atoms: N1_2  and  C2_3
REMARK    1  A    between atoms: N1_2  and  C18_21
REMARK    2  A    between atoms: C2_3  and  C3_5
REMARK    3  A    between atoms: C3_5  and  C4_6
REMARK    4  A    between atoms: C4_6  and  C5_7
REMARK    5  A    between atoms: C5_7  and  C6_8
REMARK    6  A    between atoms: C6_8  and  O2_9
REMARK    7  A    between atoms: O2_9  and  C7_10
REMARK    8  A    between atoms: C7_10  and  C8_11
REMARK    9  A    between atoms: C18_21  and  C19_22
REMARK   10  A    between atoms: C18_21  and  C23_30
REMARK   11  A    between atoms: C19_22  and  C20_23
REMARK   12  A    between atoms: C20_23  and  C21_24
REMARK   13  A    between atoms: C21_24  and  N2_25
REMARK       I    between atoms: C23_30  and  N5_32
REMARK   14  A    between atoms: N5_32  and  C24_34
REMARK   15  A    between atoms: C24_34  and  C25_35
REMARK   16  A    between atoms: C25_35  and  N6_36
ROOT
HETATM    1  C1  UNL     1      37.012 -11.618   4.689  1.00  0.00     0.153 C
HETATM    2  N1  UNL     1      35.668 -11.478   4.112  1.00  0.00    -0.343 N
HETATM    3  C2  UNL     1      34.847 -12.610   4.140  1.00  0.00     0.220 C
HETATM    4  O1  UNL     1      33.683 -12.630   3.685  1.00  0.00    -0.273 OA
ENDROOT
BRANCH   2   5
HETATM    5  C18 UNL     1      35.319 -10.174   3.571  1.00  0.00     0.178 C
BRANCH   5   6
HETATM    6  C19 UNL     1      36.139  -9.051   4.051  1.00  0.00     0.037 C
BRANCH   6   7
HETATM    7  C20 UNL     1      35.830  -7.692   3.541  1.00  0.00     0.022 C
BRANCH   7   8
HETATM    8  C21 UNL     1      36.847  -7.032   2.680  1.00  0.00     0.122 C
BRANCH   8   9
HETATM    9  N2  UNL     1      36.488  -6.858   1.308  1.00  0.00    -0.367 N
HETATM   10  C22 UNL     1      36.531  -5.678   0.754  1.00  0.00     0.196 C
HETATM   11  N3  UNL     1      36.166  -5.563  -0.600  1.00  0.00    -0.067 NA
HETATM   12  N4  UNL     1      36.939  -4.533   1.502  1.00  0.00    -0.067 NA
ATOM     13  H2  UNL     1      36.195  -7.664   0.755  1.00  0.00     0.161 HD
ENDBRANCH   8   9
ENDBRANCH   7   8
ENDBRANCH   6   7
ENDBRANCH   5   6
BRANCH   5  14
HETATM   14  C23 UNL     1      35.404 -10.356   2.073  1.00  0.00     0.240 C
HETATM   15  O3  UNL     1      36.533 -10.213   1.550  1.00  0.00    -0.271 OA
HETATM   16  N5  UNL     1      34.289 -10.667   1.280  1.00  0.00    -0.358 N
ATOM     17  H5  UNL     1      33.374 -10.777   1.717  1.00  0.00     0.162 HD
BRANCH  16  18
HETATM   18  C24 UNL     1      34.420 -10.831  -0.140  1.00  0.00     0.142 C
BRANCH  18  19
HETATM   19  C25 UNL     1      34.115  -9.580  -0.905  1.00  0.00     0.141 C
BRANCH  19  20
HETATM   20  N6  UNL     1      32.866  -9.793  -1.633  1.00  0.00    -0.365 N
HETATM   21  C26 UNL     1      32.276  -8.817  -2.182  1.00  0.00     0.197 C
HETATM   22  N7  UNL     1      32.809  -7.517  -2.102  1.00  0.00    -0.067 NA
HETATM   23  N8  UNL     1      31.062  -9.072  -2.871  1.00  0.00    -0.067 NA
ATOM     24  H6  UNL     1      32.469 -10.730  -1.701  1.00  0.00     0.161 HD
ENDBRANCH  19  20
ENDBRANCH  18  19
ENDBRANCH  16  18
ENDBRANCH   5  14
ENDBRANCH   2   5
BRANCH   3  25
HETATM   25  C3  UNL     1      35.322 -13.914   4.735  1.00  0.00     0.103 C
BRANCH  25  26
HETATM   26  C4  UNL     1      34.376 -14.372   5.779  1.00  0.00     0.011 C
BRANCH  26  27
HETATM   27  C5  UNL     1      34.500 -15.797   6.180  1.00  0.00     0.027 C
BRANCH  27  28
HETATM   28  C6  UNL     1      35.855 -16.397   5.942  1.00  0.00     0.167 C
BRANCH  28  29
HETATM   29  O2  UNL     1      36.640 -16.350   7.052  1.00  0.00    -0.391 OA
BRANCH  29  30
HETATM   30  C7  UNL     1      37.788 -15.610   6.981  1.00  0.00     0.172 C
BRANCH  30  31
HETATM   31  C8  UNL     1      38.066 -14.993   8.341  1.00  0.00     0.014 C
HETATM   32  C9  UNL     1      38.381 -16.062   9.358  1.00  0.00     0.007 C
HETATM   33  C10 UNL     1      39.853 -16.391   9.341  1.00  0.00     0.001 C
HETATM   34  C11 UNL     1      40.694 -15.196   9.662  1.00  0.00     0.005 C
HETATM   35  C12 UNL     1      39.828 -13.976   9.663  1.00  0.00    -0.010 C
HETATM   36  C13 UNL     1      40.656 -12.695   9.848  1.00  0.00     0.005 C
HETATM   37  C17 UNL     1      39.085 -13.907   8.329  1.00  0.00    -0.004 C
HETATM   38  C14 UNL     1      39.651 -11.644  10.305  1.00  0.00     0.000 C
HETATM   39  C15 UNL     1      38.321 -11.927   9.683  1.00  0.00     0.000 C
HETATM   40  C16 UNL     1      38.441 -12.520   8.298  1.00  0.00     0.005 C
ENDBRANCH  30  31
ENDBRANCH  29  30
ENDBRANCH  28  29
ENDBRANCH  27  28
ENDBRANCH  26  27
ENDBRANCH  25  26
ENDBRANCH   3  25
TORSDOF 16
ENDMDL