MODEL 5
REMARK VINA RESULT: -6.687443959      1.981      2.595
REMARK  18 active torsions:
REMARK  status: ('A' for Active; 'I' for Inactive)
REMARK    1  A    between atoms: C2_2  and  C3_3
REMARK    2  A    between atoms: C3_3  and  C4_4
REMARK    3  A    between atoms: C4_4  and  N1_5
REMARK    4  A    between atoms: C5_7  and  C6_8
REMARK    5  A    between atoms: C5_7  and  N6_29
REMARK    6  A    between atoms: C6_8  and  C7_9
REMARK    7  A    between atoms: C7_9  and  N2_10
REMARK    8  A    between atoms: N2_10  and  C8_11
REMARK       I    between atoms: N2_10  and  C12_19
REMARK    9  A    between atoms: C8_11  and  C9_12
REMARK   10  A    between atoms: C9_12  and  C10_13
REMARK   11  A    between atoms: C10_13  and  N3_14
REMARK   12  A    between atoms: N3_14  and  C11_16
REMARK   13  A    between atoms: C12_19  and  C13_21
REMARK   14  A    between atoms: N6_29  and  C18_31
REMARK   15  A    between atoms: C18_31  and  C19_32
REMARK   16  A    between atoms: C19_32  and  C20_33
REMARK   17  A    between atoms: C20_33  and  C21_34
REMARK   18  A    between atoms: C21_34  and  N7_35
ROOT
HETATM    1  N1  UNL     1      36.117  -7.615   2.452  1.00  0.00    -0.380 N
ATOM      2  H1  UNL     1      36.239  -7.715   1.444  1.00  0.00     0.160 HD
HETATM    3  C5  UNL     1      35.348  -8.479   2.968  1.00  0.00     0.074 C
ENDROOT
BRANCH   3   4
HETATM    4  C6  UNL     1      34.755  -9.496   1.997  1.00  0.00     0.096 C
BRANCH   4   5
HETATM    5  C7  UNL     1      35.345  -9.140   0.674  1.00  0.00     0.133 C
BRANCH   5   6
HETATM    6  N2  UNL     1      34.499  -8.953  -0.444  1.00  0.00    -0.350 N
HETATM    7  C12 UNL     1      34.043 -10.007  -1.250  1.00  0.00     0.250 C
HETATM    8  O1  UNL     1      33.273  -9.713  -2.229  1.00  0.00    -0.271 OA
BRANCH   6   9
HETATM    9  C8  UNL     1      34.004  -7.604  -0.772  1.00  0.00     0.127 C
BRANCH   9  10
HETATM   10  C9  UNL     1      35.175  -6.736  -1.132  1.00  0.00     0.039 C
BRANCH  10  11
HETATM   11  C10 UNL     1      35.511  -6.975  -2.600  1.00  0.00     0.123 C
BRANCH  11  12
HETATM   12  N3  UNL     1      35.876  -5.720  -3.201  1.00  0.00    -0.369 N
ATOM     13  H3  UNL     1      35.377  -5.408  -4.034  1.00  0.00     0.161 HD
BRANCH  12  14
HETATM   14  C11 UNL     1      36.901  -4.909  -2.677  1.00  0.00     0.180 C
HETATM   15  N4  UNL     1      38.238  -5.444  -2.575  1.00  0.00    -0.070 NA
HETATM   16  S1  UNL     1      36.714  -3.387  -2.141  1.00  0.00    -0.044 SA
ENDBRANCH  12  14
ENDBRANCH  11  12
ENDBRANCH  10  11
ENDBRANCH   9  10
ENDBRANCH   6   9
BRANCH   7  17
HETATM   17  C13 UNL     1      34.378 -11.425  -1.052  1.00  0.00     0.277 C
HETATM   18  C14 UNL     1      34.437 -12.234  -2.294  1.00  0.00     0.043 C
HETATM   19  C15 UNL     1      33.476 -13.333  -2.487  1.00  0.00     0.004 C
HETATM   20  C16 UNL     1      32.736 -13.788  -1.249  1.00  0.00     0.027 C
HETATM   21  C17 UNL     1      32.309 -12.485  -0.555  1.00  0.00     0.233 C
HETATM   22  N5  UNL     1      33.509 -11.929  -0.017  1.00  0.00    -0.062 N
ATOM     23  H52 UNL     1      33.993 -12.598   0.580  1.00  0.00     0.278 HD
ATOM     24  H51 UNL     1      33.306 -11.211   0.678  1.00  0.00     0.278 HD
ENDBRANCH   7  17
ENDBRANCH   5   6
ENDBRANCH   4   5
ENDBRANCH   3   4
BRANCH   3  25
HETATM   25  N6  UNL     1      34.972  -8.625   4.315  1.00  0.00    -0.380 N
ATOM     26  H6  UNL     1      34.099  -8.173   4.585  1.00  0.00     0.160 HD
BRANCH  25  27
HETATM   27  C18 UNL     1      35.657  -9.326   5.353  1.00  0.00     0.121 C
BRANCH  27  28
HETATM   28  C19 UNL     1      35.570 -10.830   5.102  1.00  0.00     0.021 C
BRANCH  28  29
HETATM   29  C20 UNL     1      37.018 -11.306   4.982  1.00  0.00     0.021 C
BRANCH  29  30
HETATM   30  C21 UNL     1      37.156 -12.600   5.712  1.00  0.00     0.126 C
BRANCH  30  31
HETATM   31  N7  UNL     1      38.187 -12.492   6.762  1.00  0.00    -0.349 N
HETATM   32  C22 UNL     1      38.652 -11.173   7.128  1.00  0.00     0.153 C
HETATM   33  C23 UNL     1      39.900 -11.323   7.963  1.00  0.00     0.252 C
HETATM   34  N8  UNL     1      40.727 -12.430   7.452  1.00  0.00    -0.065 N
HETATM   35  C24 UNL     1      40.117 -13.688   7.839  1.00  0.00     0.334 C
ATOM     36  H82 UNL     1      40.883 -12.367   6.446  1.00  0.00     0.277 HD
ATOM     37  H81 UNL     1      41.699 -12.361   7.752  1.00  0.00     0.277 HD
HETATM   38  C25 UNL     1      38.701 -13.645   7.401  1.00  0.00     0.245 C
HETATM   39  O2  UNL     1      37.901 -14.620   7.573  1.00  0.00    -0.272 OA
ENDBRANCH  30  31
ENDBRANCH  29  30
ENDBRANCH  28  29
ENDBRANCH  27  28
ENDBRANCH  25  27
ENDBRANCH   3  25
BRANCH   1  40
HETATM   40  C4  UNL     1      36.836  -6.541   3.017  1.00  0.00     0.121 C
BRANCH  40  41
HETATM   41  C3  UNL     1      38.133  -6.333   2.273  1.00  0.00     0.019 C
BRANCH  41  42
HETATM   42  C2  UNL     1      37.923  -5.491   1.035  1.00  0.00    -0.003 C
HETATM   43  C1  UNL     1      37.880  -4.026   1.408  1.00  0.00     0.005 C
ENDBRANCH  41  42
ENDBRANCH  40  41
ENDBRANCH   1  40
TORSDOF 18
ENDMDL