MODEL 2
REMARK VINA RESULT: -7.711558493      1.902      4.774
REMARK  15 active torsions:
REMARK  status: ('A' for Active; 'I' for Inactive)
REMARK    1  A    between atoms: C2_2  and  C3_3
REMARK    2  A    between atoms: C3_3  and  C4_4
REMARK    3  A    between atoms: C6_8  and  C7_9
REMARK    4  A    between atoms: C7_9  and  C8_10
REMARK    5  A    between atoms: C12_20  and  C13_21
REMARK       I    between atoms: C13_21  and  N4_23
REMARK    6  A    between atoms: N4_23  and  C14_25
REMARK    7  A    between atoms: C14_25  and  C15_26
REMARK    8  A    between atoms: C15_26  and  C16_27
REMARK    9  A    between atoms: C16_27  and  N5_28
REMARK   10  A    between atoms: N6_31  and  C19_32
REMARK   11  A    between atoms: C19_32  and  C20_33
REMARK   12  A    between atoms: C20_33  and  C21_34
REMARK   13  A    between atoms: C21_34  and  C22_35
REMARK   14  A    between atoms: C22_35  and  N7_36
REMARK   15  A    between atoms: N7_36  and  C23_38
ROOT
HETATM    1  C13 UNL     1      35.390 -10.474   2.104  1.00  0.00     0.254 C
HETATM    2  O3  UNL     1      36.471 -11.012   2.320  1.00  0.00    -0.268 OA
HETATM    3  N4  UNL     1      34.275 -11.098   2.787  1.00  0.00    -0.357 N
ATOM      4  H4  UNL     1      33.345 -10.696   2.677  1.00  0.00     0.162 HD
ENDROOT
BRANCH   1   5
HETATM    5  C12 UNL     1      35.130  -9.302   1.260  1.00  0.00     0.062 A
HETATM    6  C4  UNL     1      35.813  -8.102   1.388  1.00  0.00     0.025 A
HETATM    7  N1  UNL     1      35.428  -7.359   0.312  1.00  0.00    -0.368 N
HETATM    8  C5  UNL     1      34.570  -8.024  -0.433  1.00  0.00     0.096 A
ATOM      9  H1  UNL     1      35.760  -6.417   0.111  1.00  0.00     0.165 HD
HETATM   10  C6  UNL     1      34.338  -9.319   0.159  1.00  0.00    -0.021 A
BRANCH   6  11
HETATM   11  C3  UNL     1      36.681  -7.590   2.466  1.00  0.00     0.057 C
BRANCH  11  12
HETATM   12  C2  UNL     1      37.190  -6.216   2.058  1.00  0.00     0.002 C
HETATM   13  C1  UNL     1      38.670  -6.073   2.072  1.00  0.00     0.005 C
ENDBRANCH  11  12
ENDBRANCH   6  11
BRANCH  10  14
HETATM   14  C7  UNL     1      33.348 -10.229  -0.446  1.00  0.00     0.086 C
BRANCH  14  15
HETATM   15  C8  UNL     1      33.901 -11.317  -1.260  1.00  0.00     0.030 A
HETATM   16  C9  UNL     1      34.144 -10.971  -2.614  1.00  0.00     0.105 A
HETATM   17  N2  UNL     1      34.579 -11.849  -3.520  1.00  0.00    -0.318 N
HETATM   18  C10 UNL     1      34.807 -13.120  -3.174  1.00  0.00     0.326 A
ATOM     19  H2  UNL     1      34.738 -11.548  -4.482  1.00  0.00     0.170 HD
HETATM   20  O1  UNL     1      35.219 -13.995  -3.992  1.00  0.00    -0.247 OA
HETATM   21  N3  UNL     1      34.595 -13.498  -1.912  1.00  0.00    -0.275 N
HETATM   22  C11 UNL     1      34.146 -12.608  -0.955  1.00  0.00     0.257 A
ATOM     23  H3  UNL     1      34.770 -14.467  -1.647  1.00  0.00     0.173 HD
HETATM   24  O2  UNL     1      33.978 -13.018   0.208  1.00  0.00    -0.267 OA
ENDBRANCH  14  15
ENDBRANCH  10  14
ENDBRANCH   1   5
BRANCH   3  25
HETATM   25  C14 UNL     1      34.431 -12.264   3.612  1.00  0.00     0.124 C
BRANCH  25  26
HETATM   26  C15 UNL     1      34.662 -11.856   5.041  1.00  0.00     0.050 C
BRANCH  26  27
HETATM   27  C16 UNL     1      35.772 -12.606   5.688  1.00  0.00     0.274 C
BRANCH  27  28
HETATM   28  N5  UNL     1      37.091 -12.352   5.222  1.00  0.00     0.098 N
HETATM   29  C17 UNL     1      37.738 -11.242   5.854  1.00  0.00     0.292 C
HETATM   30  C18 UNL     1      38.766 -11.656   6.886  1.00  0.00     0.156 C
HETATM   31  N6  UNL     1      38.231 -12.801   7.599  1.00  0.00    -0.349 N
HETATM   32  C24 UNL     1      37.866 -13.918   6.784  1.00  0.00     0.248 C
HETATM   33  O5  UNL     1      37.610 -15.037   7.267  1.00  0.00    -0.271 OA
HETATM   34  C25 UNL     1      37.830 -13.600   5.316  1.00  0.00     0.374 C
BRANCH  31  35
HETATM   35  C19 UNL     1      38.044 -12.849   9.033  1.00  0.00     0.126 C
BRANCH  35  36
HETATM   36  C20 UNL     1      39.038 -11.930   9.709  1.00  0.00     0.021 C
BRANCH  36  37
HETATM   37  C21 UNL     1      40.175 -12.710  10.312  1.00  0.00     0.021 C
BRANCH  37  38
HETATM   38  C22 UNL     1      41.432 -12.496   9.497  1.00  0.00     0.122 C
BRANCH  38  39
HETATM   39  N7  UNL     1      42.616 -12.498  10.332  1.00  0.00    -0.368 N
ATOM     40  H7  UNL     1      42.984 -11.604  10.658  1.00  0.00     0.161 HD
BRANCH  39  41
HETATM   41  C23 UNL     1      43.285 -13.681  10.714  1.00  0.00     0.348 C
HETATM   42  O4  UNL     1      44.188 -13.646  11.571  1.00  0.00    -0.284 OA
ENDBRANCH  39  41
ENDBRANCH  38  39
ENDBRANCH  37  38
ENDBRANCH  36  37
ENDBRANCH  35  36
ENDBRANCH  31  35
ENDBRANCH  27  28
ENDBRANCH  26  27
ENDBRANCH  25  26
ENDBRANCH   3  25
TORSDOF 15
ENDMDL