MODEL 5
REMARK VINA RESULT: -6.858935489      1.680      2.142
REMARK  16 active torsions:
REMARK  status: ('A' for Active; 'I' for Inactive)
REMARK    1  A    between atoms: C2_2  and  C3_3
REMARK    2  A    between atoms: C3_3  and  C4_4
REMARK    3  A    between atoms: C4_4  and  N1_5
REMARK       I    between atoms: N2_8  and  C7_9
REMARK    4  A    between atoms: C7_9  and  C8_11
REMARK    5  A    between atoms: N3_14  and  C11_15
REMARK    6  A    between atoms: C11_15  and  C12_16
REMARK    7  A    between atoms: C12_16  and  C13_17
REMARK    8  A    between atoms: C13_17  and  C14_18
REMARK    9  A    between atoms: C14_18  and  C15_19
REMARK   10  A    between atoms: C15_19  and  C16_20
REMARK   11  A    between atoms: C16_20  and  C17_21
REMARK   12  A    between atoms: C17_21  and  C18_22
REMARK   13  A    between atoms: C20_29  and  C21_30
REMARK   14  A    between atoms: C21_30  and  C22_31
REMARK   15  A    between atoms: C22_31  and  C23_32
REMARK   16  A    between atoms: C23_32  and  N5_33
ROOT
HETATM    1  N1  UNL     1      34.391 -11.165   0.376  1.00  0.00    -0.349 N
HETATM    2  C5  UNL     1      33.692 -12.062   1.224  1.00  0.00     0.145 C
HETATM    3  C6  UNL     1      34.102 -12.063   2.670  1.00  0.00     0.147 C
HETATM    4  N2  UNL     1      35.281 -11.317   2.946  1.00  0.00    -0.335 N
HETATM    5  C7  UNL     1      36.169 -11.746   3.962  1.00  0.00     0.243 C
HETATM    6  O1  UNL     1      37.250 -11.125   4.200  1.00  0.00    -0.271 OA
HETATM    7  C20 UNL     1      35.652 -10.098   2.243  1.00  0.00     0.179 C
HETATM    8  C25 UNL     1      35.058 -10.049   0.917  1.00  0.00     0.242 C
HETATM    9  O5  UNL     1      35.145  -8.975   0.236  1.00  0.00    -0.271 OA
ENDROOT
BRANCH   5  10
HETATM   10  C8  UNL     1      35.861 -12.940   4.779  1.00  0.00     0.180 C
HETATM   11  C9  UNL     1      36.186 -12.677   6.237  1.00  0.00     0.055 C
HETATM   12  C10 UNL     1      36.580 -13.946   6.971  1.00  0.00     0.130 C
HETATM   13  N3  UNL     1      37.757 -14.546   6.367  1.00  0.00    -0.334 N
HETATM   14  C19 UNL     1      37.829 -14.431   4.950  1.00  0.00     0.319 C
HETATM   15  O4  UNL     1      38.912 -14.695   4.347  1.00  0.00    -0.247 OA
HETATM   16  N4  UNL     1      36.679 -14.021   4.256  1.00  0.00    -0.330 N
ATOM     17  H4  UNL     1      36.418 -14.482   3.384  1.00  0.00     0.165 HD
BRANCH  13  18
HETATM   18  C11 UNL     1      38.767 -15.197   7.141  1.00  0.00     0.127 C
BRANCH  18  19
HETATM   19  C12 UNL     1      38.390 -15.560   8.535  1.00  0.00     0.020 C
BRANCH  19  20
HETATM   20  C13 UNL     1      39.257 -14.978   9.610  1.00  0.00     0.002 C
BRANCH  20  21
HETATM   21  C14 UNL     1      38.850 -13.515   9.737  1.00  0.00     0.000 C
BRANCH  21  22
HETATM   22  C15 UNL     1      39.995 -12.602  10.024  1.00  0.00     0.001 C
BRANCH  22  23
HETATM   23  C16 UNL     1      41.158 -12.744   9.093  1.00  0.00     0.010 C
BRANCH  23  24
HETATM   24  C17 UNL     1      42.417 -13.150   9.848  1.00  0.00     0.113 C
BRANCH  24  25
HETATM   25  C18 UNL     1      43.491 -13.295   8.844  1.00  0.00     0.172 C
HETATM   26  O2  UNL     1      44.685 -13.356   9.221  1.00  0.00    -0.648 OA
HETATM   27  O3  UNL     1      43.192 -13.362   7.501  1.00  0.00    -0.648 OA
ENDBRANCH  24  25
ENDBRANCH  23  24
ENDBRANCH  22  23
ENDBRANCH  21  22
ENDBRANCH  20  21
ENDBRANCH  19  20
ENDBRANCH  18  19
ENDBRANCH  13  18
ENDBRANCH   5  10
BRANCH   7  28
HETATM   28  C21 UNL     1      35.519  -8.868   3.044  1.00  0.00     0.037 C
BRANCH  28  29
HETATM   29  C22 UNL     1      36.669  -7.961   3.190  1.00  0.00     0.022 C
BRANCH  29  30
HETATM   30  C23 UNL     1      36.398  -6.529   2.820  1.00  0.00     0.122 C
BRANCH  30  31
HETATM   31  N5  UNL     1      36.378  -6.434   1.346  1.00  0.00    -0.367 N
HETATM   32  C24 UNL     1      36.845  -5.403   0.735  1.00  0.00     0.196 C
HETATM   33  N6  UNL     1      37.415  -4.273   1.378  1.00  0.00    -0.067 NA
HETATM   34  N7  UNL     1      36.784  -5.397  -0.682  1.00  0.00    -0.067 NA
ATOM     35  H5  UNL     1      35.987  -7.202   0.802  1.00  0.00     0.161 HD
ENDBRANCH  30  31
ENDBRANCH  29  30
ENDBRANCH  28  29
ENDBRANCH   7  28
BRANCH   1  36
HETATM   36  C4  UNL     1      34.405 -11.435  -1.070  1.00  0.00     0.129 C
BRANCH  36  37
HETATM   37  C3  UNL     1      33.012 -11.351  -1.661  1.00  0.00     0.046 C
BRANCH  37  38
HETATM   38  C2  UNL     1      32.957 -10.175  -2.557  1.00  0.00    -0.035 C
HETATM   39  C1  UNL     1      32.595  -8.983  -2.132  1.00  0.00     0.007 C
ENDBRANCH  37  38
ENDBRANCH  36  37
ENDBRANCH   1  36
TORSDOF 16
ENDMDL