MODEL 1
REMARK VINA RESULT: -6.136723813      0.000      0.000
REMARK  2 active torsions:
REMARK  status: ('A' for Active; 'I' for Inactive)
REMARK    1  A    between atoms: C6_6  and  O1_7
REMARK    2  A    between atoms: C12_14  and  O2_15
ROOT
HETATM    1  C1  UNL     1      36.881   1.181  13.342  1.00  0.00     0.010 C
HETATM    2  C2  UNL     1      37.144   0.058  12.344  1.00  0.00    -0.014 C
HETATM    3  C3  UNL     1      38.083  -0.943  12.830  1.00  0.00     0.010 C
HETATM    4  C4  UNL     1      37.975  -1.501  14.190  1.00  0.00    -0.007 C
HETATM    5  C5  UNL     1      39.273  -1.340  15.018  1.00  0.00     0.037 C
HETATM    6  C6  UNL     1      39.271  -2.516  15.976  1.00  0.00     0.122 C
HETATM    7  C7  UNL     1      38.058  -3.375  15.580  1.00  0.00     0.015 C
HETATM    8  C8  UNL     1      38.274  -4.821  15.876  1.00  0.00     0.013 C
HETATM    9  C9  UNL     1      37.952  -3.023  14.151  1.00  0.00    -0.004 C
HETATM   10  C10 UNL     1      36.844  -3.603  13.374  1.00  0.00     0.008 C
HETATM   11  C11 UNL     1      35.483  -3.116  13.698  1.00  0.00     0.038 C
HETATM   12  C12 UNL     1      34.562  -2.830  12.604  1.00  0.00     0.058 C
HETATM   13  C13 UNL     1      35.065  -2.723  11.219  1.00  0.00     0.038 C
HETATM   14  C14 UNL     1      35.798  -1.485  10.856  1.00  0.00     0.008 C
HETATM   15  C15 UNL     1      35.793  -0.355  11.811  1.00  0.00    -0.011 C
HETATM   16  C16 UNL     1      34.719  -0.367  12.858  1.00  0.00     0.008 C
HETATM   17  C17 UNL     1      33.796  -1.523  12.854  1.00  0.00     0.038 C
ENDROOT
BRANCH   6  18
HETATM   18  O1  UNL     1      40.390  -3.343  15.723  1.00  0.00    -0.395 OA
ATOM     19  H1  UNL     1      41.006  -3.281  16.443  1.00  0.00     0.210 HD
ENDBRANCH   6  18
BRANCH  12  20
HETATM   20  O2  UNL     1      33.549  -3.826  12.606  1.00  0.00    -0.390 OA
ATOM     21  H2  UNL     1      32.774  -3.460  13.017  1.00  0.00     0.210 HD
ENDBRANCH  12  20
TORSDOF 2
ENDMDL