MODEL 5
REMARK VINA RESULT: -4.897461880      1.969      2.713
REMARK  1 active torsions:
REMARK  status: ('A' for Active; 'I' for Inactive)
REMARK    1  A    between atoms: C14_18  and  O1_19
ROOT
HETATM    1  C1  UNL     1      38.810  -5.676  18.609  1.00  0.00     0.046 C
HETATM    2  C2  UNL     1      38.533  -5.728  17.147  1.00  0.00     0.126 C
HETATM    3  C3  UNL     1      38.706  -4.413  16.456  1.00  0.00     0.046 C
HETATM    4  C4  UNL     1      37.363  -3.954  15.932  1.00  0.00     0.023 C
HETATM    5  C5  UNL     1      36.898  -5.042  14.955  1.00  0.00     0.092 C
HETATM    6  S1  UNL     1      38.048  -4.398  13.762  1.00  0.00    -0.151 SA
HETATM    7  C6  UNL     1      37.514  -3.008  14.763  1.00  0.00     0.013 C
HETATM    8  C7  UNL     1      36.204  -2.391  14.410  1.00  0.00     0.021 C
HETATM    9  C8  UNL     1      36.321  -1.074  13.692  1.00  0.00     0.002 C
HETATM   10  C9  UNL     1      37.606  -1.041  12.914  1.00  0.00     0.000 C
HETATM   11  C10 UNL     1      38.809  -1.106  13.813  1.00  0.00     0.002 C
HETATM   12  C11 UNL     1      38.538  -1.944  15.022  1.00  0.00     0.021 C
HETATM   13  C12 UNL     1      37.127  -6.391  15.514  1.00  0.00     0.161 C
HETATM   14  C13 UNL     1      35.961  -7.288  15.097  1.00  0.00     0.050 C
HETATM   15  N1  UNL     1      37.173  -6.266  16.980  1.00  0.00    -0.054 N
ATOM     16  H11 UNL     1      36.423  -5.720  17.404  1.00  0.00     0.279 HD
ATOM     17  H12 UNL     1      36.963  -7.115  17.506  1.00  0.00     0.279 HD
HETATM   18  C14 UNL     1      38.434  -7.020  15.192  1.00  0.00     0.157 C
HETATM   19  C15 UNL     1      39.334  -6.762  16.408  1.00  0.00     0.072 C
ENDROOT
BRANCH  18  20
HETATM   20  O1  UNL     1      38.240  -8.410  15.143  1.00  0.00    -0.393 OA
ATOM     21  H1  UNL     1      38.852  -8.811  15.749  1.00  0.00     0.210 HD
ENDBRANCH  18  20
TORSDOF 1
ENDMDL