MODEL 1
REMARK VINA RESULT: -5.319801639      0.000      0.000
REMARK  1 active torsions:
REMARK  status: ('A' for Active; 'I' for Inactive)
REMARK    1  A    between atoms: C8_8  and  O1_9
ROOT
HETATM    1  C1  UNL     1      38.882  -3.200  16.317  1.00  0.00     0.016 C
HETATM    2  C2  UNL     1      38.175  -2.206  15.421  1.00  0.00     0.027 C
HETATM    3  C3  UNL     1      39.090  -1.789  14.295  1.00  0.00     0.010 C
HETATM    4  C4  UNL     1      38.313  -0.725  13.508  1.00  0.00     0.006 C
HETATM    5  C5  UNL     1      37.195  -1.474  12.813  1.00  0.00    -0.002 C
HETATM    6  C6  UNL     1      36.515  -0.501  11.877  1.00  0.00     0.008 C
HETATM    7  C7  UNL     1      35.012  -0.685  11.888  1.00  0.00     0.034 C
HETATM    8  C8  UNL     1      34.739  -2.164  11.817  1.00  0.00     0.147 C
HETATM    9  C9  UNL     1      35.118  -2.760  13.156  1.00  0.00     0.090 C
HETATM   10  S1  UNL     1      35.438  -4.530  12.996  1.00  0.00    -0.144 SA
HETATM   11  C10 UNL     1      33.870  -5.327  13.317  1.00  0.00     0.086 C
HETATM   12  C11 UNL     1      32.808  -4.279  13.407  1.00  0.00     0.086 C
HETATM   13  S2  UNL     1      33.602  -2.810  14.160  1.00  0.00    -0.144 SA
HETATM   14  C12 UNL     1      36.220  -2.004  13.830  1.00  0.00     0.067 C
HETATM   15  C13 UNL     1      36.900  -2.726  14.900  1.00  0.00    -0.009 C
HETATM   16  N1  UNL     1      36.411  -3.780  15.382  1.00  0.00    -0.405 N
ATOM     17  H11 UNL     1      35.527  -4.142  15.021  1.00  0.00     0.155 HD
ATOM     18  H12 UNL     1      36.886  -4.285  16.131  1.00  0.00     0.155 HD
ENDROOT
BRANCH   8  19
HETATM   19  O1  UNL     1      35.434  -2.765  10.770  1.00  0.00    -0.393 OA
ATOM     20  H1  UNL     1      34.860  -3.288  10.223  1.00  0.00     0.210 HD
ENDBRANCH   8  19
TORSDOF 1
ENDMDL