MODEL 3
REMARK VINA RESULT: -5.219787144      2.306      5.237
REMARK  2 active torsions:
REMARK  status: ('A' for Active; 'I' for Inactive)
REMARK    1  A    between atoms: C3_3  and  C4_4
REMARK    2  A    between atoms: N1_18  and  O2_20
ROOT
HETATM    1  C1  UNL     1      37.850  -3.531  19.622  1.00  0.00     0.112 C
HETATM    2  C2  UNL     1      37.941  -3.651  18.151  1.00  0.00    -0.110 C
HETATM    3  C3  UNL     1      38.009  -3.730  16.952  1.00  0.00    -0.091 C
ENDROOT
BRANCH   3   4
HETATM    4  C4  UNL     1      38.104  -3.802  15.511  1.00  0.00     0.061 C
HETATM    5  C5  UNL     1      39.492  -4.353  15.154  1.00  0.00     0.036 C
HETATM    6  C6  UNL     1      37.065  -4.639  14.853  1.00  0.00     0.029 C
HETATM    7  C7  UNL     1      36.864  -4.256  13.402  1.00  0.00     0.011 C
HETATM    8  C8  UNL     1      36.576  -2.807  13.197  1.00  0.00     0.033 C
HETATM    9  C9  UNL     1      35.225  -2.509  12.642  1.00  0.00     0.058 C
HETATM   10  C14 UNL     1      36.899  -1.901  14.354  1.00  0.00     0.007 C
HETATM   11  C10 UNL     1      34.128  -3.417  13.116  1.00  0.00     0.046 C
HETATM   12  C11 UNL     1      35.307  -2.600  11.112  1.00  0.00     0.046 C
HETATM   13  O1  UNL     1      34.857  -1.217  12.929  1.00  0.00    -0.380 OA
HETATM   14  C12 UNL     1      35.824  -0.264  12.852  1.00  0.00     0.170 C
HETATM   15  C13 UNL     1      37.048  -0.513  13.723  1.00  0.00     0.042 C
HETATM   16  C15 UNL     1      35.818  -1.758  15.370  1.00  0.00     0.022 C
HETATM   17  C16 UNL     1      38.111  -2.386  15.004  1.00  0.00     0.039 C
HETATM   18  N1  UNL     1      39.144  -1.710  15.169  1.00  0.00    -0.275 N
ATOM     19  H1  UNL     1      39.885  -2.223  15.647  1.00  0.00     0.193 HD
BRANCH  18  20
HETATM   20  O2  UNL     1      39.489  -0.457  14.855  1.00  0.00    -0.290 OA
ATOM     21  H2  UNL     1      39.607   0.338  15.360  1.00  0.00     0.244 HD
ENDBRANCH  18  20
ENDBRANCH   3   4
TORSDOF 2
ENDMDL