MODEL 1
REMARK VINA RESULT: -6.297402750      0.000      0.000
REMARK  1 active torsions:
REMARK  status: ('A' for Active; 'I' for Inactive)
REMARK    1  A    between atoms: C8_8  and  O1_9
ROOT
HETATM    1  C1  UNL     1      38.557  -4.554  14.723  1.00  0.00     0.022 C
HETATM    2  C2  UNL     1      38.200  -3.317  15.528  1.00  0.00    -0.002 C
HETATM    3  C3  UNL     1      39.146  -2.189  15.288  1.00  0.00     0.016 C
HETATM    4  C4  UNL     1      38.859  -1.351  14.109  1.00  0.00     0.009 C
HETATM    5  C5  UNL     1      37.531  -1.543  13.473  1.00  0.00     0.020 C
HETATM    6  C6  UNL     1      36.498  -1.749  14.548  1.00  0.00    -0.000 C
HETATM    7  C7  UNL     1      35.106  -1.814  13.979  1.00  0.00     0.038 C
HETATM    8  C8  UNL     1      35.072  -1.789  12.488  1.00  0.00     0.131 C
HETATM    9  C9  UNL     1      35.897  -0.709  11.874  1.00  0.00     0.030 C
HETATM   10  C10 UNL     1      36.095  -0.873  10.397  1.00  0.00     0.023 C
HETATM   11  C11 UNL     1      35.440   0.653  12.279  1.00  0.00     0.182 C
HETATM   12  O2  UNL     1      36.344   0.599  13.361  1.00  0.00    -0.384 OA
HETATM   13  C12 UNL     1      37.110  -0.332  12.667  1.00  0.00     0.138 C
HETATM   14  C13 UNL     1      36.761  -2.966  15.361  1.00  0.00     0.004 C
HETATM   15  C14 UNL     1      36.152  -2.808  16.722  1.00  0.00     0.011 C
HETATM   16  C15 UNL     1      37.175  -3.194  17.740  1.00  0.00     0.053 C
HETATM   17  C16 UNL     1      38.310  -3.708  16.955  1.00  0.00    -0.012 C
HETATM   18  N1  UNL     1      39.271  -4.400  17.416  1.00  0.00    -0.405 N
ATOM     19  H11 UNL     1      39.347  -4.669  18.397  1.00  0.00     0.155 HD
ATOM     20  H12 UNL     1      40.058  -4.756  16.872  1.00  0.00     0.155 HD
ENDROOT
BRANCH   8  21
HETATM   21  O1  UNL     1      35.360  -3.058  11.980  1.00  0.00    -0.395 OA
ATOM     22  H1  UNL     1      34.906  -3.190  11.156  1.00  0.00     0.210 HD
ENDBRANCH   8  21
TORSDOF 1
ENDMDL