MODEL 5
REMARK VINA RESULT: -5.196946050      1.689      2.694
REMARK  1 active torsions:
REMARK  status: ('A' for Active; 'I' for Inactive)
REMARK    1  A    between atoms: C3_5  and  O1_7
ROOT
HETATM    1  C1  UNL     1      33.220  -2.904  12.358  1.00  0.00     0.039 C
HETATM    2  C2  UNL     1      34.329  -3.334  12.913  1.00  0.00     0.012 C
HETATM    3  N1  UNL     1      34.824  -4.626  12.521  1.00  0.00    -0.339 N
ATOM      4  H1  UNL     1      34.638  -4.982  11.583  1.00  0.00     0.164 HD
HETATM    5  C3  UNL     1      35.588  -5.421  13.461  1.00  0.00     0.243 C
HETATM    6  C4  UNL     1      34.760  -6.706  13.657  1.00  0.00     0.106 C
HETATM    7  O2  UNL     1      35.806  -4.885  14.659  1.00  0.00    -0.326 OA
HETATM    8  C5  UNL     1      35.523  -3.638  15.017  1.00  0.00     0.076 C
HETATM    9  C6  UNL     1      34.432  -3.644  16.089  1.00  0.00     0.047 C
HETATM   10  C7  UNL     1      36.748  -3.029  15.663  1.00  0.00     0.039 C
HETATM   11  C8  UNL     1      37.248  -1.971  14.728  1.00  0.00     0.009 C
HETATM   12  C9  UNL     1      36.506  -2.246  13.436  1.00  0.00     0.011 C
HETATM   13  C10 UNL     1      36.529  -0.972  12.642  1.00  0.00    -0.043 C
HETATM   14  C11 UNL     1      36.043  -1.135  11.230  1.00  0.00     0.015 C
HETATM   15  C12 UNL     1      38.014  -0.580  12.537  1.00  0.00     0.015 C
HETATM   16  C13 UNL     1      35.856   0.168  13.338  1.00  0.00     0.009 C
HETATM   17  C14 UNL     1      34.538  -0.192  13.913  1.00  0.00     0.002 C
HETATM   18  C15 UNL     1      34.411  -1.531  14.527  1.00  0.00     0.019 C
HETATM   19  C16 UNL     1      35.158  -2.657  13.919  1.00  0.00     0.036 C
ENDROOT
BRANCH   5  20
HETATM   20  O1  UNL     1      36.784  -5.879  12.864  1.00  0.00    -0.349 OA
ATOM     21  H1  UNL     1      37.106  -5.242  12.237  1.00  0.00     0.215 HD
ENDBRANCH   5  20
TORSDOF 1
ENDMDL