MODEL 4
REMARK VINA RESULT: -4.971374541      2.804      4.325
REMARK  5 active torsions:
REMARK  status: ('A' for Active; 'I' for Inactive)
REMARK    1  A    between atoms: C7_7  and  O1_8
REMARK    2  A    between atoms: O1_8  and  C8_9
REMARK    3  A    between atoms: C8_9  and  N2_16
REMARK    4  A    between atoms: N1_10  and  C9_12
REMARK    5  A    between atoms: N2_16  and  N3_18
ROOT
HETATM    1  C8  UNL     1      39.560  -5.672  15.653  1.00  0.00     0.234 C
HETATM    2  N1  UNL     1      38.514  -6.392  15.600  1.00  0.00    -0.347 N
ATOM      3  H1  UNL     1      37.785  -6.179  14.920  1.00  0.00     0.163 HD
ENDROOT
BRANCH   1   4
HETATM    4  O1  UNL     1      39.537  -4.649  14.719  1.00  0.00    -0.315 OA
BRANCH   4   5
HETATM    5  C7  UNL     1      39.379  -3.335  15.026  1.00  0.00     0.137 C
HETATM    6  C6  UNL     1      38.419  -2.753  13.973  1.00  0.00     0.023 C
HETATM    7  C5  UNL     1      38.822  -1.358  13.683  1.00  0.00     0.008 C
HETATM    8  C15 UNL     1      37.066  -2.934  14.553  1.00  0.00     0.020 C
HETATM    9  C4  UNL     1      37.779  -0.637  12.886  1.00  0.00     0.005 C
HETATM   10  C3  UNL     1      36.449  -0.597  13.581  1.00  0.00     0.034 C
HETATM   11  C2  UNL     1      36.085  -1.896  14.211  1.00  0.00    -0.085 C
HETATM   12  C1  UNL     1      34.807  -2.115  14.471  1.00  0.00     0.014 C
HETATM   13  C14 UNL     1      37.214  -3.060  16.054  1.00  0.00     0.012 C
HETATM   14  C13 UNL     1      38.681  -2.932  16.269  1.00  0.00     0.034 C
ENDBRANCH   4   5
ENDBRANCH   1   4
BRANCH   1  15
HETATM   15  N2  UNL     1      40.640  -5.870  16.553  1.00  0.00    -0.272 N
ATOM     16  H2  UNL     1      40.483  -6.025  17.549  1.00  0.00     0.190 HD
BRANCH  15  17
HETATM   17  N3  UNL     1      41.935  -5.841  16.013  1.00  0.00    -0.342 N
ATOM     18  H32 UNL     1      42.332  -6.673  15.578  1.00  0.00     0.176 HD
ATOM     19  H31 UNL     1      42.446  -4.961  16.078  1.00  0.00     0.176 HD
ENDBRANCH  15  17
ENDBRANCH   1  15
BRANCH   2  20
HETATM   20  C9  UNL     1      38.356  -7.503  16.494  1.00  0.00     0.022 C
HETATM   21  C10 UNL     1      39.366  -8.604  16.238  1.00  0.00     0.037 C
HETATM   22  C11 UNL     1      36.943  -8.060  16.284  1.00  0.00     0.037 C
HETATM   23  C12 UNL     1      38.468  -7.087  17.947  1.00  0.00     0.037 C
ENDBRANCH   2  20
TORSDOF 5
ENDMDL