MODEL 1
REMARK VINA RESULT: -5.194733828      0.000      0.000
REMARK  1 active torsions:
REMARK  status: ('A' for Active; 'I' for Inactive)
REMARK    1  A    between atoms: N1_1  and  N2_4
ROOT
HETATM    1  N2  UNL     1      39.228  -3.136  15.486  1.00  0.00    -0.236 NA
HETATM    2  C1  UNL     1      38.489  -3.885  16.452  1.00  0.00     0.113 C
HETATM    3  C2  UNL     1      37.969  -5.147  15.789  1.00  0.00     0.016 C
HETATM    4  C3  UNL     1      36.469  -5.193  15.973  1.00  0.00     0.001 C
HETATM    5  C4  UNL     1      35.863  -6.369  15.263  1.00  0.00     0.000 C
HETATM    6  C5  UNL     1      34.401  -6.039  14.986  1.00  0.00     0.000 C
HETATM    7  C6  UNL     1      34.239  -5.892  13.494  1.00  0.00     0.000 C
HETATM    8  C7  UNL     1      32.994  -5.114  13.121  1.00  0.00     0.000 C
HETATM    9  C8  UNL     1      33.039  -3.690  13.587  1.00  0.00     0.000 C
HETATM   10  C9  UNL     1      33.400  -2.753  12.448  1.00  0.00     0.000 C
HETATM   11  C10 UNL     1      34.883  -2.779  12.238  1.00  0.00     0.000 C
HETATM   12  C11 UNL     1      35.426  -1.392  11.932  1.00  0.00     0.010 C
HETATM   13  C12 UNL     1      35.733  -0.662  13.230  1.00  0.00     0.111 C
HETATM   14  C13 UNL     1      37.051   0.017  13.184  1.00  0.00     0.258 C
HETATM   15  O1  UNL     1      37.093   1.265  13.328  1.00  0.00    -0.265 OA
HETATM   16  O2  UNL     1      38.183  -0.718  12.991  1.00  0.00    -0.320 OA
HETATM   17  C14 UNL     1      38.495  -1.951  13.553  1.00  0.00     0.195 C
HETATM   18  C15 UNL     1      38.576  -1.912  15.073  1.00  0.00     0.139 C
ENDROOT
BRANCH   1  19
HETATM   19  N1  UNL     1      40.558  -2.938  15.842  1.00  0.00    -0.363 NA
ATOM     20  H12 UNL     1      41.187  -3.604  15.394  1.00  0.00     0.171 HD
ATOM     21  H11 UNL     1      40.860  -1.967  15.757  1.00  0.00     0.171 HD
ENDBRANCH   1  19
TORSDOF 1
ENDMDL