MODEL 5
REMARK VINA RESULT: -5.359840855      4.939      6.715
REMARK  1 active torsions:
REMARK  status: ('A' for Active; 'I' for Inactive)
REMARK    1  A    between atoms: C14_18  and  O2_19
ROOT
HETATM    1  O1  UNL     1      35.703   2.596  12.927  1.00  0.00    -0.270 OA
HETATM    2  C1  UNL     1      35.059   1.591  12.487  1.00  0.00     0.258 C
HETATM    3  N1  UNL     1      33.700   1.638  12.078  1.00  0.00    -0.318 N
ATOM      4  H1  UNL     1      33.181   2.458  11.765  1.00  0.00     0.169 HD
HETATM    5  C2  UNL     1      33.214   0.310  12.192  1.00  0.00     0.087 C
HETATM    6  S1  UNL     1      31.633  -0.124  12.177  1.00  0.00    -0.065 SA
HETATM    7  C3  UNL     1      34.376  -0.605  12.325  1.00  0.00     0.091 C
HETATM    8  C4  UNL     1      34.118  -1.531  13.464  1.00  0.00     0.015 C
HETATM    9  C5  UNL     1      34.725  -2.910  13.279  1.00  0.00     0.001 C
HETATM   10  C6  UNL     1      35.222  -3.484  14.601  1.00  0.00     0.000 C
HETATM   11  C7  UNL     1      36.215  -4.570  14.410  1.00  0.00     0.000 C
HETATM   12  C8  UNL     1      37.575  -4.065  13.931  1.00  0.00     0.000 C
HETATM   13  C9  UNL     1      38.359  -3.379  14.968  1.00  0.00     0.000 C
HETATM   14  C10 UNL     1      38.490  -1.876  14.815  1.00  0.00     0.000 C
HETATM   15  C11 UNL     1      38.809  -1.414  13.456  1.00  0.00     0.000 C
HETATM   16  C12 UNL     1      37.787  -0.759  12.643  1.00  0.00     0.004 C
HETATM   17  C13 UNL     1      36.653  -0.068  13.317  1.00  0.00     0.049 C
HETATM   18  C14 UNL     1      35.581   0.199  12.314  1.00  0.00     0.148 C
ENDROOT
BRANCH  18  19
HETATM   19  O2  UNL     1      36.164   0.197  11.024  1.00  0.00    -0.379 OA
ATOM     20  H2  UNL     1      35.424   0.176  10.428  1.00  0.00     0.211 HD
ENDBRANCH  18  19
TORSDOF 1
ENDMDL