MODEL 4
REMARK VINA RESULT: -4.350721032      4.334      6.862
REMARK  4 active torsions:
REMARK  status: ('A' for Active; 'I' for Inactive)
REMARK    1  A    between atoms: C5_5  and  N1_6
REMARK    2  A    between atoms: N1_6  and  C6_8
REMARK    3  A    between atoms: C6_8  and  O1_10
REMARK    4  A    between atoms: O1_10  and  C7_11
ROOT
HETATM    1  C1  UNL     1      36.126  -0.985  11.217  1.00  0.00     0.037 C
HETATM    2  C2  UNL     1      36.105  -1.024  12.754  1.00  0.00     0.021 C
HETATM    3  C3  UNL     1      36.728   0.315  13.181  1.00  0.00     0.037 C
HETATM    4  C4  UNL     1      36.964  -2.129  13.213  1.00  0.00     0.055 C
HETATM    5  C5  UNL     1      36.292  -3.338  13.750  1.00  0.00     0.089 C
HETATM    6  C11 UNL     1      34.805  -3.333  13.650  1.00  0.00     0.055 C
HETATM    7  C12 UNL     1      34.335  -1.959  14.113  1.00  0.00     0.021 C
HETATM    8  C13 UNL     1      32.806  -1.924  14.168  1.00  0.00     0.037 C
HETATM    9  C14 UNL     1      34.822  -1.689  15.510  1.00  0.00     0.037 C
HETATM   10  N2  UNL     1      34.757  -1.012  13.154  1.00  0.00    -0.405 N
ATOM     11  H2  UNL     1      34.101  -0.336  12.761  1.00  0.00     0.154 HD
ENDROOT
BRANCH   5  12
HETATM   12  N1  UNL     1      36.764  -4.576  13.110  1.00  0.00    -0.357 N
ATOM     13  H1  UNL     1      36.487  -4.776  12.149  1.00  0.00     0.162 HD
BRANCH  12  14
HETATM   14  C6  UNL     1      37.593  -5.494  13.797  1.00  0.00     0.211 C
HETATM   15  S1  UNL     1      37.004  -6.966  14.137  1.00  0.00    -0.033 SA
BRANCH  14  16
HETATM   16  O1  UNL     1      38.853  -5.159  14.167  1.00  0.00    -0.317 OA
BRANCH  16  17
HETATM   17  C7  UNL     1      39.292  -4.770  15.427  1.00  0.00     0.059 C
HETATM   18  C8  UNL     1      39.724  -3.301  15.424  1.00  0.00     0.045 C
HETATM   19  C9  UNL     1      38.278  -4.927  16.520  1.00  0.00     0.045 C
HETATM   20  C10 UNL     1      40.511  -5.629  15.770  1.00  0.00     0.045 C
ENDBRANCH  16  17
ENDBRANCH  14  16
ENDBRANCH  12  14
ENDBRANCH   5  12
TORSDOF 4
ENDMDL