MODEL 5
REMARK VINA RESULT: -5.555869523      1.655      2.656
REMARK  2 active torsions:
REMARK  status: ('A' for Active; 'I' for Inactive)
REMARK    1  A    between atoms: O1_1  and  C1_3
REMARK    2  A    between atoms: C1_3  and  C2_4
ROOT
HETATM    1  C1  UNL     1       8.229 -12.687   2.840  1.00  0.00     0.062 C
HETATM    2  C8  UNL     1       9.221 -13.833   2.753  1.00  0.00     0.038 C
HETATM    3  C9  UNL     1       8.588 -15.118   2.315  1.00  0.00     0.003 C
HETATM    4  C10 UNL     1       7.546 -14.960   1.257  1.00  0.00     0.000 C
HETATM    5  C11 UNL     1       6.532 -13.896   1.574  1.00  0.00     0.003 C
HETATM    6  C12 UNL     1       6.847 -13.353   2.944  1.00  0.00     0.038 C
ENDROOT
BRANCH   1   7
HETATM    7  O1  UNL     1       8.246 -12.043   1.632  1.00  0.00    -0.389 OA
ATOM      8  H1  UNL     1       8.890 -12.326   0.993  1.00  0.00     0.210 HD
ENDBRANCH   1   7
BRANCH   1   9
HETATM    9  C2  UNL     1       8.421 -11.874   4.039  1.00  0.00     0.028 C
HETATM   10  C3  UNL     1       7.560 -12.070   5.241  1.00  0.00    -0.007 C
HETATM   11  C4  UNL     1       7.971 -10.877   6.095  1.00  0.00     0.005 C
HETATM   12  C7  UNL     1       8.588 -13.085   5.729  1.00  0.00     0.010 C
HETATM   13  C5  UNL     1       9.497 -10.949   5.882  1.00  0.00     0.005 C
HETATM   14  C6  UNL     1       9.540 -12.186   4.974  1.00  0.00    -0.007 C
ENDBRANCH   1   9
TORSDOF 2
ENDMDL