MODEL 3
REMARK VINA RESULT: -4.757320222      1.637      3.679
REMARK  1 active torsions:
REMARK  status: ('A' for Active; 'I' for Inactive)
REMARK    1  A    between atoms: N1_1  and  C1_5
ROOT
HETATM    1  C1  UNL     1       7.442 -12.314   2.698  1.00  0.00     0.188 C
HETATM    2  C2  UNL     1       8.584 -13.228   2.310  1.00  0.00     0.033 C
HETATM    3  C3  UNL     1       9.828 -12.605   2.894  1.00  0.00     0.007 C
HETATM    4  C4  UNL     1       9.333 -11.799   4.044  1.00  0.00    -0.004 C
HETATM    5  C5  UNL     1       9.392 -12.568   5.361  1.00  0.00    -0.010 C
HETATM    6  C6  UNL     1       9.783 -11.580   6.415  1.00  0.00     0.005 C
HETATM    7  C7  UNL     1       8.812 -10.514   6.693  1.00  0.00     0.001 C
HETATM    8  C8  UNL     1       7.514 -10.537   6.014  1.00  0.00     0.005 C
HETATM    9  C9  UNL     1       7.242 -11.718   5.131  1.00  0.00    -0.008 C
HETATM   10  C10 UNL     1       7.953 -12.960   5.604  1.00  0.00     0.010 C
HETATM   11  C11 UNL     1       7.903 -11.452   3.807  1.00  0.00     0.024 C
ENDROOT
BRANCH   1  12
HETATM   12  N1  UNL     1       6.263 -13.081   2.964  1.00  0.00    -0.075 N
ATOM     13  H13 UNL     1       6.319 -13.568   3.859  1.00  0.00     0.274 HD
ATOM     14  H12 UNL     1       5.459 -12.487   3.166  1.00  0.00     0.274 HD
ATOM     15  H11 UNL     1       6.077 -13.722   2.193  1.00  0.00     0.274 HD
ENDBRANCH   1  12
TORSDOF 1
ENDMDL