MODEL 2
REMARK VINA RESULT: -5.879802121      2.652      3.603
REMARK  1 active torsions:
REMARK  status: ('A' for Active; 'I' for Inactive)
REMARK    1  A    between atoms: C4_4  and  N1_5
ROOT
HETATM    1  C1  UNL     1       8.020 -13.412   2.182  1.00  0.00     0.000 C
HETATM    2  C2  UNL     1       9.467 -13.179   2.554  1.00  0.00     0.002 C
HETATM    3  C3  UNL     1       9.591 -12.012   3.551  1.00  0.00     0.036 C
HETATM    4  C4  UNL     1       8.618 -12.311   4.644  1.00  0.00     0.223 C
HETATM    5  C10 UNL     1       7.250 -11.962   4.075  1.00  0.00     0.036 C
HETATM    6  C11 UNL     1       7.180 -12.244   2.593  1.00  0.00     0.002 C
ENDROOT
BRANCH   4   7
HETATM    7  N1  UNL     1       8.860 -11.694   5.903  1.00  0.00     0.093 N
HETATM    8  C5  UNL     1       7.872 -10.807   6.395  1.00  0.00     0.273 C
HETATM    9  C6  UNL     1       8.269 -10.098   7.644  1.00  0.00     0.030 C
HETATM   10  C7  UNL     1       9.669  -9.617   7.705  1.00  0.00     0.003 C
HETATM   11  C8  UNL     1      10.655 -10.682   7.271  1.00  0.00     0.030 C
HETATM   12  C9  UNL     1      10.204 -11.180   5.928  1.00  0.00     0.273 C
ENDBRANCH   4   7
TORSDOF 1
ENDMDL