MODEL 3
REMARK VINA RESULT: -4.854696340      1.671      3.086
REMARK  2 active torsions:
REMARK  status: ('A' for Active; 'I' for Inactive)
REMARK    1  A    between atoms: N1_1  and  C1_5
REMARK    2  A    between atoms: C1_5  and  C2_6
ROOT
HETATM    1  C2  UNL     1       8.905 -11.902   5.847  1.00  0.00    -0.016 C
HETATM    2  C3  UNL     1       7.742 -10.974   5.953  1.00  0.00     0.011 C
HETATM    3  C4  UNL     1       7.576 -10.241   7.199  1.00  0.00     0.005 C
HETATM    4  C5  UNL     1       8.780 -10.012   8.049  1.00  0.00    -0.014 C
HETATM    5  C6  UNL     1       9.976  -9.506   7.323  1.00  0.00     0.009 C
HETATM    6  C7  UNL     1      10.837 -10.563   6.712  1.00  0.00    -0.013 C
HETATM    7  C8  UNL     1      11.176 -11.687   7.647  1.00  0.00     0.009 C
HETATM    8  C9  UNL     1       9.861 -12.271   8.142  1.00  0.00    -0.013 C
HETATM    9  C10 UNL     1       9.151 -11.193   8.903  1.00  0.00     0.009 C
HETATM   10  C11 UNL     1       9.066 -12.819   7.008  1.00  0.00     0.015 C
HETATM   11  C12 UNL     1      10.180 -11.154   5.493  1.00  0.00     0.015 C
ENDROOT
BRANCH   1  12
HETATM   12  C1  UNL     1       8.649 -12.790   4.617  1.00  0.00     0.239 C
BRANCH  12  13
HETATM   13  N1  UNL     1       9.760 -12.810   3.725  1.00  0.00    -0.079 N
ATOM     14  H13 UNL     1       9.994 -13.765   3.451  1.00  0.00     0.274 HD
ATOM     15  H12 UNL     1       9.504 -12.437   2.810  1.00  0.00     0.274 HD
ATOM     16  H11 UNL     1      10.573 -12.325   4.106  1.00  0.00     0.274 HD
ENDBRANCH  12  13
ENDBRANCH   1  12
TORSDOF 2
ENDMDL