MODEL 2
REMARK VINA RESULT: -4.571004142      4.607      5.967
REMARK  3 active torsions:
REMARK  status: ('A' for Active; 'I' for Inactive)
REMARK    1  A    between atoms: N1_1  and  C1_4
REMARK    2  A    between atoms: C1_4  and  N2_5
REMARK    3  A    between atoms: N2_5  and  C2_7
ROOT
HETATM    1  C2  UNL     1       8.931 -14.465   2.907  1.00  0.00     0.039 C
HETATM    2  C3  UNL     1       7.637 -14.058   2.208  1.00  0.00     0.036 C
HETATM    3  C4  UNL     1       7.310 -12.620   2.486  1.00  0.00    -0.012 C
HETATM    4  C5  UNL     1       8.417 -11.769   1.911  1.00  0.00     0.009 C
HETATM    5  C6  UNL     1       9.715 -12.187   2.569  1.00  0.00    -0.012 C
HETATM    6  C7  UNL     1       9.593 -11.863   4.042  1.00  0.00     0.009 C
HETATM    7  C8  UNL     1       8.495 -12.707   4.639  1.00  0.00    -0.012 C
HETATM    8  C9  UNL     1       7.191 -12.391   3.973  1.00  0.00     0.009 C
HETATM    9  C10 UNL     1       8.860 -14.158   4.395  1.00  0.00     0.036 C
HETATM   10  C11 UNL     1      10.027 -13.647   2.334  1.00  0.00     0.036 C
ENDROOT
BRANCH   1  11
HETATM   11  N2  UNL     1       9.065 -15.877   2.752  1.00  0.00    -0.333 N
ATOM     12  H2  UNL     1       9.647 -16.372   3.429  1.00  0.00     0.171 HD
BRANCH  11  13
HETATM   13  C1  UNL     1       8.514 -16.563   1.838  1.00  0.00     0.040 C
BRANCH  13  14
HETATM   14  N1  UNL     1       8.071 -17.526   1.143  1.00  0.00    -0.352 N
ATOM     15  H12 UNL     1       7.471 -17.890   1.883  1.00  0.00     0.167 HD
ATOM     16  H11 UNL     1       7.895 -18.181   0.381  1.00  0.00     0.167 HD
ENDBRANCH  13  14
ENDBRANCH  11  13
ENDBRANCH   1  11
TORSDOF 3
ENDMDL