MODEL 4
REMARK VINA RESULT: -4.680991581      1.598      4.680
REMARK  2 active torsions:
REMARK  status: ('A' for Active; 'I' for Inactive)
REMARK    1  A    between atoms: O1_1  and  C1_3
REMARK    2  A    between atoms: C1_3  and  C2_4
ROOT
HETATM    1  C1  UNL     1       8.559 -12.132   5.502  1.00  0.00     0.065 C
HETATM    2  C5  UNL     1       8.761 -12.929   6.771  1.00  0.00     0.043 C
HETATM    3  C6  UNL     1      10.007 -12.367   7.391  1.00  0.00    -0.011 C
HETATM    4  C7  UNL     1       9.577 -11.640   8.675  1.00  0.00     0.005 C
HETATM    5  C8  UNL     1       8.665 -10.512   8.408  1.00  0.00     0.001 C
HETATM    6  C9  UNL     1       8.246 -10.256   7.013  1.00  0.00     0.007 C
HETATM    7  C10 UNL     1       9.116 -10.788   5.942  1.00  0.00     0.021 C
HETATM    8  C11 UNL     1      10.466 -11.210   6.487  1.00  0.00     0.012 C
ENDROOT
BRANCH   1   9
HETATM    9  O1  UNL     1       7.178 -12.031   5.212  1.00  0.00    -0.389 OA
ATOM     10  H1  UNL     1       6.702 -11.648   5.939  1.00  0.00     0.210 HD
ENDBRANCH   1   9
BRANCH   1  11
HETATM   11  C2  UNL     1       9.292 -12.742   4.387  1.00  0.00     0.020 A
HETATM   12  C3  UNL     1       9.631 -12.012   3.145  1.00  0.00     0.008 A
HETATM   13  C4  UNL     1       8.561 -13.049   3.095  1.00  0.00     0.008 A
ENDBRANCH   1  11
TORSDOF 2
ENDMDL