MODEL 2
REMARK VINA RESULT: -4.819865351      2.471      3.326
REMARK  2 active torsions:
REMARK  status: ('A' for Active; 'I' for Inactive)
REMARK    1  A    between atoms: O1_1  and  N1_3
REMARK    2  A    between atoms: N1_3  and  C1_4
ROOT
HETATM    1  C1  UNL     1       8.667 -12.800   4.911  1.00  0.00     0.057 C
HETATM    2  C2  UNL     1       7.215 -12.382   4.676  1.00  0.00     0.029 C
HETATM    3  C3  UNL     1       7.033 -11.689   3.364  1.00  0.00     0.007 C
HETATM    4  C4  UNL     1       7.985 -12.248   2.354  1.00  0.00    -0.010 C
HETATM    5  C5  UNL     1       7.803 -13.750   2.303  1.00  0.00     0.010 C
HETATM    6  C6  UNL     1       9.080 -14.288   2.928  1.00  0.00    -0.012 C
HETATM    7  C7  UNL     1      10.107 -13.317   2.386  1.00  0.00     0.010 C
HETATM    8  C8  UNL     1       9.417 -11.985   2.710  1.00  0.00    -0.008 C
HETATM    9  C9  UNL     1       9.597 -11.813   4.222  1.00  0.00     0.034 C
HETATM   10  C10 UNL     1       8.935 -14.185   4.414  1.00  0.00     0.034 C
ENDROOT
BRANCH   1  11
HETATM   11  N1  UNL     1       8.897 -12.699   6.319  1.00  0.00    -0.093 NA
BRANCH  11  12
HETATM   12  O1  UNL     1       9.274 -13.842   6.882  1.00  0.00    -0.295 OA
ATOM     13  H1  UNL     1       9.600 -13.742   7.768  1.00  0.00     0.238 HD
ENDBRANCH  11  12
ENDBRANCH   1  11
TORSDOF 2
ENDMDL