MODEL 5
REMARK VINA RESULT: -4.449696261      1.511      3.254
REMARK  2 active torsions:
REMARK  status: ('A' for Active; 'I' for Inactive)
REMARK    1  A    between atoms: C2_2  and  C3_3
REMARK    2  A    between atoms: C11_11  and  N1_12
ROOT
HETATM    1  C3  UNL     1       7.704 -14.282   2.733  1.00  0.00     0.047 C
HETATM    2  C4  UNL     1       9.084 -14.406   3.358  1.00  0.00    -0.004 C
HETATM    3  C5  UNL     1       8.989 -13.937   4.789  1.00  0.00     0.010 C
HETATM    4  C6  UNL     1       8.504 -12.494   4.821  1.00  0.00    -0.011 C
HETATM    5  C7  UNL     1       9.577 -11.673   4.142  1.00  0.00     0.009 C
HETATM    6  C8  UNL     1       9.722 -12.135   2.718  1.00  0.00    -0.011 C
HETATM    7  C9  UNL     1      10.108 -13.581   2.653  1.00  0.00     0.010 C
HETATM    8  C10 UNL     1       8.389 -11.970   2.011  1.00  0.00     0.044 C
HETATM    9  C11 UNL     1       7.359 -12.844   2.643  1.00  0.00     0.131 C
HETATM   10  C12 UNL     1       7.214 -12.327   4.091  1.00  0.00     0.044 C
ENDROOT
BRANCH   9  11
HETATM   11  N1  UNL     1       6.071 -12.560   2.031  1.00  0.00    -0.070 N
ATOM     12  H13 UNL     1       5.540 -13.422   1.911  1.00  0.00     0.275 HD
ATOM     13  H12 UNL     1       5.467 -12.070   2.692  1.00  0.00     0.275 HD
ATOM     14  H11 UNL     1       6.116 -12.049   1.150  1.00  0.00     0.275 HD
ENDBRANCH   9  11
BRANCH   1  15
HETATM   15  C2  UNL     1       7.603 -15.078   1.500  1.00  0.00    -0.029 C
HETATM   16  C1  UNL     1       8.011 -16.276   1.243  1.00  0.00     0.007 C
ENDBRANCH   1  15
TORSDOF 2
ENDMDL