MODEL 2
REMARK VINA RESULT: -6.117904232      2.120      4.518
REMARK  2 active torsions:
REMARK  status: ('A' for Active; 'I' for Inactive)
REMARK    1  A    between atoms: O1_1  and  C1_3
REMARK    2  A    between atoms: C1_3  and  C2_4
ROOT
HETATM    1  C1  UNL     1       8.821 -12.248   4.808  1.00  0.00     0.061 C
HETATM    2  C7  UNL     1       9.825 -11.420   5.547  1.00  0.00     0.038 C
HETATM    3  C8  UNL     1       9.347 -10.650   6.708  1.00  0.00     0.003 C
HETATM    4  C9  UNL     1       7.943 -10.117   6.572  1.00  0.00     0.000 C
HETATM    5  C10 UNL     1       6.991 -11.242   6.224  1.00  0.00     0.003 C
HETATM    6  C11 UNL     1       7.406 -11.785   4.897  1.00  0.00     0.038 C
ENDROOT
BRANCH   1   7
HETATM    7  O1  UNL     1       8.882 -13.548   5.339  1.00  0.00    -0.389 OA
ATOM      8  H1  UNL     1       9.552 -13.542   6.011  1.00  0.00     0.210 HD
ENDBRANCH   1   7
BRANCH   1   9
HETATM    9  C2  UNL     1       9.177 -12.353   3.332  1.00  0.00     0.020 C
HETATM   10  C3  UNL     1       9.653 -13.742   2.970  1.00  0.00     0.007 C
HETATM   11  C4  UNL     1       8.693 -14.292   1.937  1.00  0.00     0.000 C
HETATM   12  C5  UNL     1       7.435 -13.484   2.100  1.00  0.00     0.000 C
HETATM   13  C6  UNL     1       8.007 -12.120   2.430  1.00  0.00     0.007 C
ENDBRANCH   1   9
TORSDOF 2
ENDMDL