MODEL 1
REMARK VINA RESULT: -5.345435854      0.000      0.000
REMARK  2 active torsions:
REMARK  status: ('A' for Active; 'I' for Inactive)
REMARK    1  A    between atoms: N1_1  and  C1_5
REMARK    2  A    between atoms: C1_5  and  C2_6
ROOT
HETATM    1  C2  UNL     1       8.683 -12.584   5.373  1.00  0.00    -0.017 C
HETATM    2  C3  UNL     1       7.255 -12.148   5.581  1.00  0.00     0.011 C
HETATM    3  C4  UNL     1       6.606 -11.518   4.413  1.00  0.00     0.001 C
HETATM    4  C5  UNL     1       6.648 -12.294   3.146  1.00  0.00     0.000 C
HETATM    5  C6  UNL     1       7.826 -12.006   2.288  1.00  0.00     0.004 C
HETATM    6  C7  UNL     1       9.061 -12.756   2.589  1.00  0.00    -0.014 C
HETATM    7  C8  UNL     1      10.078 -11.937   3.382  1.00  0.00     0.005 C
HETATM    8  C9  UNL     1       9.543 -11.562   4.719  1.00  0.00     0.011 C
HETATM    9  C10 UNL     1       8.887 -14.044   3.318  1.00  0.00     0.005 C
HETATM   10  C11 UNL     1       8.781 -13.959   4.784  1.00  0.00     0.011 C
ENDROOT
BRANCH   1  11
HETATM   11  C1  UNL     1       9.231 -12.730   6.812  1.00  0.00     0.239 C
BRANCH  11  12
HETATM   12  N1  UNL     1       9.482 -14.093   7.147  1.00  0.00    -0.079 N
ATOM     13  H13 UNL     1       8.736 -14.476   7.728  1.00  0.00     0.274 HD
ATOM     14  H12 UNL     1       9.379 -14.700   6.334  1.00  0.00     0.274 HD
ATOM     15  H11 UNL     1      10.394 -14.213   7.588  1.00  0.00     0.274 HD
ENDBRANCH  11  12
ENDBRANCH   1  11
TORSDOF 2
ENDMDL