MODEL 5
REMARK VINA RESULT: -5.567409985      2.350      6.270
REMARK  4 active torsions:
REMARK  status: ('A' for Active; 'I' for Inactive)
REMARK    1  A    between atoms: C2_2  and  C3_3
REMARK    2  A    between atoms: C3_3  and  N1_4
REMARK    3  A    between atoms: C3_3  and  C6_11
REMARK       I    between atoms: N1_4  and  C4_6
REMARK    4  A    between atoms: C4_6  and  C5_8
REMARK       I    between atoms: C6_11  and  N3_13
REMARK       I    between atoms: N3_13  and  C7_15
REMARK       I    between atoms: C7_15  and  N4_16
ROOT
HETATM    1  C6  UNL     1      42.514  -5.798  59.875  1.00  0.00     0.258 C
HETATM    2  O3  UNL     1      42.251  -6.432  58.830  1.00  0.00    -0.270 OA
HETATM    3  N3  UNL     1      42.754  -4.416  59.796  1.00  0.00    -0.157 N
ATOM      4  H3  UNL     1      42.969  -3.901  60.650  1.00  0.00     0.187 HD
HETATM    5  C7  UNL     1      42.707  -3.721  58.568  1.00  0.00     0.696 C
HETATM    6  N4  UNL     1      42.406  -4.440  57.364  1.00  0.00    -0.165 N
ATOM      7  H4  UNL     1      41.463  -4.800  57.224  1.00  0.00     0.186 HD
HETATM    8  C8  UNL     1      43.296  -4.643  56.457  1.00  0.00     0.215 C
HETATM    9  N5  UNL     1      42.915  -5.364  55.295  1.00  0.00    -0.066 NA
HETATM   10  N6  UNL     1      44.640  -4.187  56.548  1.00  0.00    -0.066 NA
HETATM   11  N7  UNL     1      42.929  -2.454  58.511  1.00  0.00    -0.126 N
ATOM     12  H7  UNL     1      42.892  -1.962  57.618  1.00  0.00     0.197 HD
HETATM   13  C9  UNL     1      43.221  -1.765  59.690  1.00  0.00     0.196 C
HETATM   14  N8  UNL     1      43.449  -1.186  60.671  1.00  0.00    -0.171 NA
ENDROOT
BRANCH   1  15
HETATM   15  C3  UNL     1      42.561  -6.535  61.155  1.00  0.00     0.177 C
BRANCH  15  16
HETATM   16  C2  UNL     1      43.984  -6.631  61.690  1.00  0.00     0.030 C
HETATM   17  C1  UNL     1      44.690  -7.791  61.035  1.00  0.00     0.007 C
ENDBRANCH  15  16
BRANCH  15  18
HETATM   18  N1  UNL     1      41.966  -7.844  61.061  1.00  0.00    -0.340 N
HETATM   19  C4  UNL     1      40.577  -8.029  60.844  1.00  0.00     0.307 C
HETATM   20  O1  UNL     1      39.863  -7.007  60.734  1.00  0.00    -0.263 OA
ATOM     21  H1  UNL     1      42.564  -8.665  61.154  1.00  0.00     0.163 HD
BRANCH  19  22
HETATM   22  C5  UNL     1      39.968  -9.342  60.749  1.00  0.00     0.322 C
HETATM   23  N2  UNL     1      40.361 -10.377  61.635  1.00  0.00    -0.053 NA
HETATM   24  O2  UNL     1      39.084  -9.613  59.895  1.00  0.00    -0.266 OA
ENDBRANCH  19  22
ENDBRANCH  15  18
ENDBRANCH   1  15
TORSDOF 4
ENDMDL