MODEL 2
REMARK VINA RESULT: -6.185296755      1.106      1.106
REMARK  4 active torsions:
REMARK  status: ('A' for Active; 'I' for Inactive)
REMARK       I    between atoms: N1_2  and  C2_4
REMARK    1  A    between atoms: C2_4  and  C3_6
REMARK       I    between atoms: C3_6  and  N2_8
REMARK    2  A    between atoms: N2_8  and  C4_10
REMARK    3  A    between atoms: C4_10  and  C5_11
REMARK       I    between atoms: C5_11  and  N3_13
REMARK    4  A    between atoms: N3_13  and  N4_15
REMARK       I    between atoms: N4_15  and  C6_17
REMARK       I    between atoms: N6_19  and  C7_21
REMARK       I    between atoms: C7_21  and  N8_25
ROOT
HETATM    1  C5  UNL     1      40.535  -8.797  60.679  1.00  0.00     0.253 C
HETATM    2  O3  UNL     1      39.417  -8.159  60.723  1.00  0.00    -0.270 OA
HETATM    3  N3  UNL     1      41.743  -8.101  60.649  1.00  0.00    -0.266 N
ATOM      4  H3  UNL     1      42.612  -8.633  60.605  1.00  0.00     0.190 HD
ENDROOT
BRANCH   3   5
HETATM    5  N4  UNL     1      41.814  -6.721  60.677  1.00  0.00    -0.270 N
HETATM    6  C6  UNL     1      42.641  -6.010  59.777  1.00  0.00     0.221 C
HETATM    7  N5  UNL     1      43.961  -5.679  60.124  1.00  0.00    -0.061 NA
HETATM    8  N6  UNL     1      42.130  -5.665  58.644  1.00  0.00    -0.163 N
HETATM    9  C7  UNL     1      42.812  -4.958  57.637  1.00  0.00     0.675 C
ATOM     10  H6  UNL     1      41.160  -5.924  58.466  1.00  0.00     0.187 HD
HETATM   11  N7  UNL     1      43.044  -5.593  56.535  1.00  0.00    -0.235 N
HETATM   12  N8  UNL     1      43.234  -3.613  57.804  1.00  0.00    -0.227 N
ATOM     13  H72 UNL     1      42.741  -6.559  56.414  1.00  0.00     0.174 HD
ATOM     14  H71 UNL     1      43.539  -5.080  55.804  1.00  0.00     0.174 HD
HETATM   15  C8  UNL     1      44.411  -3.146  57.077  1.00  0.00     0.168 C
HETATM   16  C9  UNL     1      42.571  -2.655  58.653  1.00  0.00     0.168 C
ATOM     17  H4  UNL     1      41.258  -6.205  61.359  1.00  0.00     0.189 HD
ENDBRANCH   3   5
BRANCH   1  18
HETATM   18  C4  UNL     1      40.377 -10.261  60.661  1.00  0.00     0.227 C
BRANCH  18  19
HETATM   19  N2  UNL     1      39.798 -10.778  61.854  1.00  0.00    -0.344 N
HETATM   20  C3  UNL     1      40.286 -10.530  63.153  1.00  0.00     0.309 C
HETATM   21  O2  UNL     1      41.304  -9.786  63.281  1.00  0.00    -0.262 OA
ATOM     22  H2  UNL     1      38.972 -11.370  61.762  1.00  0.00     0.163 HD
BRANCH  20  23
HETATM   23  C2  UNL     1      39.654 -11.102  64.339  1.00  0.00     0.308 C
HETATM   24  N1  UNL     1      38.288 -10.905  64.613  1.00  0.00    -0.357 N
HETATM   25  C1  UNL     1      37.694 -11.485  65.798  1.00  0.00     0.149 C
ATOM     26  H1  UNL     1      37.716 -10.352  63.975  1.00  0.00     0.162 HD
HETATM   27  O1  UNL     1      40.356 -11.780  65.119  1.00  0.00    -0.262 OA
ENDBRANCH  20  23
ENDBRANCH  18  19
ENDBRANCH   1  18
TORSDOF 4
ENDMDL