MODEL 4
REMARK VINA RESULT: -6.023413987      2.076      2.713
REMARK  5 active torsions:
REMARK  status: ('A' for Active; 'I' for Inactive)
REMARK    1  A    between atoms: C2_2  and  C3_3
REMARK       I    between atoms: C3_3  and  N1_5
REMARK    2  A    between atoms: N1_5  and  N2_7
REMARK       I    between atoms: N2_7  and  C4_9
REMARK    3  A    between atoms: C4_9  and  C5_11
REMARK    4  A    between atoms: C5_11  and  N3_12
REMARK       I    between atoms: C6_14  and  N5_16
REMARK       I    between atoms: C7_18  and  N7_20
REMARK    5  A    between atoms: N7_20  and  N8_22
REMARK       I    between atoms: N8_22  and  C8_24
ROOT
HETATM    1  N3  UNL     1      41.100  -7.948  61.143  1.00  0.00    -0.335 N
ATOM      2  H3  UNL     1      41.750  -7.595  61.845  1.00  0.00     0.168 HD
HETATM    3  C6  UNL     1      40.643  -7.026  60.451  1.00  0.00     0.194 C
HETATM    4  N4  UNL     1      39.734  -7.186  59.406  1.00  0.00    -0.063 NA
HETATM    5  N5  UNL     1      41.087  -5.690  60.757  1.00  0.00    -0.303 N
ATOM      6  H5  UNL     1      40.478  -5.082  61.303  1.00  0.00     0.171 HD
HETATM    7  C7  UNL     1      42.214  -5.241  60.368  1.00  0.00     0.209 C
HETATM    8  N6  UNL     1      42.607  -3.931  60.693  1.00  0.00    -0.062 NA
HETATM    9  N7  UNL     1      43.059  -6.073  59.601  1.00  0.00    -0.271 N
ATOM     10  H7  UNL     1      43.014  -7.090  59.676  1.00  0.00     0.189 HD
ENDROOT
BRANCH   1  11
HETATM   11  C5  UNL     1      40.970  -9.333  61.227  1.00  0.00     0.166 C
BRANCH  11  12
HETATM   12  C4  UNL     1      40.803  -9.974  62.519  1.00  0.00     0.275 C
HETATM   13  N2  UNL     1      39.897 -10.988  62.864  1.00  0.00    -0.263 N
ATOM     14  H2  UNL     1      39.254 -11.340  62.155  1.00  0.00     0.190 HD
HETATM   15  O2  UNL     1      41.591  -9.549  63.451  1.00  0.00    -0.265 OA
BRANCH  13  16
HETATM   16  N1  UNL     1      39.851 -11.528  64.153  1.00  0.00    -0.264 N
HETATM   17  C3  UNL     1      38.712 -11.498  64.981  1.00  0.00     0.258 C
HETATM   18  O1  UNL     1      37.686 -10.952  64.524  1.00  0.00    -0.267 OA
ATOM     19  H1  UNL     1      40.695 -11.971  64.516  1.00  0.00     0.190 HD
BRANCH  17  20
HETATM   20  C2  UNL     1      38.759 -12.096  66.330  1.00  0.00     0.065 C
HETATM   21  C1  UNL     1      37.718 -11.893  67.118  1.00  0.00     0.017 C
ENDBRANCH  17  20
ENDBRANCH  13  16
ENDBRANCH  11  12
ENDBRANCH   1  11
BRANCH   9  22
HETATM   22  N8  UNL     1      43.962  -5.444  58.734  1.00  0.00    -0.268 N
HETATM   23  C8  UNL     1      43.482  -4.882  57.531  1.00  0.00     0.232 C
HETATM   24  C9  UNL     1      44.396  -4.201  56.588  1.00  0.00     0.119 C
HETATM   25  O3  UNL     1      42.266  -4.947  57.236  1.00  0.00    -0.272 OA
ATOM     26  H8  UNL     1      44.953  -5.393  58.969  1.00  0.00     0.190 HD
ENDBRANCH   9  22
TORSDOF 5
ENDMDL