MODEL 4
REMARK VINA RESULT: -7.349421545      2.245      3.593
REMARK  8 active torsions:
REMARK  status: ('A' for Active; 'I' for Inactive)
REMARK    1  A    between atoms: C2_4  and  N2_6
REMARK    2  A    between atoms: N2_6  and  N3_8
REMARK    3  A    between atoms: N3_8  and  C4_10
REMARK    4  A    between atoms: C4_10  and  N4_12
REMARK    5  A    between atoms: N4_12  and  N5_14
REMARK       I    between atoms: N5_14  and  C5_16
REMARK    6  A    between atoms: C5_16  and  C6_18
REMARK       I    between atoms: C6_18  and  N6_20
REMARK    7  A    between atoms: N6_20  and  C7_22
REMARK    8  A    between atoms: C7_22  and  C8_23
ROOT
HETATM    1  N4  UNL     1      42.267  -8.131  59.612  1.00  0.00    -0.272 N
ATOM      2  H4  UNL     1      41.777  -8.944  59.239  1.00  0.00     0.189 HD
ENDROOT
BRANCH   1   3
HETATM    3  C4  UNL     1      42.571  -8.101  60.985  1.00  0.00     0.205 C
HETATM    4  S1  UNL     1      41.798  -9.097  62.019  1.00  0.00    -0.038 SA
BRANCH   3   5
HETATM    5  N3  UNL     1      43.540  -7.225  61.511  1.00  0.00    -0.274 N
ATOM      6  H3  UNL     1      44.516  -7.516  61.562  1.00  0.00     0.189 HD
BRANCH   5   7
HETATM    7  N2  UNL     1      43.165  -5.959  61.962  1.00  0.00    -0.287 N
ATOM      8  H2  UNL     1      42.540  -5.889  62.766  1.00  0.00     0.188 HD
BRANCH   7   9
HETATM    9  C2  UNL     1      43.622  -4.765  61.341  1.00  0.00     0.087 C
HETATM   10  N1  UNL     1      42.982  -3.681  61.544  1.00  0.00    -0.383 N
HETATM   11  C1  UNL     1      41.810  -3.628  62.395  1.00  0.00     0.147 C
ATOM     12  H1  UNL     1      43.305  -2.824  61.095  1.00  0.00     0.160 HD
HETATM   13  C3  UNL     1      44.817  -4.838  60.480  1.00  0.00     0.090 C
ENDBRANCH   7   9
ENDBRANCH   5   7
ENDBRANCH   3   5
ENDBRANCH   1   3
BRANCH   1  14
HETATM   14  N5  UNL     1      42.609  -7.090  58.731  1.00  0.00    -0.260 N
HETATM   15  C5  UNL     1      41.988  -5.824  58.692  1.00  0.00     0.327 C
HETATM   16  O1  UNL     1      41.051  -5.580  59.490  1.00  0.00    -0.261 OA
ATOM     17  H5  UNL     1      43.364  -7.264  58.068  1.00  0.00     0.190 HD
BRANCH  15  18
HETATM   18  C6  UNL     1      42.439  -4.818  57.734  1.00  0.00     0.311 C
HETATM   19  O2  UNL     1      41.789  -3.730  57.637  1.00  0.00    -0.262 OA
HETATM   20  N6  UNL     1      43.577  -5.074  56.942  1.00  0.00    -0.344 N
ATOM     21  H6  UNL     1      44.082  -5.952  57.052  1.00  0.00     0.163 HD
BRANCH  20  22
HETATM   22  C7  UNL     1      44.029  -4.106  55.979  1.00  0.00     0.222 C
BRANCH  22  23
HETATM   23  C8  UNL     1      45.256  -3.395  56.423  1.00  0.00     0.248 C
HETATM   24  N7  UNL     1      45.360  -1.975  56.280  1.00  0.00    -0.061 NA
HETATM   25  O3  UNL     1      46.250  -3.965  56.935  1.00  0.00    -0.275 OA
ENDBRANCH  22  23
ENDBRANCH  20  22
ENDBRANCH  15  18
ENDBRANCH   1  14
TORSDOF 8
ENDMDL