MODEL 2
REMARK VINA RESULT: -7.156615297      1.102      1.292
REMARK  8 active torsions:
REMARK  status: ('A' for Active; 'I' for Inactive)
REMARK    1  A    between atoms: N1_2  and  C2_4
REMARK    2  A    between atoms: C2_4  and  N2_6
REMARK    3  A    between atoms: N2_6  and  N3_8
REMARK    4  A    between atoms: N3_8  and  C4_10
REMARK    5  A    between atoms: C4_10  and  N4_12
REMARK    6  A    between atoms: N4_12  and  N5_14
REMARK       I    between atoms: C5_16  and  N7_18
REMARK    7  A    between atoms: N7_18  and  N8_20
REMARK    8  A    between atoms: N8_20  and  O1_24
ROOT
HETATM    1  N4  UNL     1      43.166  -4.999  58.888  1.00  0.00    -0.273 N
ATOM      2  H4  UNL     1      43.500  -4.035  58.918  1.00  0.00     0.189 HD
ENDROOT
BRANCH   1   3
HETATM    3  C4  UNL     1      42.953  -5.685  60.104  1.00  0.00     0.207 C
HETATM    4  S2  UNL     1      42.335  -4.869  61.391  1.00  0.00    -0.038 SA
BRANCH   3   5
HETATM    5  N3  UNL     1      43.251  -7.049  60.259  1.00  0.00    -0.268 N
HETATM    6  C3  UNL     1      44.370  -7.601  60.960  1.00  0.00     0.180 C
BRANCH   5   7
HETATM    7  N2  UNL     1      42.362  -7.984  59.669  1.00  0.00    -0.272 N
ATOM      8  H2  UNL     1      42.601  -8.458  58.797  1.00  0.00     0.189 HD
BRANCH   7   9
HETATM    9  C2  UNL     1      41.134  -8.241  60.327  1.00  0.00     0.186 C
HETATM   10  S1  UNL     1      41.071  -9.336  61.517  1.00  0.00    -0.040 SA
BRANCH   9  11
HETATM   11  N1  UNL     1      39.971  -7.526  59.925  1.00  0.00    -0.370 N
HETATM   12  C1  UNL     1      38.772  -8.280  59.586  1.00  0.00     0.148 C
ATOM     13  H1  UNL     1      39.977  -6.507  59.875  1.00  0.00     0.161 HD
ENDBRANCH   9  11
ENDBRANCH   7   9
ENDBRANCH   5   7
ENDBRANCH   3   5
ENDBRANCH   1   3
BRANCH   1  14
HETATM   14  N5  UNL     1      42.937  -5.592  57.648  1.00  0.00    -0.270 N
HETATM   15  C5  UNL     1      43.112  -4.993  56.533  1.00  0.00     0.225 C
HETATM   16  N6  UNL     1      42.856  -5.669  55.320  1.00  0.00    -0.060 NA
HETATM   17  N7  UNL     1      43.563  -3.653  56.498  1.00  0.00    -0.231 N
ATOM     18  H7  UNL     1      42.869  -2.916  56.368  1.00  0.00     0.194 HD
ATOM     19  H5  UNL     1      42.611  -6.558  57.629  1.00  0.00     0.189 HD
BRANCH  17  20
HETATM   20  N8  UNL     1      44.895  -3.283  56.629  1.00  0.00    -0.099 N
HETATM   21  N9  UNL     1      45.271  -2.133  56.271  1.00  0.00    -0.303 N
ATOM     22  H92 UNL     1      44.592  -1.476  55.884  1.00  0.00     0.181 HD
ATOM     23  H91 UNL     1      46.250  -1.861  56.367  1.00  0.00     0.181 HD
BRANCH  20  24
HETATM   24  O1  UNL     1      45.802  -4.160  57.145  1.00  0.00    -0.254 OA
ATOM     25  H1  UNL     1      46.401  -4.620  56.570  1.00  0.00     0.248 HD
ENDBRANCH  20  24
ENDBRANCH  17  20
ENDBRANCH   1  14
TORSDOF 8
ENDMDL