MODEL 5
REMARK VINA RESULT: -6.844622035      2.082      4.870
REMARK  6 active torsions:
REMARK  status: ('A' for Active; 'I' for Inactive)
REMARK    1  A    between atoms: N1_2  and  C2_4
REMARK    2  A    between atoms: C2_4  and  N2_6
REMARK       I    between atoms: C3_8  and  N3_9
REMARK       I    between atoms: C3_8  and  N6_14
REMARK       I    between atoms: N6_14  and  C5_16
REMARK    3  A    between atoms: C5_16  and  C6_18
REMARK    4  A    between atoms: C6_18  and  N7_19
REMARK    5  A    between atoms: C6_18  and  C7_23
REMARK    6  A    between atoms: C7_23  and  C8_24
ROOT
HETATM    1  N2  UNL     1      43.292  -6.645  58.555  1.00  0.00    -0.166 N
ATOM      2  H2  UNL     1      43.781  -7.157  57.820  1.00  0.00     0.186 HD
HETATM    3  C3  UNL     1      43.423  -5.385  58.548  1.00  0.00     0.689 C
HETATM    4  N3  UNL     1      44.229  -4.802  57.531  1.00  0.00    -0.165 N
ATOM      5  H3  UNL     1      45.125  -4.390  57.793  1.00  0.00     0.186 HD
HETATM    6  C4  UNL     1      43.873  -4.774  56.294  1.00  0.00     0.215 C
HETATM    7  N4  UNL     1      44.754  -4.166  55.355  1.00  0.00    -0.066 NA
HETATM    8  N5  UNL     1      42.659  -5.311  55.810  1.00  0.00    -0.066 NA
HETATM    9  N6  UNL     1      42.771  -4.595  59.544  1.00  0.00    -0.158 N
ATOM     10  H6  UNL     1      42.204  -5.062  60.252  1.00  0.00     0.187 HD
HETATM   11  C5  UNL     1      42.889  -3.186  59.577  1.00  0.00     0.267 C
HETATM   12  O1  UNL     1      43.580  -2.627  58.694  1.00  0.00    -0.270 OA
ENDROOT
BRANCH   1  13
HETATM   13  C2  UNL     1      42.547  -7.411  59.464  1.00  0.00     0.186 C
HETATM   14  S1  UNL     1      43.160  -8.038  60.839  1.00  0.00    -0.040 SA
BRANCH  13  15
HETATM   15  N1  UNL     1      41.177  -7.665  59.188  1.00  0.00    -0.371 N
HETATM   16  C1  UNL     1      40.213  -8.008  60.230  1.00  0.00     0.148 C
ATOM     17  H1  UNL     1      40.854  -7.605  58.223  1.00  0.00     0.161 HD
ENDBRANCH  13  15
ENDBRANCH   1  13
BRANCH  11  18
HETATM   18  C6  UNL     1      42.197  -2.425  60.635  1.00  0.00     0.283 C
BRANCH  18  19
HETATM   19  N7  UNL     1      43.333  -1.720  61.332  1.00  0.00    -0.066 N
ATOM     20  H73 UNL     1      43.526  -0.778  60.990  1.00  0.00     0.275 HD
ATOM     21  H72 UNL     1      43.137  -1.440  62.293  1.00  0.00     0.275 HD
ATOM     22  H71 UNL     1      44.104  -2.379  61.227  1.00  0.00     0.275 HD
ENDBRANCH  18  19
BRANCH  18  23
HETATM   23  C7  UNL     1      41.596  -3.250  61.726  1.00  0.00     0.142 C
BRANCH  23  24
HETATM   24  C8  UNL     1      42.473  -3.703  62.805  1.00  0.00     0.233 C
HETATM   25  N8  UNL     1      43.335  -4.837  62.511  1.00  0.00    -0.062 NA
HETATM   26  O2  UNL     1      42.543  -3.209  63.935  1.00  0.00    -0.277 OA
ENDBRANCH  23  24
ENDBRANCH  18  23
ENDBRANCH  11  18
TORSDOF 6
ENDMDL