MODEL 2
REMARK VINA RESULT: -8.238495301      1.100      1.431
REMARK  5 active torsions:
REMARK  status: ('A' for Active; 'I' for Inactive)
REMARK    1  A    between atoms: C2_2  and  C4_4
REMARK    2  A    between atoms: C4_4  and  C7_18
REMARK       I    between atoms: N1_5  and  C5_7
REMARK       I    between atoms: C5_7  and  N2_9
REMARK    3  A    between atoms: N2_9  and  N3_11
REMARK       I    between atoms: N3_11  and  C6_13
REMARK    4  A    between atoms: C7_18  and  N6_19
REMARK    5  A    between atoms: C7_18  and  C8_23
REMARK       I    between atoms: C8_23  and  N7_25
ROOT
HETATM    1  C4  UNL     1      43.092  -6.282  61.153  1.00  0.00     0.034 C
HETATM    2  N1  UNL     1      43.629  -6.248  60.057  1.00  0.00    -0.312 N
ATOM      3  H1  UNL     1      44.020  -7.174  59.886  1.00  0.00     0.170 HD
HETATM    4  C5  UNL     1      43.918  -5.488  58.977  1.00  0.00     0.339 C
HETATM    5  O1  UNL     1      44.815  -4.576  58.905  1.00  0.00    -0.245 OA
HETATM    6  N2  UNL     1      43.188  -5.669  57.753  1.00  0.00    -0.249 N
ATOM      7  H2  UNL     1      42.455  -6.378  57.732  1.00  0.00     0.192 HD
ENDROOT
BRANCH   1   8
HETATM    8  C2  UNL     1      42.393  -5.178  61.815  1.00  0.00     0.026 C
HETATM    9  C1  UNL     1      43.286  -4.296  62.662  1.00  0.00     0.016 C
HETATM   10  C3  UNL     1      41.549  -4.319  60.907  1.00  0.00     0.016 C
ENDBRANCH   1   8
BRANCH   1  11
HETATM   11  C7  UNL     1      43.158  -7.594  61.905  1.00  0.00     0.320 C
BRANCH  11  12
HETATM   12  N6  UNL     1      44.366  -8.292  61.559  1.00  0.00    -0.061 N
ATOM     13  H63 UNL     1      44.217  -8.968  60.809  1.00  0.00     0.275 HD
ATOM     14  H62 UNL     1      45.035  -7.688  61.083  1.00  0.00     0.275 HD
ATOM     15  H61 UNL     1      44.765  -8.725  62.393  1.00  0.00     0.275 HD
ENDBRANCH  11  12
BRANCH  11  16
HETATM   16  C8  UNL     1      41.947  -8.397  61.693  1.00  0.00     0.260 C
HETATM   17  O2  UNL     1      41.817  -9.468  62.334  1.00  0.00    -0.270 OA
HETATM   18  N7  UNL     1      40.929  -8.000  60.794  1.00  0.00    -0.301 N
HETATM   19  C9  UNL     1      39.942  -8.744  60.456  1.00  0.00     0.203 C
ATOM     20  H7  UNL     1      40.984  -7.065  60.391  1.00  0.00     0.171 HD
HETATM   21  N8  UNL     1      39.816 -10.049  60.984  1.00  0.00    -0.066 NA
HETATM   22  N9  UNL     1      38.971  -8.261  59.549  1.00  0.00    -0.066 NA
ENDBRANCH  11  16
ENDBRANCH   1  11
BRANCH   6  23
HETATM   23  N3  UNL     1      43.423  -4.932  56.592  1.00  0.00    -0.270 N
HETATM   24  C6  UNL     1      43.124  -3.549  56.495  1.00  0.00     0.200 C
HETATM   25  N4  UNL     1      42.080  -3.034  57.031  1.00  0.00    -0.372 N
HETATM   26  N5  UNL     1      44.016  -2.707  55.777  1.00  0.00    -0.062 NA
ATOM     27  H42 UNL     1      41.440  -3.638  57.546  1.00  0.00     0.158 HD
ATOM     28  H41 UNL     1      41.864  -2.039  56.962  1.00  0.00     0.158 HD
ATOM     29  H3  UNL     1      43.824  -5.405  55.783  1.00  0.00     0.189 HD
ENDBRANCH   6  23
TORSDOF 5
ENDMDL