MODEL 3
REMARK VINA RESULT: -6.617116541      2.222      3.830
REMARK  6 active torsions:
REMARK  status: ('A' for Active; 'I' for Inactive)
REMARK    1  A    between atoms: C2_3  and  C3_4
REMARK    2  A    between atoms: C3_4  and  N4_10
REMARK    3  A    between atoms: N2_5  and  N3_7
REMARK       I    between atoms: N4_10  and  C4_12
REMARK    4  A    between atoms: N6_14  and  C5_16
REMARK    5  A    between atoms: N7_17  and  N8_19
REMARK    6  A    between atoms: N8_19  and  C6_21
ROOT
HETATM    1  N4  UNL     1      41.454  -5.910  58.996  1.00  0.00    -0.317 N
ATOM      2  H4  UNL     1      40.489  -5.849  58.671  1.00  0.00     0.170 HD
HETATM    3  C4  UNL     1      41.988  -7.179  59.358  1.00  0.00     0.194 C
HETATM    4  N5  UNL     1      43.324  -7.545  59.091  1.00  0.00    -0.063 NA
HETATM    5  N6  UNL     1      41.238  -8.036  59.953  1.00  0.00    -0.325 N
ATOM      6  H6  UNL     1      41.635  -8.940  60.205  1.00  0.00     0.169 HD
ENDROOT
BRANCH   1   7
HETATM    7  C3  UNL     1      42.237  -4.725  59.078  1.00  0.00     0.134 C
HETATM    8  N2  UNL     1      43.029  -4.447  58.115  1.00  0.00    -0.294 N
ATOM      9  H2  UNL     1      43.594  -3.600  58.163  1.00  0.00     0.187 HD
BRANCH   7  10
HETATM   10  C2  UNL     1      42.076  -3.890  60.284  1.00  0.00     0.329 A
HETATM   11  N1  UNL     1      43.340  -3.267  60.700  1.00  0.00     0.110 N
HETATM   12  C1  UNL     1      43.259  -1.848  60.897  1.00  0.00     0.312 C
HETATM   13  C7  UNL     1      42.639  -4.175  61.568  1.00  0.00     0.191 A
HETATM   14  C8  UNL     1      41.970  -3.660  62.812  1.00  0.00     0.051 C
HETATM   15  C9  UNL     1      43.331  -5.524  61.762  1.00  0.00     0.051 C
ENDBRANCH   7  10
BRANCH   8  16
HETATM   16  N3  UNL     1      43.139  -5.277  57.000  1.00  0.00    -0.344 N
ATOM     17  H32 UNL     1      42.752  -4.949  56.115  1.00  0.00     0.176 HD
ATOM     18  H31 UNL     1      43.592  -6.189  57.056  1.00  0.00     0.176 HD
ENDBRANCH   8  16
ENDBRANCH   1   7
BRANCH   5  19
HETATM   19  C5  UNL     1      39.882  -7.778  60.272  1.00  0.00     0.199 C
HETATM   20  N7  UNL     1      39.191  -8.667  60.866  1.00  0.00    -0.294 N
ATOM     21  H7  UNL     1      38.215  -8.474  61.092  1.00  0.00     0.187 HD
BRANCH  20  22
HETATM   22  N8  UNL     1      39.742  -9.897  61.213  1.00  0.00    -0.278 N
ATOM     23  H8  UNL     1      39.571 -10.710  60.620  1.00  0.00     0.189 HD
BRANCH  22  24
HETATM   24  C6  UNL     1      40.535 -10.035  62.374  1.00  0.00     0.199 C
HETATM   25  N9  UNL     1      41.858  -9.509  62.398  1.00  0.00    -0.068 NA
HETATM   26  S1  UNL     1      39.954 -10.788  63.673  1.00  0.00    -0.043 SA
ENDBRANCH  22  24
ENDBRANCH  20  22
ENDBRANCH   5  19
TORSDOF 6
ENDMDL