MODEL 5
REMARK VINA RESULT: -6.931341286      5.006      7.597
REMARK  6 active torsions:
REMARK  status: ('A' for Active; 'I' for Inactive)
REMARK    1  A    between atoms: C2_3  and  C3_4
REMARK    2  A    between atoms: C3_4  and  N2_5
REMARK       I    between atoms: N2_5  and  C4_7
REMARK    3  A    between atoms: C4_7  and  C5_9
REMARK    4  A    between atoms: C5_9  and  O2_10
REMARK    5  A    between atoms: O2_10  and  C6_11
REMARK       I    between atoms: C6_11  and  N3_13
REMARK    6  A    between atoms: C9_16  and  C10_17
REMARK       I    between atoms: C10_17  and  N4_19
ROOT
HETATM    1  N1  UNL     1      12.094   0.517   7.599  1.00  0.00    -0.197 NA
HETATM    2  C1  UNL     1      13.240   0.406   7.546  1.00  0.00     0.060 C
HETATM    3  C2  UNL     1      14.687   0.242   7.488  1.00  0.00     0.143 C
ENDROOT
BRANCH   3   4
HETATM    4  C3  UNL     1      15.087  -0.978   6.708  1.00  0.00     0.136 C
BRANCH   4   5
HETATM    5  N2  UNL     1      13.987  -1.487   5.939  1.00  0.00    -0.358 N
HETATM    6  C4  UNL     1      13.885  -2.785   5.394  1.00  0.00     0.241 C
HETATM    7  O1  UNL     1      14.852  -3.587   5.611  1.00  0.00    -0.271 OA
ATOM      8  H2  UNL     1      13.207  -0.853   5.770  1.00  0.00     0.162 HD
BRANCH   6   9
HETATM    9  C5  UNL     1      12.777  -3.322   4.598  1.00  0.00     0.283 C
BRANCH   9  10
HETATM   10  O2  UNL     1      12.514  -4.674   4.744  1.00  0.00    -0.295 OA
BRANCH  10  11
HETATM   11  C6  UNL     1      11.267  -5.256   4.696  1.00  0.00     0.363 C
HETATM   12  O3  UNL     1      10.253  -4.519   4.704  1.00  0.00    -0.238 OA
HETATM   13  N3  UNL     1      11.161  -6.658   4.640  1.00  0.00    -0.327 N
HETATM   14  C7  UNL     1      12.252  -7.599   4.623  1.00  0.00     0.129 C
HETATM   15  C17 UNL     1       9.909  -7.382   4.587  1.00  0.00     0.142 C
HETATM   16  C8  UNL     1      11.668  -8.660   3.670  1.00  0.00     0.035 C
HETATM   17  C9  UNL     1      10.286  -8.831   4.210  1.00  0.00     0.097 C
BRANCH  17  18
HETATM   18  C10 UNL     1       9.303  -9.409   3.315  1.00  0.00     0.225 C
HETATM   19  O4  UNL     1       8.672  -8.629   2.526  1.00  0.00    -0.273 OA
HETATM   20  N4  UNL     1       8.988 -10.762   3.244  1.00  0.00    -0.352 N
HETATM   21  C11 UNL     1       7.978 -11.184   2.251  1.00  0.00     0.125 C
HETATM   22  C16 UNL     1       9.634 -11.668   4.137  1.00  0.00     0.125 C
HETATM   23  C12 UNL     1       8.637 -12.232   1.386  1.00  0.00     0.020 C
HETATM   24  C13 UNL     1       8.657 -13.563   2.109  1.00  0.00     0.002 C
HETATM   25  C14 UNL     1       9.958 -13.798   2.824  1.00  0.00     0.002 C
HETATM   26  C15 UNL     1      10.583 -12.543   3.348  1.00  0.00     0.020 C
ENDBRANCH  17  18
ENDBRANCH  10  11
ENDBRANCH   9  10
ENDBRANCH   6   9
ENDBRANCH   4   5
ENDBRANCH   3   4
TORSDOF 6
ENDMDL