MODEL 2
REMARK VINA RESULT: -7.039002043      5.283      8.104
REMARK  5 active torsions:
REMARK  status: ('A' for Active; 'I' for Inactive)
REMARK    1  A    between atoms: C1_2  and  C2_3
REMARK       I    between atoms: C1_2  and  N2_16
REMARK    2  A    between atoms: C2_3  and  O2_4
REMARK    3  A    between atoms: O2_4  and  C3_5
REMARK    4  A    between atoms: N1_8  and  C6_9
REMARK    5  A    between atoms: N2_16  and  C13_18
ROOT
HETATM    1  C2  UNL     1       7.940  -4.108   4.116  1.00  0.00     0.270 C
ENDROOT
BRANCH   1   2
HETATM    2  C1  UNL     1       6.697  -4.124   4.925  1.00  0.00     0.241 C
HETATM    3  O1  UNL     1       5.742  -4.874   4.592  1.00  0.00    -0.271 OA
HETATM    4  N2  UNL     1       6.543  -3.308   6.079  1.00  0.00    -0.355 N
ATOM      5  H2  UNL     1       7.312  -2.697   6.355  1.00  0.00     0.162 HD
BRANCH   4   6
HETATM    6  C13 UNL     1       5.339  -3.314   6.875  1.00  0.00     0.086 C
HETATM    7  C14 UNL     1       5.597  -2.968   8.323  1.00  0.00     0.040 C
HETATM    8  C15 UNL     1       6.192  -1.592   8.495  1.00  0.00     0.142 C
HETATM    9  S1  UNL     1       5.046  -0.429   7.798  1.00  0.00     0.144 S
HETATM   10  O3  UNL     1       5.555   0.961   7.798  1.00  0.00    -0.228 OA
HETATM   11  O4  UNL     1       3.779  -0.462   8.623  1.00  0.00    -0.228 OA
HETATM   12  C16 UNL     1       4.621  -1.017   6.174  1.00  0.00     0.142 C
HETATM   13  C17 UNL     1       4.263  -2.465   6.262  1.00  0.00     0.040 C
ENDBRANCH   4   6
ENDBRANCH   1   2
BRANCH   1  14
HETATM   14  O2  UNL     1       8.774  -5.147   4.489  1.00  0.00    -0.377 OA
BRANCH  14  15
HETATM   15  C3  UNL     1       9.935  -4.731   5.111  1.00  0.00     0.125 C
HETATM   16  C4  UNL     1      11.173  -5.370   4.587  1.00  0.00     0.051 C
HETATM   17  C5  UNL     1      12.363  -4.636   5.244  1.00  0.00     0.119 C
HETATM   18  N1  UNL     1      12.478  -3.362   4.626  1.00  0.00    -0.408 N
HETATM   19  C11 UNL     1      11.222  -2.735   4.337  1.00  0.00     0.119 C
HETATM   20  C12 UNL     1      10.091  -3.251   5.170  1.00  0.00     0.051 C
BRANCH  18  21
HETATM   21  C6  UNL     1      13.534  -2.520   5.017  1.00  0.00     0.079 C
HETATM   22  C7  UNL     1      14.482  -3.185   5.995  1.00  0.00     0.025 C
HETATM   23  C8  UNL     1      15.245  -2.028   6.629  1.00  0.00     0.002 C
HETATM   24  C9  UNL     1      14.341  -0.821   6.452  1.00  0.00     0.002 C
HETATM   25  C10 UNL     1      13.050  -1.346   5.841  1.00  0.00     0.025 C
ENDBRANCH  18  21
ENDBRANCH  14  15
ENDBRANCH   1  14
TORSDOF 5
ENDMDL