MODEL 1
REMARK VINA RESULT: -6.869458858      0.000      0.000
REMARK  6 active torsions:
REMARK  status: ('A' for Active; 'I' for Inactive)
REMARK    1  A    between atoms: S1_2  and  C1_4
REMARK    2  A    between atoms: S1_2  and  N2_18
REMARK    3  A    between atoms: C1_4  and  C2_5
REMARK    4  A    between atoms: N1_12  and  C9_13
REMARK    5  A    between atoms: C9_13  and  C10_14
REMARK    6  A    between atoms: N2_18  and  C13_20
ROOT
HETATM    1  C2  UNL     1       7.154  -2.686   7.316  1.00  0.00     0.001 C
HETATM    2  C3  UNL     1       7.130  -1.223   7.571  1.00  0.00     0.012 C
HETATM    3  C4  UNL     1       5.920  -0.695   8.256  1.00  0.00     0.007 C
HETATM    4  C5  UNL     1       5.083  -1.766   8.907  1.00  0.00     0.014 C
HETATM    5  C6  UNL     1       5.947  -2.820   9.540  1.00  0.00     0.007 C
HETATM    6  C7  UNL     1       7.056  -3.339   8.724  1.00  0.00     0.012 C
HETATM    7  C8  UNL     1       4.180  -2.359   7.848  1.00  0.00     0.277 C
HETATM    8  N1  UNL     1       4.873  -2.210   6.587  1.00  0.00     0.092 N
HETATM    9  C12 UNL     1       5.943  -3.179   6.555  1.00  0.00     0.283 C
ENDROOT
BRANCH   1  10
HETATM   10  C1  UNL     1       8.445  -3.198   6.799  1.00  0.00     0.174 C
BRANCH  10  11
HETATM   11  S1  UNL     1       8.730  -3.328   5.109  1.00  0.00     0.227 S
HETATM   12  O1  UNL     1       7.520  -2.713   4.385  1.00  0.00    -0.206 OA
HETATM   13  O2  UNL     1       8.552  -4.828   4.759  1.00  0.00    -0.206 OA
BRANCH  11  14
HETATM   14  N2  UNL     1      10.096  -2.695   4.416  1.00  0.00    -0.315 N
ATOM     15  H2  UNL     1      10.003  -2.118   3.580  1.00  0.00     0.172 HD
BRANCH  14  16
HETATM   16  C13 UNL     1      11.378  -2.928   4.939  1.00  0.00     0.097 C
HETATM   17  C14 UNL     1      12.460  -1.947   4.553  1.00  0.00     0.052 C
HETATM   18  C15 UNL     1      13.792  -2.671   4.548  1.00  0.00     0.169 C
HETATM   19  O4  UNL     1      13.877  -3.463   5.689  1.00  0.00    -0.391 OA
HETATM   20  C16 UNL     1      13.056  -4.577   5.557  1.00  0.00     0.169 C
HETATM   21  C17 UNL     1      11.877  -4.355   4.640  1.00  0.00     0.052 C
ENDBRANCH  14  16
ENDBRANCH  11  14
ENDBRANCH  10  11
ENDBRANCH   1  10
BRANCH   8  22
HETATM   22  C9  UNL     1       3.951  -2.304   5.512  1.00  0.00     0.306 C
BRANCH  22  23
HETATM   23  C10 UNL     1       3.755  -1.057   4.707  1.00  0.00     0.173 A
HETATM   24  C11 UNL     1       2.466  -0.380   4.537  1.00  0.00     0.201 A
HETATM   25  O3  UNL     1       3.386   0.051   5.486  1.00  0.00    -0.379 OA
ENDBRANCH  22  23
ENDBRANCH   8  22
TORSDOF 6
ENDMDL