MODEL 2
REMARK VINA RESULT: -6.584094207      1.502      2.035
REMARK  5 active torsions:
REMARK  status: ('A' for Active; 'I' for Inactive)
REMARK    1  A    between atoms: C5_6  and  C6_7
REMARK    2  A    between atoms: C6_7  and  N1_8
REMARK       I    between atoms: N1_8  and  C7_10
REMARK    3  A    between atoms: C7_10  and  C8_12
REMARK    4  A    between atoms: N2_18  and  C13_19
REMARK    5  A    between atoms: C13_19  and  C14_20
ROOT
HETATM    1  C8  UNL     1       6.508  -2.011   5.434  1.00  0.00     0.186 C
HETATM    2  C9  UNL     1       5.260  -2.027   4.605  1.00  0.00     0.111 C
HETATM    3  S1  UNL     1       4.048  -2.714   5.772  1.00  0.00    -0.141 SA
HETATM    4  C10 UNL     1       5.300  -3.165   7.050  1.00  0.00     0.148 C
HETATM    5  C11 UNL     1       4.709  -3.232   8.402  1.00  0.00     0.066 C
HETATM    6  C12 UNL     1       5.680  -2.716   9.419  1.00  0.00     0.275 C
HETATM    7  N2  UNL     1       5.372  -1.339   9.679  1.00  0.00     0.093 N
HETATM    8  C17 UNL     1       5.129  -0.665   8.420  1.00  0.00     0.316 C
HETATM    9  C18 UNL     1       6.235  -0.952   7.481  1.00  0.00     0.090 C
HETATM   10  N3  UNL     1       6.257  -2.175   6.809  1.00  0.00    -0.364 N
ENDROOT
BRANCH   1  11
HETATM   11  C7  UNL     1       7.448  -3.046   4.877  1.00  0.00     0.241 C
HETATM   12  N1  UNL     1       8.846  -2.901   5.033  1.00  0.00    -0.357 N
ATOM     13  H1  UNL     1       9.214  -2.086   5.524  1.00  0.00     0.162 HD
HETATM   14  O2  UNL     1       7.016  -4.054   4.265  1.00  0.00    -0.271 OA
BRANCH  12  15
HETATM   15  C6  UNL     1       9.763  -3.887   4.507  1.00  0.00     0.155 C
BRANCH  15  16
HETATM   16  C5  UNL     1      10.612  -4.428   5.633  1.00  0.00     0.143 C
HETATM   17  C2  UNL     1      10.936  -5.903   5.398  1.00  0.00     0.014 C
HETATM   18  C1  UNL     1       9.791  -6.628   4.758  1.00  0.00     0.012 C
HETATM   19  C3  UNL     1      12.117  -5.738   4.431  1.00  0.00     0.033 C
HETATM   20  C4  UNL     1      12.751  -4.488   4.967  1.00  0.00     0.168 C
HETATM   21  O1  UNL     1      11.806  -3.759   5.630  1.00  0.00    -0.384 OA
ENDBRANCH  15  16
ENDBRANCH  12  15
ENDBRANCH   1  11
BRANCH   7  22
HETATM   22  C13 UNL     1       4.273  -1.262  10.585  1.00  0.00     0.277 C
BRANCH  22  23
HETATM   23  C14 UNL     1       3.204  -0.295  10.155  1.00  0.00     0.014 A
HETATM   24  C15 UNL     1       2.300   0.333  11.149  1.00  0.00     0.007 A
HETATM   25  C16 UNL     1       1.761  -0.792  10.350  1.00  0.00     0.007 A
ENDBRANCH  22  23
ENDBRANCH   7  22
TORSDOF 5
ENDMDL