MODEL 3
REMARK VINA RESULT: -6.683105672      1.610      2.102
REMARK  6 active torsions:
REMARK  status: ('A' for Active; 'I' for Inactive)
REMARK    1  A    between atoms: O1_1  and  C1_3
REMARK    2  A    between atoms: C1_3  and  C2_4
REMARK    3  A    between atoms: C7_11  and  C8_12
REMARK    4  A    between atoms: C8_12  and  C9_13
REMARK    5  A    between atoms: N1_17  and  C13_18
REMARK    6  A    between atoms: C13_18  and  C14_19
ROOT
HETATM    1  C9  UNL     1       5.816  -2.339   6.674  1.00  0.00    -0.036 C
HETATM    2  C10 UNL     1       6.662  -2.105   7.879  1.00  0.00     0.014 C
HETATM    3  C11 UNL     1       8.120  -2.166   7.702  1.00  0.00     0.045 C
HETATM    4  C12 UNL     1       8.660  -3.329   6.896  1.00  0.00     0.063 C
HETATM    5  N1  UNL     1       8.384  -3.266   5.523  1.00  0.00    -0.369 N
HETATM    6  C18 UNL     1       7.082  -2.964   5.091  1.00  0.00     0.089 C
HETATM    7  C19 UNL     1       6.556  -1.630   5.513  1.00  0.00     0.035 C
HETATM    8  C20 UNL     1       6.042  -3.607   5.941  1.00  0.00     0.035 C
ENDROOT
BRANCH   1   9
HETATM    9  C8  UNL     1       4.397  -1.940   6.780  1.00  0.00     0.019 C
BRANCH   9  10
HETATM   10  C7  UNL     1       3.988  -0.615   6.272  1.00  0.00     0.049 C
HETATM   11  C2  UNL     1       2.861  -0.709   5.252  1.00  0.00     0.152 C
HETATM   12  O2  UNL     1       1.687  -0.739   5.967  1.00  0.00    -0.375 OA
HETATM   13  C3  UNL     1       1.907  -0.261   7.246  1.00  0.00     0.153 C
HETATM   14  C4  UNL     1       1.105   1.027   7.478  1.00  0.00     0.061 C
HETATM   15  C6  UNL     1       3.313   0.289   7.275  1.00  0.00     0.157 C
HETATM   16  C5  UNL     1       1.954   2.005   6.728  1.00  0.00     0.171 C
HETATM   17  O3  UNL     1       3.246   1.568   6.730  1.00  0.00    -0.383 OA
BRANCH  11  18
HETATM   18  C1  UNL     1       3.015  -1.876   4.334  1.00  0.00     0.196 C
BRANCH  18  19
HETATM   19  O1  UNL     1       3.775  -1.452   3.241  1.00  0.00    -0.398 OA
ATOM     20  H1  UNL     1       4.688  -1.602   3.453  1.00  0.00     0.209 HD
ENDBRANCH  18  19
ENDBRANCH  11  18
ENDBRANCH   9  10
ENDBRANCH   1   9
BRANCH   5  21
HETATM   21  C13 UNL     1       9.431  -3.264   4.588  1.00  0.00     0.070 C
BRANCH  21  22
HETATM   22  C14 UNL     1      10.814  -3.478   5.049  1.00  0.00     0.050 C
HETATM   23  C15 UNL     1      11.840  -2.501   4.501  1.00  0.00     0.038 C
HETATM   24  C16 UNL     1      13.113  -3.227   4.939  1.00  0.00     0.168 C
HETATM   25  O4  UNL     1      12.770  -4.545   5.202  1.00  0.00    -0.390 OA
HETATM   26  C17 UNL     1      11.482  -4.764   4.699  1.00  0.00     0.177 C
ENDBRANCH  21  22
ENDBRANCH   5  21
TORSDOF 6
ENDMDL