MODEL 4
REMARK VINA RESULT: -7.149407225      3.308      3.812
REMARK  5 active torsions:
REMARK  status: ('A' for Active; 'I' for Inactive)
REMARK    1  A    between atoms: C2_2  and  C3_3
REMARK       I    between atoms: C3_3  and  N1_5
REMARK       I    between atoms: N1_5  and  C4_7
REMARK    2  A    between atoms: C4_7  and  C5_9
REMARK    3  A    between atoms: C5_9  and  N2_10
REMARK    4  A    between atoms: N3_16  and  C11_17
REMARK    5  A    between atoms: C11_17  and  C12_18
ROOT
HETATM    1  N2  UNL     1       4.074  -2.533   4.688  1.00  0.00     0.100 N
HETATM    2  C6  UNL     1       4.598  -3.484   3.685  1.00  0.00     0.276 C
HETATM    3  C7  UNL     1       5.475  -4.317   4.632  1.00  0.00     0.072 C
HETATM    4  C8  UNL     1       6.268  -3.176   5.283  1.00  0.00     0.115 C
HETATM    5  C9  UNL     1       5.347  -1.996   5.201  1.00  0.00     0.312 C
HETATM    6  C10 UNL     1       7.500  -2.996   4.465  1.00  0.00     0.312 C
HETATM    7  N3  UNL     1       8.751  -3.148   5.227  1.00  0.00     0.093 N
HETATM    8  C18 UNL     1       8.613  -2.357   6.382  1.00  0.00     0.298 C
HETATM    9  C19 UNL     1       7.417  -2.766   7.234  1.00  0.00     0.199 C
HETATM   10  O3  UNL     1       6.489  -3.523   6.585  1.00  0.00    -0.375 OA
ENDROOT
BRANCH   1  11
HETATM   11  C5  UNL     1       3.478  -1.402   3.989  1.00  0.00     0.375 C
BRANCH  11  12
HETATM   12  C4  UNL     1       2.968  -0.431   4.957  1.00  0.00     0.252 C
HETATM   13  N1  UNL     1       3.087   0.976   4.809  1.00  0.00    -0.296 N
HETATM   14  C3  UNL     1       2.571   1.853   5.837  1.00  0.00     0.223 C
ATOM     15  H1  UNL     1       3.534   1.367   3.980  1.00  0.00     0.171 HD
HETATM   16  O1  UNL     1       1.993   1.368   6.836  1.00  0.00    -0.273 OA
HETATM   17  O2  UNL     1       2.381  -0.833   6.011  1.00  0.00    -0.271 OA
BRANCH  14  18
HETATM   18  C2  UNL     1       2.724   3.317   5.720  1.00  0.00     0.099 C
HETATM   19  C1  UNL     1       1.483   3.978   6.285  1.00  0.00     0.014 C
ENDBRANCH  14  18
ENDBRANCH  11  12
ENDBRANCH   1  11
BRANCH   7  20
HETATM   20  C11 UNL     1       9.143  -4.490   5.272  1.00  0.00     0.277 C
BRANCH  20  21
HETATM   21  C12 UNL     1      10.562  -4.856   5.506  1.00  0.00     0.014 C
HETATM   22  C13 UNL     1      10.867  -6.268   5.302  1.00  0.00     0.006 C
HETATM   23  C14 UNL     1      12.281  -6.499   4.737  1.00  0.00     0.000 C
HETATM   24  C15 UNL     1      13.160  -5.560   5.524  1.00  0.00     0.000 C
HETATM   25  C16 UNL     1      12.915  -4.177   4.948  1.00  0.00     0.000 C
HETATM   26  C17 UNL     1      11.459  -3.879   4.789  1.00  0.00     0.006 C
ENDBRANCH  20  21
ENDBRANCH   7  20
TORSDOF 5
ENDMDL