MODEL 5
REMARK VINA RESULT: -6.703725960      1.453      2.161
REMARK  6 active torsions:
REMARK  status: ('A' for Active; 'I' for Inactive)
REMARK    1  A    between atoms: C1_2  and  C2_3
REMARK       I    between atoms: C1_2  and  N2_18
REMARK    2  A    between atoms: C2_3  and  O2_4
REMARK    3  A    between atoms: O2_4  and  C3_5
REMARK    4  A    between atoms: C3_5  and  C4_7
REMARK       I    between atoms: N1_11  and  C8_12
REMARK    5  A    between atoms: C8_12  and  C9_14
REMARK    6  A    between atoms: N2_18  and  C13_20
ROOT
HETATM    1  C3  UNL     1       9.389  -3.500   5.489  1.00  0.00     0.265 C
HETATM    2  O3  UNL     1       9.055  -2.983   4.398  1.00  0.00    -0.265 OA
ENDROOT
BRANCH   1   3
HETATM    3  O2  UNL     1       8.754  -3.089   6.642  1.00  0.00    -0.312 OA
BRANCH   3   4
HETATM    4  C2  UNL     1       7.562  -2.342   6.703  1.00  0.00     0.281 C
BRANCH   4   5
HETATM    5  C1  UNL     1       6.750  -2.635   7.906  1.00  0.00     0.242 C
HETATM    6  O1  UNL     1       7.140  -3.385   8.849  1.00  0.00    -0.271 OA
HETATM    7  N2  UNL     1       5.441  -2.072   8.079  1.00  0.00    -0.354 N
ATOM      8  H2  UNL     1       5.081  -1.460   7.347  1.00  0.00     0.162 HD
BRANCH   7   9
HETATM    9  C13 UNL     1       4.613  -2.320   9.220  1.00  0.00     0.093 C
HETATM   10  C14 UNL     1       3.601  -3.385   9.013  1.00  0.00     0.026 C
HETATM   11  C15 UNL     1       2.237  -2.916   8.652  1.00  0.00     0.012 C
HETATM   12  C16 UNL     1       2.206  -1.847   7.602  1.00  0.00     0.074 C
HETATM   13  S1  UNL     1       3.002  -0.366   8.332  1.00  0.00    -0.167 SA
HETATM   14  C17 UNL     1       4.038  -1.008   9.701  1.00  0.00     0.099 C
ENDBRANCH   7   9
ENDBRANCH   4   5
ENDBRANCH   3   4
ENDBRANCH   1   3
BRANCH   1  15
HETATM   15  C4  UNL     1      10.437  -4.520   5.519  1.00  0.00     0.103 C
HETATM   16  C5  UNL     1      11.693  -4.024   4.796  1.00  0.00     0.018 C
HETATM   17  C6  UNL     1      12.804  -4.921   5.295  1.00  0.00     0.021 C
HETATM   18  C7  UNL     1      12.557  -6.307   4.834  1.00  0.00     0.126 C
HETATM   19  N1  UNL     1      11.170  -6.676   4.660  1.00  0.00    -0.351 N
HETATM   20  C8  UNL     1      10.894  -8.004   4.275  1.00  0.00     0.224 C
HETATM   21  C12 UNL     1      10.045  -5.788   4.848  1.00  0.00     0.140 C
HETATM   22  O4  UNL     1       9.720  -8.384   4.111  1.00  0.00    -0.273 OA
BRANCH  20  23
HETATM   23  C9  UNL     1      11.997  -8.959   4.065  1.00  0.00     0.078 A
HETATM   24  C10 UNL     1      12.262  -9.420   2.648  1.00  0.00     0.015 A
HETATM   25  C11 UNL     1      11.686 -10.355   3.628  1.00  0.00     0.015 A
ENDBRANCH  20  23
ENDBRANCH   1  15
TORSDOF 6
ENDMDL