MODEL 1
REMARK VINA RESULT: -7.106795582      0.000      0.000
REMARK  5 active torsions:
REMARK  status: ('A' for Active; 'I' for Inactive)
REMARK    1  A    between atoms: C1_2  and  C2_3
REMARK       I    between atoms: C1_2  and  N1_8
REMARK    2  A    between atoms: C8_11  and  C9_12
REMARK    3  A    between atoms: C9_12  and  O3_13
REMARK    4  A    between atoms: O3_13  and  C10_14
REMARK    5  A    between atoms: C13_17  and  N2_18
ROOT
HETATM    1  O1  UNL     1       4.068  -1.753   7.702  1.00  0.00    -0.270 OA
HETATM    2  C1  UNL     1       5.088  -2.323   8.252  1.00  0.00     0.250 C
HETATM    3  N1  UNL     1       6.356  -2.241   7.637  1.00  0.00    -0.326 N
HETATM    4  C6  UNL     1       7.575  -2.858   8.162  1.00  0.00     0.130 C
HETATM    5  C7  UNL     1       8.685  -2.659   7.093  1.00  0.00     0.055 C
HETATM    6  C8  UNL     1       8.055  -3.136   5.829  1.00  0.00     0.213 C
HETATM    7  N3  UNL     1       7.120  -2.186   5.329  1.00  0.00    -0.053 N
ATOM      8  H31 UNL     1       6.444  -2.626   4.705  1.00  0.00     0.279 HD
ATOM      9  H32 UNL     1       7.559  -1.547   4.668  1.00  0.00     0.279 HD
HETATM   10  C19 UNL     1       6.463  -1.471   6.383  1.00  0.00     0.360 C
ENDROOT
BRANCH   6  11
HETATM   11  C9  UNL     1       9.043  -3.613   4.803  1.00  0.00     0.201 C
BRANCH  11  12
HETATM   12  O3  UNL     1      10.368  -3.363   5.154  1.00  0.00    -0.384 OA
BRANCH  12  13
HETATM   13  C10 UNL     1      10.962  -4.586   5.366  1.00  0.00     0.123 C
HETATM   14  C11 UNL     1      12.372  -4.660   4.824  1.00  0.00     0.034 C
HETATM   15  C12 UNL     1      12.636  -6.167   4.959  1.00  0.00     0.038 C
HETATM   16  C13 UNL     1      11.315  -6.834   4.841  1.00  0.00     0.225 C
HETATM   17  C18 UNL     1      10.296  -5.732   4.654  1.00  0.00     0.067 C
BRANCH  16  18
HETATM   18  N2  UNL     1      11.228  -7.864   3.870  1.00  0.00     0.093 N
HETATM   19  C14 UNL     1      12.373  -8.698   3.733  1.00  0.00     0.273 C
HETATM   20  C15 UNL     1      11.958 -10.104   4.118  1.00  0.00     0.032 C
HETATM   21  C16 UNL     1      10.507 -10.046   4.467  1.00  0.00     0.032 C
HETATM   22  C17 UNL     1      10.066  -8.671   4.072  1.00  0.00     0.273 C
ENDBRANCH  16  18
ENDBRANCH  12  13
ENDBRANCH  11  12
ENDBRANCH   6  11
BRANCH   2  23
HETATM   23  C2  UNL     1       4.822  -3.026   9.509  1.00  0.00     0.213 C
HETATM   24  C3  UNL     1       4.701  -2.030  10.647  1.00  0.00     0.043 C
HETATM   25  C4  UNL     1       3.886  -2.807  11.658  1.00  0.00     0.029 C
HETATM   26  C5  UNL     1       3.453  -4.022  10.878  1.00  0.00     0.168 C
HETATM   27  O2  UNL     1       3.612  -3.695   9.522  1.00  0.00    -0.376 OA
ENDBRANCH   2  23
TORSDOF 5
ENDMDL