MODEL 5
REMARK VINA RESULT: -4.844081779      6.423      8.640
REMARK  5 active torsions:
REMARK  status: ('A' for Active; 'I' for Inactive)
REMARK    1  A    between atoms: S1_2  and  C2_3
REMARK    2  A    between atoms: C2_3  and  C3_4
REMARK    3  A    between atoms: C3_4  and  C4_5
REMARK    4  A    between atoms: C4_5  and  N1_6
REMARK    5  A    between atoms: C4_5  and  C10_16
REMARK       I    between atoms: N1_6  and  C5_8
REMARK       I    between atoms: C5_8  and  N2_10
REMARK       I    between atoms: C10_16  and  N3_18
ROOT
HETATM    1  C4  UNL     1      11.877  -9.508   3.091  1.00  0.00     0.179 C
ENDROOT
BRANCH   1   2
HETATM    2  C3  UNL     1      13.196  -9.910   2.496  1.00  0.00     0.045 C
BRANCH   2   3
HETATM    3  C2  UNL     1      13.272 -11.059   1.590  1.00  0.00     0.076 C
BRANCH   3   4
HETATM    4  S1  UNL     1      14.386 -12.351   2.177  1.00  0.00    -0.173 SA
HETATM    5  C1  UNL     1      15.017 -12.039   3.824  1.00  0.00     0.089 C
ENDBRANCH   3   4
ENDBRANCH   2   3
ENDBRANCH   1   2
BRANCH   1   6
HETATM    6  N1  UNL     1      12.203  -8.307   3.911  1.00  0.00    -0.330 N
HETATM    7  C5  UNL     1      11.223  -7.412   4.367  1.00  0.00     0.319 C
HETATM    8  O1  UNL     1      10.018  -7.710   4.022  1.00  0.00    -0.247 OA
HETATM    9  N2  UNL     1      11.464  -6.258   5.144  1.00  0.00    -0.330 N
HETATM   10  C6  UNL     1      12.788  -5.883   5.550  1.00  0.00     0.153 C
HETATM   11  C9  UNL     1      10.352  -5.423   5.548  1.00  0.00     0.153 C
HETATM   12  C7  UNL     1      12.994  -4.433   5.094  1.00  0.00     0.187 C
HETATM   13  O2  UNL     1      11.891  -3.950   4.406  1.00  0.00    -0.388 OA
HETATM   14  C8  UNL     1      10.743  -3.992   5.205  1.00  0.00     0.187 C
ATOM     15  H1  UNL     1      13.179  -8.128   4.150  1.00  0.00     0.165 HD
ENDBRANCH   1   6
BRANCH   1  16
HETATM   16  C10 UNL     1      11.315 -10.553   3.954  1.00  0.00     0.242 C
HETATM   17  O3  UNL     1      11.889 -10.898   5.046  1.00  0.00    -0.271 OA
HETATM   18  N3  UNL     1      10.087 -11.267   3.670  1.00  0.00    -0.349 N
HETATM   19  C11 UNL     1       9.643 -12.265   4.578  1.00  0.00     0.136 C
HETATM   20  C14 UNL     1       9.401 -10.844   2.483  1.00  0.00     0.136 C
HETATM   21  C12 UNL     1       9.181 -13.486   3.830  1.00  0.00     0.093 C
HETATM   22  S2  UNL     1       7.676 -12.964   2.919  1.00  0.00    -0.166 SA
HETATM   23  C13 UNL     1       8.042 -11.344   2.243  1.00  0.00     0.093 C
ENDBRANCH   1  16
TORSDOF 5
ENDMDL