MODEL 4
REMARK VINA RESULT: -6.362729686      0.916      1.312
REMARK  5 active torsions:
REMARK  status: ('A' for Active; 'I' for Inactive)
REMARK    1  A    between atoms: C1_2  and  C2_4
REMARK    2  A    between atoms: C2_4  and  C3_5
REMARK    3  A    between atoms: C4_6  and  C5_7
REMARK    4  A    between atoms: C5_7  and  N1_8
REMARK    5  A    between atoms: C14_18  and  N2_19
ROOT
HETATM    1  C3  UNL     1       6.365  -3.038   5.563  1.00  0.00     0.010 C
HETATM    2  C4  UNL     1       7.762  -3.301   6.127  1.00  0.00     0.029 C
HETATM    3  C10 UNL     1       8.160  -2.514   7.291  1.00  0.00     0.015 C
HETATM    4  C11 UNL     1       6.989  -2.086   8.211  1.00  0.00    -0.012 C
HETATM    5  C12 UNL     1       5.889  -3.072   7.949  1.00  0.00     0.012 C
HETATM    6  C13 UNL     1       5.375  -2.595   6.607  1.00  0.00     0.014 C
HETATM    7  C14 UNL     1       5.401  -1.105   6.737  1.00  0.00     0.084 C
HETATM    8  C19 UNL     1       6.492  -0.747   7.681  1.00  0.00     0.030 C
ENDROOT
BRANCH   2   9
HETATM    9  C5  UNL     1       8.707  -3.103   4.969  1.00  0.00     0.063 C
BRANCH   9  10
HETATM   10  N1  UNL     1       9.733  -4.020   4.886  1.00  0.00    -0.389 N
HETATM   11  C6  UNL     1       9.597  -5.387   4.702  1.00  0.00     0.148 C
HETATM   12  C7  UNL     1      10.849  -6.049   5.356  1.00  0.00     0.187 C
HETATM   13  O3  UNL     1      11.966  -5.634   4.679  1.00  0.00    -0.388 OA
HETATM   14  C8  UNL     1      12.074  -4.273   4.535  1.00  0.00     0.187 C
HETATM   15  C9  UNL     1      11.012  -3.611   5.411  1.00  0.00     0.148 C
ENDBRANCH   9  10
ENDBRANCH   2   9
BRANCH   1  16
HETATM   16  C2  UNL     1       5.896  -4.376   5.036  1.00  0.00     0.119 C
BRANCH  16  17
HETATM   17  C1  UNL     1       5.590  -4.446   3.608  1.00  0.00     0.172 C
HETATM   18  O1  UNL     1       6.308  -5.043   2.798  1.00  0.00    -0.648 OA
HETATM   19  O2  UNL     1       4.446  -3.827   3.060  1.00  0.00    -0.648 OA
ENDBRANCH  16  17
ENDBRANCH   1  16
BRANCH   7  20
HETATM   20  N2  UNL     1       4.169  -0.454   7.000  1.00  0.00    -0.404 N
HETATM   21  C15 UNL     1       3.166  -0.532   6.009  1.00  0.00     0.143 C
HETATM   22  C16 UNL     1       2.309   0.696   6.010  1.00  0.00     0.187 C
HETATM   23  O4  UNL     1       2.193   1.226   7.286  1.00  0.00    -0.388 OA
HETATM   24  C17 UNL     1       2.312   0.275   8.276  1.00  0.00     0.187 C
HETATM   25  C18 UNL     1       3.732  -0.312   8.329  1.00  0.00     0.143 C
ENDBRANCH   7  20
TORSDOF 5
ENDMDL