MODEL 5
REMARK VINA RESULT: -7.389719019      1.275      1.702
REMARK  3 active torsions:
REMARK  status: ('A' for Active; 'I' for Inactive)
REMARK    1  A    between atoms: O1_2  and  C2_3
REMARK    2  A    between atoms: C5_6  and  C6_7
REMARK    3  A    between atoms: C9_11  and  N1_12
ROOT
HETATM    1  C6  UNL     1      -4.363  -5.413  41.372  1.00  0.00     0.050 C
HETATM    2  C7  UNL     1      -4.040  -6.629  41.924  1.00  0.00     0.089 C
HETATM    3  C8  UNL     1      -4.181  -7.899  41.350  1.00  0.00     0.217 C
HETATM    4  O2  UNL     1      -4.192  -8.874  42.155  1.00  0.00    -0.284 OA
HETATM    5  C9  UNL     1      -4.307  -8.160  39.996  1.00  0.00     0.154 C
HETATM    6  N2  UNL     1      -4.541  -7.281  39.019  1.00  0.00    -0.292 N
ATOM      7  H2  UNL     1      -4.778  -7.712  38.125  1.00  0.00     0.172 HD
HETATM    8  C10 UNL     1      -4.526  -5.917  38.985  1.00  0.00     0.326 C
HETATM    9  O3  UNL     1      -4.762  -5.333  37.906  1.00  0.00    -0.247 OA
HETATM   10  N3  UNL     1      -4.269  -5.099  40.053  1.00  0.00    -0.308 N
ATOM     11  H3  UNL     1      -3.975  -4.147  39.835  1.00  0.00     0.170 HD
ENDROOT
BRANCH   1  12
HETATM   12  C5  UNL     1      -4.856  -4.379  42.266  1.00  0.00    -0.009 A
HETATM   13  C4  UNL     1      -4.664  -3.044  42.069  1.00  0.00     0.016 A
HETATM   14  C3  UNL     1      -5.135  -2.074  42.927  1.00  0.00     0.037 A
HETATM   15  C2  UNL     1      -5.837  -2.444  44.043  1.00  0.00     0.068 A
HETATM   16  C12 UNL     1      -6.058  -3.775  44.287  1.00  0.00     0.037 A
HETATM   17  C11 UNL     1      -5.572  -4.712  43.409  1.00  0.00     0.016 A
BRANCH  15  18
HETATM   18  O1  UNL     1      -6.333  -1.504  44.938  1.00  0.00    -0.356 OA
HETATM   19  C1  UNL     1      -7.190  -0.477  44.521  1.00  0.00     0.210 C
ENDBRANCH  15  18
ENDBRANCH   1  12
BRANCH   5  20
HETATM   20  N1  UNL     1      -4.180  -9.399  39.669  1.00  0.00    -0.382 N
ATOM     21  H12 UNL     1      -3.258  -9.824  39.768  1.00  0.00     0.157 HD
ATOM     22  H11 UNL     1      -5.034  -9.844  39.334  1.00  0.00     0.157 HD
ENDBRANCH   5  20
TORSDOF 3
ENDMDL