MODEL 2
REMARK VINA RESULT: -7.107697462      1.711      2.330
REMARK  2 active torsions:
REMARK  status: ('A' for Active; 'I' for Inactive)
REMARK    1  A    between atoms: C4_8  and  S1_9
REMARK    2  A    between atoms: S1_9  and  C5_11
ROOT
HETATM    1  N1  UNL     1      -3.738 -11.007  36.170  1.00  0.00    -0.083 NA
HETATM    2  C1  UNL     1      -2.980  -9.926  36.689  1.00  0.00     0.123 A
HETATM    3  C2  UNL     1      -1.607  -9.918  36.610  1.00  0.00     0.119 A
HETATM    4  C3  UNL     1      -0.931  -8.813  37.114  1.00  0.00     0.250 A
HETATM    5  O1  UNL     1       0.356  -8.796  37.028  1.00  0.00    -0.268 OA
HETATM    6  N2  UNL     1      -1.618  -7.795  37.658  1.00  0.00    -0.302 N
ATOM      7  H2  UNL     1      -1.103  -6.992  38.020  1.00  0.00     0.171 HD
HETATM    8  C4  UNL     1      -2.939  -7.797  37.741  1.00  0.00     0.185 A
HETATM    9  N4  UNL     1      -3.585  -8.869  37.248  1.00  0.00    -0.323 N
ATOM     10  H4  UNL     1      -4.603  -8.878  37.303  1.00  0.00     0.169 HD
ENDROOT
BRANCH   8  11
HETATM   11  S1  UNL     1      -3.855  -6.545  38.425  1.00  0.00     0.136 S
HETATM   12  O2  UNL     1      -5.340  -6.392  37.627  1.00  0.00    -0.243 OA
BRANCH  11  13
HETATM   13  C5  UNL     1      -4.174  -6.600  40.131  1.00  0.00     0.108 A
HETATM   14  C6  UNL     1      -3.558  -7.621  40.777  1.00  0.00     0.040 A
HETATM   15  C7  UNL     1      -3.695  -7.831  42.192  1.00  0.00     0.004 A
HETATM   16  C8  UNL     1      -4.444  -7.008  42.882  1.00  0.00     0.017 A
HETATM   17  C9  UNL     1      -5.102  -5.912  42.164  1.00  0.00     0.089 A
HETATM   18  N3  UNL     1      -4.947  -5.765  40.899  1.00  0.00    -0.358 N
ATOM     19  H3  UNL     1      -5.422  -4.988  40.441  1.00  0.00     0.166 HD
ENDBRANCH  11  13
ENDBRANCH   8  11
TORSDOF 2
ENDMDL