MODEL 3
REMARK VINA RESULT: -5.432222932      0.792      1.024
REMARK  6 active torsions:
REMARK  status: ('A' for Active; 'I' for Inactive)
REMARK    1  A    between atoms: N1_2  and  C3_4
REMARK    2  A    between atoms: C3_4  and  C4_5
REMARK    3  A    between atoms: C4_5  and  N2_6
REMARK    4  A    between atoms: N2_6  and  C5_8
REMARK    5  A    between atoms: C6_11  and  C7_12
REMARK    6  A    between atoms: C11_18  and  N5_19
ROOT
HETATM    1  C5  UNL     1      -5.601  -3.185  43.659  1.00  0.00     0.694 A
HETATM    2  N3  UNL     1      -5.028  -4.053  42.826  1.00  0.00    -0.179 N
ATOM      3  H3  UNL     1      -4.605  -3.683  41.974  1.00  0.00     0.185 HD
HETATM    4  C6  UNL     1      -4.968  -5.364  43.024  1.00  0.00     0.121 A
HETATM    5  N4  UNL     1      -5.524  -5.868  44.166  1.00  0.00    -0.179 N
ATOM      6  H4  UNL     1      -5.489  -6.872  44.350  1.00  0.00     0.185 HD
HETATM    7  C11 UNL     1      -6.121  -5.038  45.057  1.00  0.00     0.691 A
HETATM    8  N6  UNL     1      -6.144  -3.741  44.792  1.00  0.00    -0.023 N
ATOM      9  H6  UNL     1      -6.591  -3.120  45.467  1.00  0.00     0.203 HD
ENDROOT
BRANCH   1  10
HETATM   10  N2  UNL     1      -5.670  -1.912  43.521  1.00  0.00    -0.221 N
ATOM     11  H2  UNL     1      -4.879  -1.429  43.094  1.00  0.00     0.178 HD
BRANCH  10  12
HETATM   12  C4  UNL     1      -6.786  -1.142  43.928  1.00  0.00     0.182 C
BRANCH  12  13
HETATM   13  C3  UNL     1      -6.443   0.105  44.709  1.00  0.00     0.077 C
BRANCH  13  14
HETATM   14  N1  UNL     1      -7.525   0.823  45.256  1.00  0.00    -0.400 N
HETATM   15  C1  UNL     1      -7.747   2.110  44.674  1.00  0.00     0.148 C
HETATM   16  C2  UNL     1      -8.725   0.162  45.603  1.00  0.00     0.148 C
ENDBRANCH  13  14
ENDBRANCH  12  13
ENDBRANCH  10  12
ENDBRANCH   1  10
BRANCH   4  17
HETATM   17  C7  UNL     1      -4.335  -6.312  42.093  1.00  0.00     0.009 C
HETATM   18  C8  UNL     1      -5.212  -6.462  40.858  1.00  0.00     0.022 C
HETATM   19  C9  UNL     1      -3.004  -5.724  41.677  1.00  0.00     0.022 C
HETATM   20  C10 UNL     1      -4.106  -7.684  42.686  1.00  0.00     0.022 C
ENDBRANCH   4  17
BRANCH   7  21
HETATM   21  N5  UNL     1      -6.657  -5.533  46.137  1.00  0.00    -0.234 N
ATOM     22  H52 UNL     1      -7.648  -5.769  46.189  1.00  0.00     0.174 HD
ATOM     23  H51 UNL     1      -6.075  -5.696  46.958  1.00  0.00     0.174 HD
ENDBRANCH   7  21
TORSDOF 6
ENDMDL