MODEL 5
REMARK VINA RESULT: -6.050179124      3.024      5.129
REMARK  4 active torsions:
REMARK  status: ('A' for Active; 'I' for Inactive)
REMARK    1  A    between atoms: N1_2  and  C2_4
REMARK    2  A    between atoms: C7_11  and  C8_12
REMARK    3  A    between atoms: C8_12  and  O1_13
REMARK    4  A    between atoms: C8_12  and  O2_15
ROOT
HETATM    1  C2  UNL     1      -3.716  -9.302  39.358  1.00  0.00     0.143 A
HETATM    2  N2  UNL     1      -3.962  -9.223  40.689  1.00  0.00    -0.338 N
ATOM      3  H2  UNL     1      -3.997 -10.083  41.237  1.00  0.00     0.167 HD
HETATM    4  C3  UNL     1      -4.160  -8.053  41.307  1.00  0.00     0.061 A
HETATM    5  C4  UNL     1      -4.381  -8.043  42.670  1.00  0.00     0.032 A
HETATM    6  C5  UNL     1      -4.565  -6.875  43.338  1.00  0.00     0.003 A
HETATM    7  C6  UNL     1      -4.528  -5.723  42.623  1.00  0.00     0.014 A
HETATM    8  C7  UNL     1      -4.308  -5.645  41.219  1.00  0.00     0.025 A
HETATM    9  C10 UNL     1      -4.120  -6.838  40.577  1.00  0.00     0.073 A
HETATM   10  N3  UNL     1      -3.874  -6.873  39.260  1.00  0.00    -0.334 N
HETATM   11  C11 UNL     1      -3.733  -5.701  38.484  1.00  0.00     0.158 C
HETATM   12  C12 UNL     1      -3.680  -8.115  38.684  1.00  0.00     0.163 A
HETATM   13  N4  UNL     1      -3.436  -8.107  37.280  1.00  0.00    -0.078 NA
ENDROOT
BRANCH   8  14
HETATM   14  C8  UNL     1      -4.395  -4.364  40.560  1.00  0.00     0.293 C
BRANCH  14  15
HETATM   15  O1  UNL     1      -3.377  -3.448  40.921  1.00  0.00    -0.367 OA
ATOM     16  H1  UNL     1      -2.525  -3.842  41.066  1.00  0.00     0.213 HD
ENDBRANCH  14  15
BRANCH  14  17
HETATM   17  O2  UNL     1      -5.353  -3.733  41.514  1.00  0.00    -0.362 OA
HETATM   18  C9  UNL     1      -4.825  -2.634  42.107  1.00  0.00     0.205 C
ENDBRANCH  14  17
ENDBRANCH   8  14
BRANCH   1  19
HETATM   19  N1  UNL     1      -3.532 -10.411  38.785  1.00  0.00    -0.378 N
HETATM   20  C1  UNL     1      -3.947 -11.723  39.055  1.00  0.00     0.147 C
ATOM     21  H1  UNL     1      -2.958 -10.338  37.945  1.00  0.00     0.160 HD
ENDBRANCH   1  19
TORSDOF 4
ENDMDL