MODEL 1
REMARK VINA RESULT: -6.619972748      0.000      0.000
REMARK  4 active torsions:
REMARK  status: ('A' for Active; 'I' for Inactive)
REMARK    1  A    between atoms: N1_1  and  S1_4
REMARK    2  A    between atoms: S1_4  and  C1_7
REMARK    3  A    between atoms: C4_10  and  N2_11
REMARK    4  A    between atoms: N2_11  and  C5_13
ROOT
HETATM    1  C1  UNL     1      -3.788  -5.105  40.318  1.00  0.00     0.079 A
HETATM    2  C2  UNL     1      -3.349  -5.801  41.423  1.00  0.00     0.027 A
HETATM    3  C3  UNL     1      -2.831  -7.078  41.308  1.00  0.00     0.031 A
HETATM    4  C4  UNL     1      -2.752  -7.665  40.060  1.00  0.00     0.049 A
HETATM    5  C7  UNL     1      -3.196  -6.951  38.968  1.00  0.00     0.031 A
HETATM    6  C8  UNL     1      -3.709  -5.690  39.070  1.00  0.00     0.027 A
ENDROOT
BRANCH   4   7
HETATM    7  N2  UNL     1      -2.217  -8.989  39.921  1.00  0.00    -0.190 N
ATOM      8  H2  UNL     1      -1.215  -9.169  39.990  1.00  0.00     0.184 HD
BRANCH   7   9
HETATM    9  C5  UNL     1      -3.070  -9.952  39.701  1.00  0.00     0.698 A
HETATM   10  N3  UNL     1      -2.852 -11.182  39.226  1.00  0.00    -0.185 N
HETATM   11  C6  UNL     1      -4.020 -11.843  39.162  1.00  0.00     0.215 A
ATOM     12  H3  UNL     1      -1.943 -11.559  38.954  1.00  0.00     0.185 HD
HETATM   13  N4  UNL     1      -4.970 -11.005  39.605  1.00  0.00    -0.281 N
HETATM   14  N5  UNL     1      -4.377  -9.870  39.926  1.00  0.00    -0.131 N
ATOM     15  H4  UNL     1      -5.966 -11.209  39.681  1.00  0.00     0.188 HD
ATOM     16  H5  UNL     1      -4.855  -9.046  40.293  1.00  0.00     0.205 HD
ENDBRANCH   7   9
ENDBRANCH   4   7
BRANCH   1  17
HETATM   17  S1  UNL     1      -4.447  -3.476  40.480  1.00  0.00     0.256 S
HETATM   18  O1  UNL     1      -5.617  -3.286  39.532  1.00  0.00    -0.201 OA
HETATM   19  O2  UNL     1      -3.354  -2.494  40.158  1.00  0.00    -0.201 OA
BRANCH  17  20
HETATM   20  N1  UNL     1      -4.952  -3.255  42.128  1.00  0.00    -0.324 N
ATOM     21  H12 UNL     1      -5.080  -4.020  42.791  1.00  0.00     0.169 HD
ATOM     22  H11 UNL     1      -5.099  -2.266  42.329  1.00  0.00     0.169 HD
ENDBRANCH  17  20
ENDBRANCH   1  17
TORSDOF 4
ENDMDL