MODEL 1
REMARK VINA RESULT: -7.116216260      0.000      0.000
REMARK  3 active torsions:
REMARK  status: ('A' for Active; 'I' for Inactive)
REMARK    1  A    between atoms: C3_3  and  C4_4
REMARK    2  A    between atoms: C4_4  and  C5_5
REMARK    3  A    between atoms: C7_9  and  N2_10
REMARK       I    between atoms: N2_10  and  C8_12
REMARK       I    between atoms: C8_12  and  N3_13
REMARK       I    between atoms: C8_12  and  N4_17
ROOT
HETATM    1  C5  UNL     1      -3.955  -7.150  41.194  1.00  0.00     0.024 A
HETATM    2  C6  UNL     1      -4.404  -8.442  41.046  1.00  0.00     0.109 A
HETATM    3  N1  UNL     1      -4.341  -8.983  39.852  1.00  0.00    -0.345 N
ATOM      4  H1  UNL     1      -4.662  -9.938  39.690  1.00  0.00     0.167 HD
HETATM    5  C7  UNL     1      -3.846  -8.247  38.855  1.00  0.00     0.147 A
HETATM    6  S1  UNL     1      -3.462  -6.770  39.603  1.00  0.00    -0.053 SA
ENDROOT
BRANCH   5   7
HETATM    7  N2  UNL     1      -3.705  -8.616  37.594  1.00  0.00    -0.321 N
HETATM    8  C8  UNL     1      -2.928  -9.798  37.274  1.00  0.00     0.482 C
HETATM    9  N3  UNL     1      -1.729  -9.511  36.549  1.00  0.00    -0.033 N
HETATM   10  N4  UNL     1      -3.782 -10.665  36.481  1.00  0.00    -0.033 N
ATOM     11  H33 UNL     1      -1.936  -8.976  35.706  1.00  0.00     0.278 HD
ATOM     12  H32 UNL     1      -1.160  -8.827  37.048  1.00  0.00     0.278 HD
ATOM     13  H31 UNL     1      -1.182 -10.342  36.325  1.00  0.00     0.278 HD
ATOM     14  H43 UNL     1      -4.669 -10.879  36.937  1.00  0.00     0.278 HD
ATOM     15  H42 UNL     1      -4.166 -10.204  35.657  1.00  0.00     0.278 HD
ATOM     16  H41 UNL     1      -3.235 -11.497  36.257  1.00  0.00     0.278 HD
ATOM     17  H2  UNL     1      -4.140  -8.072  36.849  1.00  0.00     0.165 HD
ENDBRANCH   5   7
BRANCH   1  18
HETATM   18  C4  UNL     1      -3.894  -6.353  42.420  1.00  0.00     0.034 C
BRANCH  18  19
HETATM   19  C3  UNL     1      -4.346  -5.180  42.620  1.00  0.00    -0.007 A
HETATM   20  C2  UNL     1      -5.265  -4.663  43.494  1.00  0.00     0.034 A
HETATM   21  C1  UNL     1      -5.973  -5.271  44.419  1.00  0.00     0.044 C
HETATM   22  N5  UNL     1      -5.365  -3.314  43.267  1.00  0.00    -0.361 N
HETATM   23  C10 UNL     1      -4.541  -2.946  42.274  1.00  0.00     0.091 A
HETATM   24  C11 UNL     1      -6.233  -2.406  43.987  1.00  0.00     0.155 C
HETATM   25  C9  UNL     1      -3.904  -4.077  41.862  1.00  0.00     0.031 A
ENDBRANCH  18  19
ENDBRANCH   1  18
TORSDOF 3
ENDMDL