MODEL 4
REMARK VINA RESULT: -6.421638706      2.340      3.051
REMARK  2 active torsions:
REMARK  status: ('A' for Active; 'I' for Inactive)
REMARK    1  A    between atoms: C2_2  and  N1_4
REMARK    2  A    between atoms: C5_8  and  C6_9
ROOT
HETATM    1  N1  UNL     1      -1.788  -9.911  37.008  1.00  0.00    -0.238 N
HETATM    2  N2  UNL     1      -2.692  -9.978  38.055  1.00  0.00    -0.289 N
ATOM      3  H2  UNL     1      -3.201 -10.849  38.208  1.00  0.00     0.187 HD
HETATM    4  C4  UNL     1      -2.946  -8.854  38.946  1.00  0.00     0.118 A
HETATM    5  C5  UNL     1      -3.775  -9.025  39.911  1.00  0.00     0.066 C
HETATM    6  C10 UNL     1      -2.205  -7.627  38.701  1.00  0.00     0.277 A
HETATM    7  O1  UNL     1      -2.335  -6.588  39.408  1.00  0.00    -0.266 OA
HETATM    8  N4  UNL     1      -1.278  -7.610  37.600  1.00  0.00    -0.272 N
ATOM      9  H4  UNL     1      -0.757  -6.751  37.424  1.00  0.00     0.174 HD
HETATM   10  C11 UNL     1      -1.048  -8.711  36.748  1.00  0.00     0.344 A
HETATM   11  O2  UNL     1      -0.246  -8.718  35.783  1.00  0.00    -0.245 OA
ENDROOT
BRANCH   5  12
HETATM   12  C6  UNL     1      -4.203  -8.079  40.919  1.00  0.00     0.034 A
HETATM   13  C7  UNL     1      -3.778  -7.931  42.220  1.00  0.00     0.031 A
HETATM   14  C8  UNL     1      -4.479  -6.907  42.795  1.00  0.00     0.019 A
HETATM   15  C9  UNL     1      -5.338  -6.414  41.863  1.00  0.00     0.088 A
HETATM   16  N3  UNL     1      -5.167  -7.117  40.750  1.00  0.00    -0.366 N
ATOM     17  H3  UNL     1      -5.683  -6.963  39.884  1.00  0.00     0.165 HD
ENDBRANCH   5  12
BRANCH   1  18
HETATM   18  C2  UNL     1      -1.586 -11.086  36.153  1.00  0.00     0.105 C
HETATM   19  C1  UNL     1      -1.610 -12.358  36.968  1.00  0.00     0.034 C
HETATM   20  C3  UNL     1      -2.693 -11.117  35.127  1.00  0.00     0.034 C
ENDBRANCH   1  18
TORSDOF 2
ENDMDL