MODEL 2
REMARK VINA RESULT: -7.533733147      5.020      7.859
REMARK  5 active torsions:
REMARK  status: ('A' for Active; 'I' for Inactive)
REMARK    1  A    between atoms: C5_8  and  C6_9
REMARK    2  A    between atoms: C6_9  and  C7_10
REMARK    3  A    between atoms: C11_14  and  C12_15
REMARK    4  A    between atoms: C12_15  and  O1_16
REMARK    5  A    between atoms: C12_15  and  O2_18
ROOT
HETATM    1  C1  UNL     1      -9.042   1.089  43.800  1.00  0.00     0.063 C
HETATM    2  C2  UNL     1      -8.414   0.108  44.421  1.00  0.00     0.097 A
HETATM    3  N1  UNL     1      -8.837  -0.614  45.485  1.00  0.00    -0.333 N
ATOM      4  H1  UNL     1      -9.733  -0.479  45.954  1.00  0.00     0.168 HD
HETATM    5  C3  UNL     1      -7.924  -1.532  45.843  1.00  0.00     0.142 A
HETATM    6  C4  UNL     1      -8.067  -2.459  46.934  1.00  0.00     0.120 C
HETATM    7  N2  UNL     1      -8.162  -3.210  47.805  1.00  0.00    -0.190 NA
HETATM    8  C5  UNL     1      -6.872  -1.390  44.968  1.00  0.00     0.072 A
HETATM    9  N3  UNL     1      -7.188  -0.404  44.128  1.00  0.00    -0.341 N
ATOM     10  H3  UNL     1      -6.591  -0.078  43.368  1.00  0.00     0.167 HD
ENDROOT
BRANCH   8  11
HETATM   11  C6  UNL     1      -5.752  -2.088  44.947  1.00  0.00     0.044 C
BRANCH  11  12
HETATM   12  C7  UNL     1      -5.481  -3.132  43.971  1.00  0.00    -0.033 A
HETATM   13  C8  UNL     1      -5.699  -4.447  44.328  1.00  0.00     0.011 A
HETATM   14  C9  UNL     1      -5.467  -5.499  43.464  1.00  0.00     0.002 A
HETATM   15  C10 UNL     1      -4.999  -5.226  42.190  1.00  0.00     0.012 A
HETATM   16  C11 UNL     1      -4.767  -3.917  41.795  1.00  0.00    -0.003 A
HETATM   17  C13 UNL     1      -5.013  -2.886  42.697  1.00  0.00     0.023 A
BRANCH  16  18
HETATM   18  C12 UNL     1      -4.267  -3.673  40.429  1.00  0.00     0.288 C
BRANCH  18  19
HETATM   19  O1  UNL     1      -3.559  -2.462  40.438  1.00  0.00    -0.367 OA
ATOM     20  H1  UNL     1      -2.792  -2.575  40.988  1.00  0.00     0.213 HD
ENDBRANCH  18  19
BRANCH  18  21
HETATM   21  O2  UNL     1      -5.275  -3.554  39.489  1.00  0.00    -0.367 OA
ATOM     22  H2  UNL     1      -5.937  -2.915  39.725  1.00  0.00     0.213 HD
ENDBRANCH  18  21
ENDBRANCH  16  18
ENDBRANCH  11  12
ENDBRANCH   8  11
TORSDOF 5
ENDMDL