MODEL 4
REMARK VINA RESULT: -6.514573821      1.591      2.032
REMARK  2 active torsions:
REMARK  status: ('A' for Active; 'I' for Inactive)
REMARK    1  A    between atoms: N1_2  and  C3_4
REMARK    2  A    between atoms: N2_5  and  C4_7
ROOT
HETATM    1  C4  UNL     1      -3.842  -8.312  39.587  1.00  0.00     0.035 A
HETATM    2  C5  UNL     1      -4.388  -8.838  40.739  1.00  0.00     0.032 A
HETATM    3  C6  UNL     1      -4.764  -7.953  41.727  1.00  0.00     0.034 A
HETATM    4  C7  UNL     1      -4.603  -6.598  41.571  1.00  0.00     0.062 A
HETATM    5  N3  UNL     1      -4.988  -5.768  42.569  1.00  0.00    -0.317 N
ATOM      6  H3  UNL     1      -5.391  -6.159  43.420  1.00  0.00     0.169 HD
HETATM    7  C8  UNL     1      -4.847  -4.436  42.456  1.00  0.00     0.314 A
HETATM    8  O1  UNL     1      -5.213  -3.659  43.402  1.00  0.00    -0.262 OA
HETATM    9  C9  UNL     1      -4.299  -3.945  41.294  1.00  0.00     0.314 A
HETATM   10  O2  UNL     1      -4.172  -2.697  41.200  1.00  0.00    -0.262 OA
HETATM   11  N4  UNL     1      -3.906  -4.740  40.283  1.00  0.00    -0.317 N
ATOM     12  H4  UNL     1      -3.503  -4.343  39.435  1.00  0.00     0.169 HD
HETATM   13  C10 UNL     1      -4.055  -6.074  40.414  1.00  0.00     0.064 A
HETATM   14  C11 UNL     1      -3.678  -6.951  39.426  1.00  0.00     0.061 A
ENDROOT
BRANCH   1  15
HETATM   15  N2  UNL     1      -3.437  -9.179  38.538  1.00  0.00    -0.352 N
HETATM   16  C3  UNL     1      -2.653  -8.801  37.585  1.00  0.00     0.178 C
ATOM     17  H2  UNL     1      -3.780 -10.140  38.537  1.00  0.00     0.166 HD
BRANCH  16  18
HETATM   18  N1  UNL     1      -2.299  -9.730  36.580  1.00  0.00    -0.386 N
HETATM   19  C1  UNL     1      -0.956  -9.724  36.063  1.00  0.00     0.149 C
HETATM   20  C2  UNL     1      -3.286 -10.660  36.096  1.00  0.00     0.149 C
ENDBRANCH  16  18
ENDBRANCH   1  15
TORSDOF 2
ENDMDL