MODEL 4
REMARK VINA RESULT: -7.048103896      1.467      1.743
REMARK  3 active torsions:
REMARK  status: ('A' for Active; 'I' for Inactive)
REMARK    1  A    between atoms: C5_5  and  C6_6
REMARK    2  A    between atoms: C6_6  and  C7_7
REMARK    3  A    between atoms: C8_8  and  O1_9
ROOT
HETATM    1  C7  UNL     1      -3.440  -7.427  40.059  1.00  0.00     0.049 A
HETATM    2  C8  UNL     1      -4.574  -7.120  39.341  1.00  0.00     0.154 A
HETATM    3  N1  UNL     1      -4.403  -7.654  38.123  1.00  0.00    -0.321 N
ATOM      4  H1  UNL     1      -5.083  -7.592  37.365  1.00  0.00     0.169 HD
HETATM    5  C9  UNL     1      -3.225  -8.280  38.034  1.00  0.00     0.138 A
HETATM    6  N2  UNL     1      -2.577  -8.967  37.054  1.00  0.00    -0.329 N
ATOM      7  H2  UNL     1      -3.016  -9.083  36.140  1.00  0.00     0.168 HD
HETATM    8  C10 UNL     1      -1.362  -9.493  37.284  1.00  0.00     0.093 A
HETATM    9  C11 UNL     1      -0.647 -10.252  36.196  1.00  0.00     0.090 C
HETATM   10  N3  UNL     1      -0.779  -9.345  38.483  1.00  0.00    -0.289 N
ATOM     11  H3  UNL     1       0.144  -9.754  38.634  1.00  0.00     0.188 HD
HETATM   12  N4  UNL     1      -1.350  -8.694  39.474  1.00  0.00    -0.295 N
ATOM     13  H4  UNL     1      -0.888  -8.595  40.378  1.00  0.00     0.187 HD
HETATM   14  C12 UNL     1      -2.585  -8.156  39.247  1.00  0.00     0.106 A
ENDROOT
BRANCH   1  15
HETATM   15  C6  UNL     1      -3.153  -7.064  41.443  1.00  0.00     0.047 C
BRANCH  15  16
HETATM   16  C5  UNL     1      -3.815  -6.112  42.080  1.00  0.00     0.033 A
HETATM   17  C4  UNL     1      -3.554  -4.766  42.025  1.00  0.00     0.031 A
HETATM   18  C3  UNL     1      -4.456  -4.088  42.824  1.00  0.00     0.031 A
HETATM   19  C2  UNL     1      -5.271  -5.058  43.364  1.00  0.00     0.023 A
HETATM   20  C1  UNL     1      -6.268  -4.800  44.191  1.00  0.00     0.043 C
HETATM   21  N5  UNL     1      -4.859  -6.248  42.900  1.00  0.00    -0.357 N
ATOM     22  H5  UNL     1      -5.289  -7.141  43.142  1.00  0.00     0.166 HD
ENDBRANCH  15  16
ENDBRANCH   1  15
BRANCH   2  23
HETATM   23  O1  UNL     1      -5.676  -6.391  39.818  1.00  0.00    -0.345 OA
ATOM     24  H1  UNL     1      -6.078  -5.645  39.386  1.00  0.00     0.219 HD
ENDBRANCH   2  23
TORSDOF 3
ENDMDL