MODEL 1
REMARK VINA RESULT: -6.996164542      0.000      0.000
REMARK  3 active torsions:
REMARK  status: ('A' for Active; 'I' for Inactive)
REMARK    1  A    between atoms: C2_2  and  N1_3
REMARK    2  A    between atoms: C2_2  and  C3_7
REMARK    3  A    between atoms: C2_2  and  C4_9
ROOT
HETATM    1  C4  UNL     1     -16.571  25.051  -3.008  1.00  0.00     0.013 A
HETATM    2  C5  UNL     1     -15.830  25.965  -3.741  1.00  0.00     0.012 A
HETATM    3  C6  UNL     1     -16.186  27.266  -3.906  1.00  0.00     0.003 A
HETATM    4  C7  UNL     1     -17.338  27.710  -3.319  1.00  0.00     0.032 A
HETATM    5  C8  UNL     1     -18.105  26.837  -2.580  1.00  0.00     0.062 A
HETATM    6  N2  UNL     1     -19.251  27.278  -1.988  1.00  0.00    -0.317 N
ATOM      7  H2  UNL     1     -19.541  28.249  -2.097  1.00  0.00     0.169 HD
HETATM    8  C9  UNL     1     -19.995  26.431  -1.263  1.00  0.00     0.314 A
HETATM    9  O2  UNL     1     -21.057  26.845  -0.714  1.00  0.00    -0.262 OA
HETATM   10  C10 UNL     1     -19.623  25.116  -1.102  1.00  0.00     0.314 A
HETATM   11  O3  UNL     1     -20.297  24.288  -0.424  1.00  0.00    -0.262 OA
HETATM   12  N3  UNL     1     -18.489  24.655  -1.682  1.00  0.00    -0.316 N
ATOM     13  H3  UNL     1     -18.206  23.681  -1.568  1.00  0.00     0.169 HD
HETATM   14  C11 UNL     1     -17.748  25.496  -2.404  1.00  0.00     0.071 A
ENDROOT
BRANCH   1  15
HETATM   15  C2  UNL     1     -16.163  23.653  -2.881  1.00  0.00     0.201 C
HETATM   16  C1  UNL     1     -14.883  23.509  -3.748  1.00  0.00     0.059 C
BRANCH  15  17
HETATM   17  N1  UNL     1     -17.033  22.675  -3.499  1.00  0.00    -0.060 N
ATOM     18  H13 UNL     1     -17.559  23.007  -4.307  1.00  0.00     0.276 HD
ATOM     19  H12 UNL     1     -16.560  21.924  -4.002  1.00  0.00     0.276 HD
ATOM     20  H11 UNL     1     -17.597  22.380  -2.702  1.00  0.00     0.276 HD
ENDBRANCH  15  17
BRANCH  15  21
HETATM   21  C3  UNL     1     -15.682  23.257  -1.529  1.00  0.00     0.274 C
HETATM   22  O1  UNL     1     -16.373  22.680  -0.713  1.00  0.00    -0.304 OA
ENDBRANCH  15  21
ENDBRANCH   1  15
TORSDOF 3
ENDMDL