MODEL 3
REMARK VINA RESULT: -7.385214480      1.240      2.136
REMARK  3 active torsions:
REMARK  status: ('A' for Active; 'I' for Inactive)
REMARK    1  A    between atoms: C7_7  and  C8_8
REMARK    2  A    between atoms: N1_9  and  N2_11
REMARK       I    between atoms: C9_13  and  N4_15
REMARK    3  A    between atoms: N4_15  and  C10_17
ROOT
HETATM    1  N2  UNL     1     -18.542  24.387   1.139  1.00  0.00    -0.273 N
ATOM      2  H2  UNL     1     -17.924  23.839   1.737  1.00  0.00     0.189 HD
HETATM    3  C9  UNL     1     -19.696  24.707   1.610  1.00  0.00     0.221 C
HETATM    4  N3  UNL     1     -20.651  25.465   0.885  1.00  0.00    -0.061 NA
HETATM    5  N4  UNL     1     -20.016  24.269   2.923  1.00  0.00    -0.159 N
ATOM      6  H4  UNL     1     -19.260  24.015   3.559  1.00  0.00     0.187 HD
ENDROOT
BRANCH   1   7
HETATM    7  N1  UNL     1     -18.077  24.728  -0.108  1.00  0.00    -0.309 N
HETATM    8  C8  UNL     1     -17.332  25.717  -0.373  1.00  0.00     0.119 C
ATOM      9  H1  UNL     1     -18.356  24.133  -0.888  1.00  0.00     0.186 HD
BRANCH   8  10
HETATM   10  C7  UNL     1     -16.805  26.144  -1.635  1.00  0.00    -0.013 A
HETATM   11  C2  UNL     1     -17.500  26.982  -2.457  1.00  0.00    -0.050 A
HETATM   12  C1  UNL     1     -18.831  27.501  -2.104  1.00  0.00     0.049 C
HETATM   13  C3  UNL     1     -16.998  27.406  -3.690  1.00  0.00     0.007 A
HETATM   14  C4  UNL     1     -15.766  26.985  -4.120  1.00  0.00     0.001 A
HETATM   15  C5  UNL     1     -15.048  26.139  -3.306  1.00  0.00     0.001 A
HETATM   16  C6  UNL     1     -15.552  25.729  -2.099  1.00  0.00     0.013 A
ENDBRANCH   8  10
ENDBRANCH   1   7
BRANCH   5  17
HETATM   17  C10 UNL     1     -21.229  24.186   3.330  1.00  0.00     0.716 A
HETATM   18  N5  UNL     1     -22.093  25.183   3.461  1.00  0.00    -0.115 N
HETATM   19  N6  UNL     1     -23.238  24.677   3.908  1.00  0.00    -0.213 N
ATOM     20  H5  UNL     1     -21.911  26.165   3.255  1.00  0.00     0.207 HD
HETATM   21  N7  UNL     1     -23.073  23.377   4.050  1.00  0.00    -0.213 N
ATOM     22  H6  UNL     1     -24.090  25.201   4.106  1.00  0.00     0.210 HD
HETATM   23  N8  UNL     1     -21.849  23.057   3.700  1.00  0.00    -0.115 N
ATOM     24  H7  UNL     1     -23.785  22.724   4.379  1.00  0.00     0.210 HD
ATOM     25  H8  UNL     1     -21.444  22.121   3.710  1.00  0.00     0.207 HD
ENDBRANCH   5  17
TORSDOF 3
ENDMDL