MODEL 5
REMARK VINA RESULT: -5.964761594      1.379      1.399
REMARK  4 active torsions:
REMARK  status: ('A' for Active; 'I' for Inactive)
REMARK    1  A    between atoms: N1_1  and  S1_4
REMARK    2  A    between atoms: S1_4  and  C1_7
REMARK    3  A    between atoms: C4_10  and  N2_11
REMARK    4  A    between atoms: N2_11  and  C5_13
ROOT
HETATM    1  C1  UNL     1     -17.217  26.757  -2.807  1.00  0.00     0.079 A
HETATM    2  C2  UNL     1     -16.603  25.988  -1.843  1.00  0.00     0.027 A
HETATM    3  C3  UNL     1     -15.269  25.639  -1.945  1.00  0.00     0.031 A
HETATM    4  C4  UNL     1     -14.539  26.072  -3.035  1.00  0.00     0.049 A
HETATM    5  C7  UNL     1     -15.172  26.841  -3.987  1.00  0.00     0.031 A
HETATM    6  C8  UNL     1     -16.489  27.192  -3.896  1.00  0.00     0.027 A
ENDROOT
BRANCH   4   7
HETATM    7  N2  UNL     1     -13.153  25.720  -3.158  1.00  0.00    -0.190 N
ATOM      8  H2  UNL     1     -12.491  25.888  -2.401  1.00  0.00     0.184 HD
BRANCH   7   9
HETATM    9  C5  UNL     1     -12.780  25.174  -4.283  1.00  0.00     0.698 A
HETATM   10  N3  UNL     1     -13.186  24.030  -4.843  1.00  0.00    -0.185 N
HETATM   11  C6  UNL     1     -12.537  23.855  -6.006  1.00  0.00     0.215 A
ATOM     12  H3  UNL     1     -13.879  23.392  -4.450  1.00  0.00     0.185 HD
HETATM   13  N4  UNL     1     -11.719  24.907  -6.163  1.00  0.00    -0.281 N
HETATM   14  N5  UNL     1     -11.880  25.692  -5.113  1.00  0.00    -0.131 N
ATOM     15  H4  UNL     1     -11.090  25.071  -6.948  1.00  0.00     0.188 HD
ATOM     16  H5  UNL     1     -11.384  26.570  -4.961  1.00  0.00     0.205 HD
ENDBRANCH   7   9
ENDBRANCH   4   7
BRANCH   1  17
HETATM   17  S1  UNL     1     -18.920  27.196  -2.663  1.00  0.00     0.256 S
HETATM   18  O1  UNL     1     -19.361  27.995  -3.876  1.00  0.00    -0.201 OA
HETATM   19  O2  UNL     1     -19.090  28.015  -1.413  1.00  0.00    -0.201 OA
BRANCH  17  20
HETATM   20  N1  UNL     1     -19.848  25.734  -2.523  1.00  0.00    -0.324 N
ATOM     21  H12 UNL     1     -20.025  25.255  -1.639  1.00  0.00     0.169 HD
ATOM     22  H11 UNL     1     -20.184  25.432  -3.438  1.00  0.00     0.169 HD
ENDBRANCH  17  20
ENDBRANCH   1  17
TORSDOF 4
ENDMDL