MODEL 4
REMARK VINA RESULT: -6.373273194      2.174      4.061
REMARK  2 active torsions:
REMARK  status: ('A' for Active; 'I' for Inactive)
REMARK    1  A    between atoms: C5_7  and  C6_8
REMARK    2  A    between atoms: C6_8  and  N2_10
ROOT
HETATM    1  N2  UNL     1     -19.974  25.007  -0.485  1.00  0.00    -0.229 N
HETATM    2  N3  UNL     1     -19.757  24.095   0.473  1.00  0.00    -0.255 N
ATOM      3  H3  UNL     1     -19.155  23.296   0.277  1.00  0.00     0.191 HD
HETATM    4  C8  UNL     1     -20.320  24.216   1.686  1.00  0.00     0.328 A
HETATM    5  O1  UNL     1     -20.082  23.320   2.564  1.00  0.00    -0.261 OA
HETATM    6  C9  UNL     1     -21.144  25.283   1.996  1.00  0.00     0.319 A
HETATM    7  O2  UNL     1     -21.682  25.420   3.124  1.00  0.00    -0.262 OA
HETATM    8  N4  UNL     1     -21.351  26.193   1.020  1.00  0.00    -0.269 N
ATOM      9  H4  UNL     1     -21.951  26.999   1.199  1.00  0.00     0.174 HD
HETATM   10  C10 UNL     1     -20.767  26.044  -0.201  1.00  0.00     0.344 A
HETATM   11  O3  UNL     1     -20.966  26.890  -1.096  1.00  0.00    -0.245 OA
ENDROOT
BRANCH   1  12
HETATM   12  C6  UNL     1     -19.319  24.779  -1.741  1.00  0.00     0.159 C
HETATM   13  C7  UNL     1     -18.137  23.853  -1.449  1.00  0.00     0.041 C
BRANCH  12  14
HETATM   14  C5  UNL     1     -18.909  25.975  -2.476  1.00  0.00     0.040 A
HETATM   15  C2  UNL     1     -17.767  26.711  -2.247  1.00  0.00    -0.036 A
HETATM   16  C1  UNL     1     -16.699  26.469  -1.221  1.00  0.00     0.050 C
HETATM   17  C3  UNL     1     -17.713  27.787  -3.141  1.00  0.00     0.025 A
HETATM   18  C4  UNL     1     -18.850  27.674  -3.908  1.00  0.00     0.089 A
HETATM   19  N1  UNL     1     -19.538  26.602  -3.500  1.00  0.00    -0.367 N
ATOM     20  H1  UNL     1     -20.422  26.296  -3.907  1.00  0.00     0.165 HD
ENDBRANCH  12  14
ENDBRANCH   1  12
TORSDOF 2
ENDMDL