MODEL 4
REMARK VINA RESULT: -6.356842178      2.734      4.245
REMARK  6 active torsions:
REMARK  status: ('A' for Active; 'I' for Inactive)
REMARK    1  A    between atoms: C7_7  and  O1_8
REMARK    2  A    between atoms: O1_8  and  C8_9
REMARK    3  A    between atoms: C8_9  and  C9_10
REMARK    4  A    between atoms: C10_11  and  N1_12
REMARK    5  A    between atoms: C11_17  and  N3_18
REMARK    6  A    between atoms: N4_21  and  O2_22
ROOT
HETATM    1  C1  UNL     1     -17.574  23.296   2.890  1.00  0.00     0.050 C
HETATM    2  C2  UNL     1     -17.547  23.669   1.473  1.00  0.00    -0.031 A
HETATM    3  C3  UNL     1     -16.511  23.256   0.637  1.00  0.00     0.009 A
HETATM    4  C4  UNL     1     -16.455  23.590  -0.698  1.00  0.00     0.002 A
HETATM    5  C5  UNL     1     -17.457  24.368  -1.264  1.00  0.00     0.018 A
HETATM    6  C6  UNL     1     -18.496  24.794  -0.473  1.00  0.00     0.046 A
HETATM    7  C7  UNL     1     -19.514  25.579  -1.027  1.00  0.00     0.171 A
HETATM    8  N2  UNL     1     -20.516  25.982  -0.231  1.00  0.00    -0.168 N
ATOM      9  H2  UNL     1     -21.262  26.555  -0.623  1.00  0.00     0.186 HD
HETATM   10  C11 UNL     1     -20.561  25.649   1.080  1.00  0.00     0.704 A
HETATM   11  N4  UNL     1     -19.571  24.894   1.592  1.00  0.00    -0.051 N
HETATM   12  C12 UNL     1     -18.534  24.448   0.870  1.00  0.00     0.101 A
ENDROOT
BRANCH   7  13
HETATM   13  O1  UNL     1     -19.516  25.946  -2.353  1.00  0.00    -0.323 OA
BRANCH  13  14
HETATM   14  C8  UNL     1     -19.122  27.201  -2.857  1.00  0.00     0.272 C
BRANCH  14  15
HETATM   15  C9  UNL     1     -17.725  27.189  -3.282  1.00  0.00    -0.057 C
HETATM   16  C10 UNL     1     -16.552  27.156  -3.633  1.00  0.00     0.005 C
BRANCH  16  17
HETATM   17  N1  UNL     1     -15.207  27.094  -4.031  1.00  0.00    -0.359 N
ATOM     18  H12 UNL     1     -16.111  27.212  -4.488  1.00  0.00     0.166 HD
ATOM     19  H11 UNL     1     -14.224  27.046  -4.302  1.00  0.00     0.166 HD
ENDBRANCH  16  17
ENDBRANCH  14  15
ENDBRANCH  13  14
ENDBRANCH   7  13
BRANCH  10  20
HETATM   20  N3  UNL     1     -21.551  26.071   1.813  1.00  0.00    -0.232 N
ATOM     21  H32 UNL     1     -21.420  26.342   2.787  1.00  0.00     0.174 HD
ATOM     22  H31 UNL     1     -22.483  26.143   1.403  1.00  0.00     0.174 HD
ENDBRANCH  10  20
BRANCH  11  23
HETATM   23  O2  UNL     1     -19.666  24.590   2.905  1.00  0.00    -0.269 OA
ATOM     24  H2  UNL     1     -20.477  24.184   3.186  1.00  0.00     0.245 HD
ENDBRANCH  11  23
TORSDOF 6
ENDMDL