MODEL 1
REMARK VINA RESULT: -6.072256102      0.000      0.000
REMARK  4 active torsions:
REMARK  status: ('A' for Active; 'I' for Inactive)
REMARK    1  A    between atoms: C5_8  and  N3_9
REMARK    2  A    between atoms: N3_9  and  C6_11
REMARK    3  A    between atoms: C8_13  and  C9_14
REMARK    4  A    between atoms: C9_14  and  N4_15
ROOT
HETATM    1  C6  UNL     1     -19.844  24.842  -0.484  1.00  0.00     0.137 A
HETATM    2  C7  UNL     1     -19.844  23.945   0.539  1.00  0.00     0.080 A
HETATM    3  C8  UNL     1     -20.404  24.533   1.641  1.00  0.00     0.070 A
HETATM    4  N5  UNL     1     -20.740  25.777   1.282  1.00  0.00    -0.300 N
ATOM      5  H5  UNL     1     -21.182  26.473   1.883  1.00  0.00     0.186 HD
HETATM    6  N6  UNL     1     -20.406  25.953   0.022  1.00  0.00    -0.285 N
ATOM      7  H6  UNL     1     -20.553  26.816  -0.501  1.00  0.00     0.188 HD
ENDROOT
BRANCH   1   8
HETATM    8  N3  UNL     1     -19.384  24.732  -1.817  1.00  0.00    -0.175 N
ATOM      9  H3  UNL     1     -19.507  23.836  -2.288  1.00  0.00     0.186 HD
BRANCH   8  10
HETATM   10  C5  UNL     1     -18.826  25.672  -2.471  1.00  0.00     0.685 A
HETATM   11  N1  UNL     1     -17.474  25.749  -2.419  1.00  0.00    -0.198 N
HETATM   12  C1  UNL     1     -16.730  24.765  -1.627  1.00  0.00     0.174 C
HETATM   13  C2  UNL     1     -16.788  26.706  -3.074  1.00  0.00     0.110 A
HETATM   14  C3  UNL     1     -17.466  27.646  -3.828  1.00  0.00     0.035 A
HETATM   15  C4  UNL     1     -18.844  27.571  -3.885  1.00  0.00     0.107 A
HETATM   16  N2  UNL     1     -19.469  26.590  -3.206  1.00  0.00    -0.201 N
ATOM     17  H2  UNL     1     -20.487  26.543  -3.254  1.00  0.00     0.183 HD
ENDBRANCH   8  10
ENDBRANCH   1   8
BRANCH   3  18
HETATM   18  C9  UNL     1     -20.619  23.933   3.003  1.00  0.00     0.306 C
HETATM   19  S1  UNL     1     -20.969  22.183   2.794  1.00  0.00    -0.056 SA
BRANCH  18  20
HETATM   20  N4  UNL     1     -21.719  24.624   3.661  1.00  0.00    -0.060 N
ATOM     21  H43 UNL     1     -21.546  25.625   3.757  1.00  0.00     0.276 HD
ATOM     22  H42 UNL     1     -22.550  24.677   3.072  1.00  0.00     0.276 HD
ATOM     23  H41 UNL     1     -21.908  24.176   4.558  1.00  0.00     0.276 HD
ENDBRANCH  18  20
ENDBRANCH   3  18
TORSDOF 4
ENDMDL