MODEL 1
REMARK VINA RESULT: -6.769809573      0.000      0.000
REMARK  3 active torsions:
REMARK  status: ('A' for Active; 'I' for Inactive)
REMARK    1  A    between atoms: S1_2  and  C2_5
REMARK    2  A    between atoms: C5_8  and  N1_9
REMARK    3  A    between atoms: N1_9  and  C6_11
ROOT
HETATM    1  N1  UNL     1     -19.016  24.265  -0.293  1.00  0.00    -0.190 N
ATOM      2  H1  UNL     1     -18.359  23.490  -0.378  1.00  0.00     0.184 HD
ENDROOT
BRANCH   1   3
HETATM    3  C5  UNL     1     -19.880  24.354   0.837  1.00  0.00     0.049 A
HETATM    4  C4  UNL     1     -20.062  23.261   1.660  1.00  0.00     0.031 A
HETATM    5  C3  UNL     1     -20.889  23.352   2.738  1.00  0.00     0.025 A
HETATM    6  C2  UNL     1     -21.575  24.517   3.057  1.00  0.00     0.059 A
HETATM    7  C9  UNL     1     -21.394  25.594   2.243  1.00  0.00     0.025 A
HETATM    8  C8  UNL     1     -20.561  25.511   1.152  1.00  0.00     0.031 A
BRANCH   6   9
HETATM    9  S1  UNL     1     -22.619  24.572   4.450  1.00  0.00     0.171 S
HETATM   10  C1  UNL     1     -22.245  23.186   5.501  1.00  0.00     0.167 C
HETATM   11  O1  UNL     1     -24.042  24.454   3.951  1.00  0.00    -0.223 OA
HETATM   12  O2  UNL     1     -22.461  25.817   5.244  1.00  0.00    -0.223 OA
ENDBRANCH   6   9
ENDBRANCH   1   3
BRANCH   1  13
HETATM   13  C6  UNL     1     -19.074  25.173  -1.205  1.00  0.00     0.701 A
HETATM   14  N2  UNL     1     -19.679  25.059  -2.409  1.00  0.00    -0.128 N
HETATM   15  N3  UNL     1     -19.539  26.176  -3.081  1.00  0.00    -0.237 N
ATOM     16  H2  UNL     1     -20.169  24.230  -2.744  1.00  0.00     0.205 HD
HETATM   17  C7  UNL     1     -18.842  27.055  -2.344  1.00  0.00     0.353 A
ATOM     18  H3  UNL     1     -19.903  26.350  -4.018  1.00  0.00     0.192 HD
HETATM   19  O3  UNL     1     -18.515  28.233  -2.662  1.00  0.00    -0.245 OA
HETATM   20  N4  UNL     1     -18.567  26.416  -1.195  1.00  0.00    -0.139 N
ATOM     21  H4  UNL     1     -18.044  26.821  -0.418  1.00  0.00     0.189 HD
ENDBRANCH   1  13
TORSDOF 3
ENDMDL