MODEL 1
REMARK VINA RESULT: -7.253684204      0.000      0.000
REMARK  3 active torsions:
REMARK  status: ('A' for Active; 'I' for Inactive)
REMARK    1  A    between atoms: C3_9  and  N3_10
REMARK    2  A    between atoms: N3_10  and  N4_12
REMARK    3  A    between atoms: C4_14  and  C5_15
ROOT
HETATM    1  O1  UNL     1     -18.970  22.564   0.561  1.00  0.00    -0.246 OA
HETATM    2  C1  UNL     1     -19.515  23.686   0.382  1.00  0.00     0.342 A
HETATM    3  N1  UNL     1     -20.190  24.254   1.411  1.00  0.00    -0.260 N
ATOM      4  H1  UNL     1     -20.262  23.793   2.318  1.00  0.00     0.175 HD
HETATM    5  C2  UNL     1     -20.761  25.449   1.190  1.00  0.00     0.342 A
HETATM    6  O2  UNL     1     -21.404  26.020   2.122  1.00  0.00    -0.246 OA
HETATM    7  N2  UNL     1     -20.685  26.084   0.007  1.00  0.00    -0.139 N
ATOM      8  H2  UNL     1     -21.128  26.992  -0.134  1.00  0.00     0.189 HD
HETATM    9  C3  UNL     1     -20.005  25.483  -0.985  1.00  0.00     0.704 A
HETATM   10  N5  UNL     1     -19.425  24.292  -0.794  1.00  0.00    -0.139 N
ATOM     11  H5  UNL     1     -18.913  23.848  -1.556  1.00  0.00     0.189 HD
ENDROOT
BRANCH   9  12
HETATM   12  N3  UNL     1     -19.891  26.032  -2.142  1.00  0.00    -0.132 N
ATOM     13  H3  UNL     1     -20.130  25.481  -2.966  1.00  0.00     0.205 HD
BRANCH  12  14
HETATM   14  N4  UNL     1     -19.473  27.290  -2.319  1.00  0.00    -0.297 N
HETATM   15  C4  UNL     1     -18.347  27.770  -2.517  1.00  0.00     0.119 C
ATOM     16  H4  UNL     1     -20.219  27.984  -2.284  1.00  0.00     0.186 HD
BRANCH  15  17
HETATM   17  C5  UNL     1     -17.064  27.072  -2.625  1.00  0.00    -0.019 A
HETATM   18  C6  UNL     1     -16.523  26.312  -1.635  1.00  0.00     0.013 A
HETATM   19  C7  UNL     1     -15.292  25.693  -1.851  1.00  0.00     0.001 A
HETATM   20  C8  UNL     1     -14.610  25.828  -3.034  1.00  0.00     0.000 A
HETATM   21  C9  UNL     1     -15.187  26.604  -4.013  1.00  0.00     0.001 A
HETATM   22  C10 UNL     1     -16.393  27.219  -3.819  1.00  0.00     0.013 A
ENDBRANCH  15  17
ENDBRANCH  12  14
ENDBRANCH   9  12
TORSDOF 3
ENDMDL