MODEL 3
REMARK VINA RESULT: -7.036564241      1.838      2.516
REMARK  3 active torsions:
REMARK  status: ('A' for Active; 'I' for Inactive)
REMARK    1  A    between atoms: C4_5  and  S1_6
REMARK    2  A    between atoms: S1_6  and  N2_9
REMARK    3  A    between atoms: N2_9  and  C5_11
ROOT
HETATM    1  S1  UNL     1     -18.956  27.075  -2.297  1.00  0.00     0.276 S
HETATM    2  O1  UNL     1     -19.556  27.699  -3.527  1.00  0.00    -0.200 OA
HETATM    3  O2  UNL     1     -19.065  28.082  -1.164  1.00  0.00    -0.200 OA
ENDROOT
BRANCH   1   4
HETATM    4  C4  UNL     1     -17.263  26.665  -2.572  1.00  0.00     0.080 A
HETATM    5  C3  UNL     1     -16.541  25.948  -1.651  1.00  0.00     0.027 A
HETATM    6  C2  UNL     1     -15.217  25.628  -1.867  1.00  0.00     0.028 A
HETATM    7  C1  UNL     1     -14.557  26.017  -3.027  1.00  0.00     0.046 A
HETATM    8  N1  UNL     1     -13.199  25.693  -3.258  1.00  0.00    -0.102 NA
HETATM    9  C8  UNL     1     -15.306  26.742  -3.948  1.00  0.00     0.028 A
HETATM   10  C7  UNL     1     -16.623  27.060  -3.729  1.00  0.00     0.027 A
ENDBRANCH   1   4
BRANCH   1  11
HETATM   11  N2  UNL     1     -19.774  25.623  -1.856  1.00  0.00    -0.111 N
ATOM     12  H2  UNL     1     -20.088  24.964  -2.570  1.00  0.00     0.197 HD
BRANCH  11  13
HETATM   13  C5  UNL     1     -19.984  25.383  -0.590  1.00  0.00     0.707 A
HETATM   14  N3  UNL     1     -19.504  24.345   0.120  1.00  0.00    -0.185 N
HETATM   15  C6  UNL     1     -19.960  24.476   1.393  1.00  0.00     0.215 A
ATOM     16  H3  UNL     1     -18.907  23.597  -0.233  1.00  0.00     0.185 HD
HETATM   17  N4  UNL     1     -20.713  25.582   1.466  1.00  0.00    -0.281 N
HETATM   18  N5  UNL     1     -20.720  26.120   0.266  1.00  0.00    -0.130 N
ATOM     19  H4  UNL     1     -21.190  25.938   2.293  1.00  0.00     0.188 HD
ATOM     20  H5  UNL     1     -21.214  26.976   0.016  1.00  0.00     0.205 HD
ENDBRANCH  11  13
ENDBRANCH   1  11
TORSDOF 3
ENDMDL