MODEL 3
REMARK VINA RESULT: -7.294446996      1.837      2.369
REMARK  4 active torsions:
REMARK  status: ('A' for Active; 'I' for Inactive)
REMARK    1  A    between atoms: N1_1  and  C1_4
REMARK    2  A    between atoms: C3_10  and  N4_11
REMARK    3  A    between atoms: N4_11  and  S1_13
REMARK    4  A    between atoms: S1_13  and  C4_16
ROOT
HETATM    1  C1  UNL     1     -21.675  24.574   3.191  1.00  0.00     0.691 A
HETATM    2  N2  UNL     1     -21.520  23.239   3.112  1.00  0.00    -0.187 N
ATOM      3  H2  UNL     1     -22.072  22.612   3.698  1.00  0.00     0.185 HD
HETATM    4  C2  UNL     1     -20.610  22.754   2.231  1.00  0.00     0.215 A
HETATM    5  N3  UNL     1     -19.883  23.586   1.459  1.00  0.00    -0.186 N
ATOM      6  H3  UNL     1     -19.205  23.195   0.805  1.00  0.00     0.185 HD
HETATM    7  C3  UNL     1     -20.031  24.928   1.531  1.00  0.00     0.707 A
HETATM    8  N5  UNL     1     -20.952  25.374   2.426  1.00  0.00    -0.022 N
ATOM      9  H5  UNL     1     -21.093  26.380   2.511  1.00  0.00     0.203 HD
ENDROOT
BRANCH   7  10
HETATM   10  N4  UNL     1     -19.350  25.750   0.804  1.00  0.00    -0.112 N
ATOM     11  H4  UNL     1     -18.565  26.273   1.193  1.00  0.00     0.197 HD
BRANCH  10  12
HETATM   12  S1  UNL     1     -19.814  25.930  -0.842  1.00  0.00     0.276 S
HETATM   13  O1  UNL     1     -20.887  26.967  -1.008  1.00  0.00    -0.200 OA
HETATM   14  O2  UNL     1     -20.376  24.617  -1.308  1.00  0.00    -0.200 OA
BRANCH  12  15
HETATM   15  C4  UNL     1     -18.487  26.360  -1.861  1.00  0.00     0.080 A
HETATM   16  C5  UNL     1     -18.739  27.168  -2.953  1.00  0.00     0.025 A
HETATM   17  C6  UNL     1     -17.750  27.560  -3.817  1.00  0.00     0.002 A
HETATM   18  C7  UNL     1     -16.457  27.135  -3.590  1.00  0.00     0.000 A
HETATM   19  C8  UNL     1     -16.159  26.328  -2.512  1.00  0.00     0.002 A
HETATM   20  C9  UNL     1     -17.182  25.955  -1.668  1.00  0.00     0.025 A
ENDBRANCH  12  15
ENDBRANCH  10  12
ENDBRANCH   7  10
BRANCH   1  21
HETATM   21  N1  UNL     1     -22.553  25.046   4.043  1.00  0.00    -0.234 N
ATOM     22  H12 UNL     1     -23.488  24.645   4.125  1.00  0.00     0.174 HD
ATOM     23  H11 UNL     1     -22.281  25.836   4.629  1.00  0.00     0.174 HD
ENDBRANCH   1  21
TORSDOF 4
ENDMDL