MODEL 3
REMARK VINA RESULT: -6.567128892      2.813      3.904
REMARK  4 active torsions:
REMARK  status: ('A' for Active; 'I' for Inactive)
REMARK    1  A    between atoms: C5_6  and  N2_7
REMARK    2  A    between atoms: N2_7  and  C6_9
REMARK    3  A    between atoms: C9_12  and  S1_13
REMARK    4  A    between atoms: S1_13  and  N3_14
ROOT
HETATM    1  C6  UNL     1     -14.725  26.635  -3.230  1.00  0.00     0.105 A
HETATM    2  C7  UNL     1     -15.711  27.287  -3.921  1.00  0.00     0.050 A
HETATM    3  C8  UNL     1     -17.027  27.240  -3.498  1.00  0.00     0.030 A
HETATM    4  C9  UNL     1     -17.340  26.523  -2.364  1.00  0.00     0.094 A
HETATM    5  C10 UNL     1     -16.331  25.870  -1.681  1.00  0.00     0.115 A
HETATM    6  N4  UNL     1     -15.049  25.944  -2.134  1.00  0.00    -0.351 N
ATOM      7  H4  UNL     1     -14.314  25.458  -1.620  1.00  0.00     0.166 HD
ENDROOT
BRANCH   1   8
HETATM    8  N2  UNL     1     -13.526  26.684  -3.626  1.00  0.00    -0.342 N
ATOM      9  H2  UNL     1     -12.808  26.745  -2.904  1.00  0.00     0.167 HD
BRANCH   8  10
HETATM   10  C5  UNL     1     -13.082  26.662  -4.956  1.00  0.00     0.035 A
HETATM   11  C4  UNL     1     -12.467  27.767  -5.507  1.00  0.00     0.029 A
HETATM   12  C3  UNL     1     -12.020  27.760  -6.830  1.00  0.00     0.004 A
HETATM   13  C2  UNL     1     -12.185  26.639  -7.620  1.00  0.00     0.027 A
HETATM   14  C1  UNL     1     -12.797  25.533  -7.078  1.00  0.00     0.048 A
HETATM   15  N1  UNL     1     -12.979  24.354  -7.883  1.00  0.00    -0.102 NA
HETATM   16  C11 UNL     1     -13.234  25.552  -5.771  1.00  0.00     0.056 A
ENDBRANCH   8  10
ENDBRANCH   1   8
BRANCH   4  17
HETATM   17  S1  UNL     1     -18.987  26.418  -1.768  1.00  0.00     0.258 S
HETATM   18  O1  UNL     1     -19.821  27.543  -2.309  1.00  0.00    -0.201 OA
HETATM   19  O2  UNL     1     -18.936  26.576  -0.274  1.00  0.00    -0.201 OA
BRANCH  17  20
HETATM   20  N3  UNL     1     -19.637  24.878  -2.178  1.00  0.00    -0.324 N
ATOM     21  H32 UNL     1     -19.533  24.428  -3.088  1.00  0.00     0.169 HD
ATOM     22  H31 UNL     1     -20.133  24.500  -1.371  1.00  0.00     0.169 HD
ENDBRANCH  17  20
ENDBRANCH   4  17
TORSDOF 4
ENDMDL