MODEL 4
REMARK VINA RESULT: -7.075564379      2.061      2.987
REMARK  4 active torsions:
REMARK  status: ('A' for Active; 'I' for Inactive)
REMARK    1  A    between atoms: C3_4  and  O1_5
REMARK    2  A    between atoms: C4_11  and  N4_12
REMARK    3  A    between atoms: N4_12  and  S1_14
REMARK    4  A    between atoms: S1_14  and  C5_17
ROOT
HETATM    1  N1  UNL     1     -16.677  23.256   2.076  1.00  0.00    -0.191 NA
HETATM    2  C1  UNL     1     -17.732  23.691   2.220  1.00  0.00     0.108 C
HETATM    3  C2  UNL     1     -19.067  24.214   2.435  1.00  0.00     0.142 A
HETATM    4  C3  UNL     1     -19.925  23.762   3.427  1.00  0.00     0.180 A
HETATM    5  N2  UNL     1     -21.049  24.459   3.327  1.00  0.00    -0.277 N
ATOM      6  H2  UNL     1     -21.859  24.335   3.934  1.00  0.00     0.189 HD
HETATM    7  N3  UNL     1     -20.985  25.327   2.351  1.00  0.00    -0.282 N
ATOM      8  H3  UNL     1     -21.719  25.979   2.075  1.00  0.00     0.188 HD
HETATM    9  C4  UNL     1     -19.733  25.198   1.758  1.00  0.00     0.155 A
ENDROOT
BRANCH   4  10
HETATM   10  O1  UNL     1     -19.648  22.765   4.346  1.00  0.00    -0.344 OA
ATOM     11  H1  UNL     1     -19.241  21.929   4.153  1.00  0.00     0.219 HD
ENDBRANCH   4  10
BRANCH   9  12
HETATM   12  N4  UNL     1     -19.354  25.890   0.785  1.00  0.00    -0.263 N
ATOM     13  H4  UNL     1     -18.685  26.603   1.074  1.00  0.00     0.180 HD
BRANCH  12  14
HETATM   14  S1  UNL     1     -19.644  25.960  -0.836  1.00  0.00     0.264 S
HETATM   15  O2  UNL     1     -20.633  27.027  -1.221  1.00  0.00    -0.200 OA
HETATM   16  O3  UNL     1     -20.170  24.642  -1.398  1.00  0.00    -0.200 OA
BRANCH  14  17
HETATM   17  C5  UNL     1     -18.167  26.340  -1.774  1.00  0.00     0.080 A
HETATM   18  C6  UNL     1     -18.240  26.979  -2.988  1.00  0.00     0.027 A
HETATM   19  C7  UNL     1     -17.099  27.275  -3.716  1.00  0.00     0.028 A
HETATM   20  C8  UNL     1     -15.843  26.940  -3.253  1.00  0.00     0.046 A
HETATM   21  N5  UNL     1     -14.696  27.259  -4.027  1.00  0.00    -0.102 NA
HETATM   22  C9  UNL     1     -15.772  26.299  -2.033  1.00  0.00     0.028 A
HETATM   23  C10 UNL     1     -16.918  26.006  -1.310  1.00  0.00     0.027 A
ENDBRANCH  14  17
ENDBRANCH  12  14
ENDBRANCH   9  12
TORSDOF 4
ENDMDL