MODEL 4
REMARK VINA RESULT: -6.997076145      2.028      2.454
REMARK  3 active torsions:
REMARK  status: ('A' for Active; 'I' for Inactive)
REMARK    1  A    between atoms: C6_7  and  S1_8
REMARK    2  A    between atoms: S1_8  and  N2_11
REMARK    3  A    between atoms: N2_11  and  C7_13
ROOT
HETATM    1  S1  UNL     1     -17.374  23.948  -2.395  1.00  0.00     0.266 S
HETATM    2  O1  UNL     1     -17.785  23.100  -3.576  1.00  0.00    -0.200 OA
HETATM    3  O2  UNL     1     -16.486  23.053  -1.549  1.00  0.00    -0.200 OA
ENDROOT
BRANCH   1   4
HETATM    4  C6  UNL     1     -16.259  25.215  -2.978  1.00  0.00     0.103 A
HETATM    5  C1  UNL     1     -16.821  26.324  -3.558  1.00  0.00     0.069 A
HETATM    6  N1  UNL     1     -18.222  26.451  -3.686  1.00  0.00    -0.101 NA
HETATM    7  C2  UNL     1     -16.009  27.348  -4.033  1.00  0.00     0.028 A
HETATM    8  C3  UNL     1     -14.635  27.261  -3.926  1.00  0.00     0.002 A
HETATM    9  C4  UNL     1     -14.099  26.131  -3.337  1.00  0.00     0.002 A
HETATM   10  C5  UNL     1     -14.904  25.112  -2.864  1.00  0.00     0.027 A
ENDBRANCH   1   4
BRANCH   1  11
HETATM   11  N2  UNL     1     -18.615  24.701  -1.608  1.00  0.00    -0.264 N
ATOM     12  H2  UNL     1     -19.060  25.369  -2.237  1.00  0.00     0.180 HD
BRANCH  11  13
HETATM   13  C7  UNL     1     -19.186  24.726  -0.512  1.00  0.00     0.139 A
HETATM   14  N3  UNL     1     -18.959  23.704   0.393  1.00  0.00    -0.350 N
HETATM   15  C8  UNL     1     -19.538  23.663   1.594  1.00  0.00     0.090 A
ATOM     16  H3  UNL     1     -18.323  22.952   0.131  1.00  0.00     0.166 HD
HETATM   17  C9  UNL     1     -20.410  24.625   2.046  1.00  0.00     0.019 A
HETATM   18  C10 UNL     1     -20.667  25.659   1.184  1.00  0.00     0.032 A
HETATM   19  C11 UNL     1     -20.051  25.690  -0.078  1.00  0.00     0.091 A
HETATM   20  N4  UNL     1     -20.374  26.804  -0.919  1.00  0.00    -0.098 NA
ENDBRANCH  11  13
ENDBRANCH   1  11
TORSDOF 3
ENDMDL