MODEL 3
REMARK VINA RESULT: -6.842913636      2.366      4.125
REMARK  3 active torsions:
REMARK  status: ('A' for Active; 'I' for Inactive)
REMARK    1  A    between atoms: C3_4  and  C4_5
REMARK    2  A    between atoms: C9_13  and  C10_14
REMARK    3  A    between atoms: N6_23  and  O2_24
ROOT
HETATM    1  N1  UNL     1     -18.989  22.877   3.267  1.00  0.00    -0.190 NA
HETATM    2  C1  UNL     1     -19.262  23.674   2.459  1.00  0.00     0.123 C
HETATM    3  C2  UNL     1     -19.610  24.645   1.465  1.00  0.00     0.175 A
HETATM    4  C3  UNL     1     -18.928  24.918   0.274  1.00  0.00     0.063 A
HETATM    5  C9  UNL     1     -19.585  25.920  -0.405  1.00  0.00     0.094 A
HETATM    6  N5  UNL     1     -20.653  26.238   0.385  1.00  0.00    -0.270 N
ATOM      7  H5  UNL     1     -21.348  26.953   0.168  1.00  0.00     0.189 HD
HETATM    8  N6  UNL     1     -20.656  25.487   1.473  1.00  0.00    -0.151 N
ENDROOT
BRANCH   4   9
HETATM    9  C4  UNL     1     -17.731  24.218  -0.120  1.00  0.00     0.050 A
HETATM   10  C5  UNL     1     -16.464  24.756  -0.112  1.00  0.00     0.031 A
HETATM   11  C6  UNL     1     -15.355  24.020  -0.501  1.00  0.00     0.008 A
HETATM   12  C7  UNL     1     -15.560  22.731  -0.899  1.00  0.00     0.074 A
HETATM   13  C8  UNL     1     -16.819  22.175  -0.914  1.00  0.00     0.245 A
HETATM   14  O1  UNL     1     -16.952  20.972  -1.292  1.00  0.00    -0.268 OA
HETATM   15  N2  UNL     1     -17.845  22.928  -0.530  1.00  0.00    -0.323 N
ATOM     16  H2  UNL     1     -18.776  22.510  -0.543  1.00  0.00     0.169 HD
ENDBRANCH   4   9
BRANCH   8  17
HETATM   17  O2  UNL     1     -21.623  25.581   2.466  1.00  0.00    -0.267 OA
ATOM     18  H2  UNL     1     -22.410  26.113   2.432  1.00  0.00     0.247 HD
ENDBRANCH   8  17
BRANCH   5  19
HETATM   19  C10 UNL     1     -19.224  26.518  -1.682  1.00  0.00     0.078 A
HETATM   20  C11 UNL     1     -18.449  27.653  -1.862  1.00  0.00     0.052 A
HETATM   21  C12 UNL     1     -18.323  27.920  -3.210  1.00  0.00     0.109 A
HETATM   22  N3  UNL     1     -19.025  26.939  -3.823  1.00  0.00    -0.311 N
HETATM   23  N4  UNL     1     -19.547  26.126  -2.924  1.00  0.00    -0.299 N
ATOM     24  H3  UNL     1     -19.134  26.842  -4.832  1.00  0.00     0.186 HD
ATOM     25  H4  UNL     1     -20.119  25.310  -3.143  1.00  0.00     0.187 HD
ENDBRANCH   5  19
TORSDOF 3
ENDMDL