MODEL 5
REMARK VINA RESULT: -7.066755656      1.276      1.642
REMARK  2 active torsions:
REMARK  status: ('A' for Active; 'I' for Inactive)
REMARK    1  A    between atoms: C6_7  and  C7_8
REMARK    2  A    between atoms: N4_22  and  O2_23
ROOT
HETATM    1  C7  UNL     1     -18.611  25.735  -0.226  1.00  0.00     0.060 A
HETATM    2  C8  UNL     1     -17.905  24.891   0.289  1.00  0.00     0.037 A
HETATM    3  C9  UNL     1     -16.838  23.948   0.540  1.00  0.00     0.041 C
HETATM    4  C10 UNL     1     -16.914  22.650   0.650  1.00  0.00     0.045 C
HETATM    5  C11 UNL     1     -15.540  22.315   1.098  1.00  0.00     0.059 C
HETATM    6  C12 UNL     1     -15.522  22.552   2.702  1.00  0.00     0.037 C
HETATM    7  C13 UNL     1     -16.875  23.176   2.871  1.00  0.00     0.031 C
HETATM    8  C14 UNL     1     -18.077  22.861   2.524  1.00  0.00     0.164 C
HETATM    9  N2  UNL     1     -18.760  24.121   2.871  1.00  0.00    -0.321 N
ATOM     10  H2  UNL     1     -19.026  24.381   3.821  1.00  0.00     0.169 HD
HETATM   11  C15 UNL     1     -19.031  25.019   1.602  1.00  0.00     0.120 A
HETATM   12  N3  UNL     1     -19.518  25.816   0.863  1.00  0.00    -0.340 N
ATOM     13  H3  UNL     1     -20.351  26.393   0.980  1.00  0.00     0.167 HD
HETATM   14  O1  UNL     1     -18.501  21.648   1.957  1.00  0.00    -0.214 OA
HETATM   15  N4  UNL     1     -17.944  21.607   0.526  1.00  0.00    -0.031 NA
ENDROOT
BRANCH   1  16
HETATM   16  C6  UNL     1     -18.221  26.277  -1.540  1.00  0.00     0.016 A
HETATM   17  C1  UNL     1     -19.159  26.975  -2.207  1.00  0.00     0.059 A
HETATM   18  N1  UNL     1     -20.477  27.173  -1.673  1.00  0.00    -0.102 NA
HETATM   19  C2  UNL     1     -18.821  27.506  -3.433  1.00  0.00     0.027 A
HETATM   20  C3  UNL     1     -17.574  27.346  -3.991  1.00  0.00     0.002 A
HETATM   21  C4  UNL     1     -16.619  26.624  -3.290  1.00  0.00     0.001 A
HETATM   22  C5  UNL     1     -16.966  26.098  -2.065  1.00  0.00     0.015 A
ENDBRANCH   1  16
BRANCH  15  23
HETATM   23  O2  UNL     1     -17.638  20.415   0.248  1.00  0.00    -0.284 OA
ATOM     24  H2  UNL     1     -16.801  20.200  -0.149  1.00  0.00     0.240 HD
ENDBRANCH  15  23
TORSDOF 2
ENDMDL