MODEL 1
REMARK VINA RESULT: -7.041356296      0.000      0.000
REMARK  3 active torsions:
REMARK  status: ('A' for Active; 'I' for Inactive)
REMARK    1  A    between atoms: N1_1  and  C1_4
REMARK    2  A    between atoms: C2_5  and  S1_6
REMARK    3  A    between atoms: S1_6  and  C3_9
ROOT
HETATM    1  C1  UNL     1     -19.270  25.671  -1.357  1.00  0.00     0.119 A
HETATM    2  C2  UNL     1     -18.178  24.930  -1.023  1.00  0.00     0.112 A
HETATM    3  C9  UNL     1     -17.928  24.652   0.335  1.00  0.00     0.133 A
HETATM    4  N2  UNL     1     -18.775  25.129   1.234  1.00  0.00    -0.307 N
ATOM      5  H2  UNL     1     -18.594  24.928   2.217  1.00  0.00     0.186 HD
HETATM    6  N3  UNL     1     -19.839  25.847   0.936  1.00  0.00    -0.265 N
ATOM      7  H3  UNL     1     -20.452  26.184   1.678  1.00  0.00     0.190 HD
HETATM    8  C10 UNL     1     -20.111  26.133  -0.338  1.00  0.00     0.287 A
HETATM    9  O3  UNL     1     -21.126  26.823  -0.662  1.00  0.00    -0.264 OA
ENDROOT
BRANCH   2  10
HETATM   10  S1  UNL     1     -17.128  24.264  -2.211  1.00  0.00     0.210 S
HETATM   11  O1  UNL     1     -16.291  23.122  -1.657  1.00  0.00    -0.217 OA
HETATM   12  O2  UNL     1     -17.967  23.649  -3.316  1.00  0.00    -0.217 OA
BRANCH  10  13
HETATM   13  C3  UNL     1     -16.042  25.386  -2.966  1.00  0.00     0.064 A
HETATM   14  C4  UNL     1     -14.666  25.120  -2.976  1.00  0.00     0.024 A
HETATM   15  C5  UNL     1     -13.729  25.947  -3.519  1.00  0.00     0.002 A
HETATM   16  C6  UNL     1     -14.187  27.122  -4.093  1.00  0.00     0.000 A
HETATM   17  C7  UNL     1     -15.531  27.403  -4.093  1.00  0.00     0.002 A
HETATM   18  C8  UNL     1     -16.455  26.557  -3.542  1.00  0.00     0.024 A
ENDBRANCH  10  13
ENDBRANCH   2  10
BRANCH   1  19
HETATM   19  N1  UNL     1     -19.573  26.029  -2.542  1.00  0.00    -0.393 N
ATOM     20  H12 UNL     1     -18.793  26.194  -3.177  1.00  0.00     0.156 HD
ATOM     21  H11 UNL     1     -20.525  26.123  -2.898  1.00  0.00     0.156 HD
ENDBRANCH   1  19
TORSDOF 3
ENDMDL