MODEL 1
REMARK VINA RESULT: -6.579076207      0.000      0.000
REMARK  4 active torsions:
REMARK  status: ('A' for Active; 'I' for Inactive)
REMARK    1  A    between atoms: C4_7  and  N3_8
REMARK    2  A    between atoms: N3_8  and  C5_10
REMARK    3  A    between atoms: C8_13  and  S1_14
REMARK    4  A    between atoms: S1_14  and  N4_15
ROOT
HETATM    1  N1  UNL     1     -13.230  22.137  -8.168  1.00  0.00    -0.190 NA
HETATM    2  C1  UNL     1     -13.175  23.125  -7.589  1.00  0.00     0.119 C
HETATM    3  C2  UNL     1     -13.090  24.363  -6.879  1.00  0.00     0.145 A
HETATM    4  C3  UNL     1     -12.834  25.621  -7.378  1.00  0.00     0.147 A
HETATM    5  N2  UNL     1     -12.843  26.514  -6.374  1.00  0.00    -0.199 N
ATOM      6  H2  UNL     1     -12.684  27.518  -6.452  1.00  0.00     0.183 HD
HETATM    7  C4  UNL     1     -13.102  25.831  -5.251  1.00  0.00     0.683 A
HETATM    8  N5  UNL     1     -13.253  24.523  -5.558  1.00  0.00    -0.180 N
ATOM      9  H5  UNL     1     -13.457  23.778  -4.892  1.00  0.00     0.185 HD
ENDROOT
BRANCH   7  10
HETATM   10  N3  UNL     1     -13.189  26.352  -4.085  1.00  0.00    -0.192 N
ATOM     11  H3  UNL     1     -12.343  26.661  -3.607  1.00  0.00     0.184 HD
BRANCH  10  12
HETATM   12  C5  UNL     1     -14.451  26.506  -3.448  1.00  0.00     0.049 A
HETATM   13  C6  UNL     1     -14.689  26.018  -2.180  1.00  0.00     0.031 A
HETATM   14  C7  UNL     1     -15.917  26.170  -1.565  1.00  0.00     0.027 A
HETATM   15  C8  UNL     1     -16.970  26.821  -2.193  1.00  0.00     0.079 A
HETATM   16  C9  UNL     1     -16.730  27.308  -3.460  1.00  0.00     0.027 A
HETATM   17  C10 UNL     1     -15.504  27.155  -4.073  1.00  0.00     0.031 A
BRANCH  15  18
HETATM   18  S1  UNL     1     -18.531  27.020  -1.427  1.00  0.00     0.256 S
HETATM   19  O1  UNL     1     -18.611  26.186  -0.165  1.00  0.00    -0.201 OA
HETATM   20  O2  UNL     1     -18.775  28.442  -1.026  1.00  0.00    -0.201 OA
BRANCH  18  21
HETATM   21  N4  UNL     1     -19.814  26.464  -2.457  1.00  0.00    -0.324 N
ATOM     22  H42 UNL     1     -19.661  25.903  -3.296  1.00  0.00     0.169 HD
ATOM     23  H41 UNL     1     -20.725  26.770  -2.112  1.00  0.00     0.169 HD
ENDBRANCH  18  21
ENDBRANCH  15  18
ENDBRANCH  10  12
ENDBRANCH   7  10
TORSDOF 4
ENDMDL