MODEL 1
REMARK VINA RESULT: -7.724859410      0.000      0.000
REMARK  3 active torsions:
REMARK  status: ('A' for Active; 'I' for Inactive)
REMARK    1  A    between atoms: S1_2  and  N1_4
REMARK    2  A    between atoms: S1_2  and  C4_13
REMARK    3  A    between atoms: N1_4  and  C1_6
ROOT
HETATM    1  C4  UNL     1     -18.844  26.550  -2.383  1.00  0.00     0.178 A
HETATM    2  N4  UNL     1     -19.171  27.052  -3.561  1.00  0.00    -0.286 N
ATOM      3  H4  UNL     1     -20.127  27.248  -3.859  1.00  0.00     0.188 HD
HETATM    4  N5  UNL     1     -18.109  27.265  -4.296  1.00  0.00    -0.284 N
ATOM      5  H5  UNL     1     -18.105  27.648  -5.241  1.00  0.00     0.188 HD
HETATM    6  C5  UNL     1     -17.027  26.894  -3.592  1.00  0.00     0.133 A
HETATM    7  N6  UNL     1     -15.719  26.912  -3.896  1.00  0.00    -0.351 N
ATOM      8  H6  UNL     1     -15.395  27.252  -4.801  1.00  0.00     0.166 HD
HETATM    9  C6  UNL     1     -14.857  26.474  -2.981  1.00  0.00     0.090 A
HETATM   10  C7  UNL     1     -15.214  26.002  -1.747  1.00  0.00     0.018 A
HETATM   11  C8  UNL     1     -16.554  25.978  -1.421  1.00  0.00     0.020 A
HETATM   12  C9  UNL     1     -17.462  26.433  -2.367  1.00  0.00     0.051 A
ENDROOT
BRANCH   1  13
HETATM   13  S1  UNL     1     -19.844  26.081  -1.029  1.00  0.00     0.282 S
HETATM   14  O1  UNL     1     -20.336  24.659  -1.267  1.00  0.00    -0.199 OA
HETATM   15  O2  UNL     1     -21.055  26.935  -0.905  1.00  0.00    -0.199 OA
BRANCH  13  16
HETATM   16  N1  UNL     1     -18.897  26.055   0.394  1.00  0.00    -0.263 N
ATOM     17  H1  UNL     1     -18.045  26.616   0.435  1.00  0.00     0.180 HD
BRANCH  16  18
HETATM   18  C1  UNL     1     -19.230  25.344   1.418  1.00  0.00     0.130 A
HETATM   19  C2  UNL     1     -18.424  24.508   2.151  1.00  0.00     0.069 A
HETATM   20  C3  UNL     1     -19.195  23.957   3.145  1.00  0.00     0.111 A
HETATM   21  N2  UNL     1     -20.429  24.469   2.985  1.00  0.00    -0.310 N
HETATM   22  N3  UNL     1     -20.478  25.299   1.963  1.00  0.00    -0.285 N
ATOM     23  H2  UNL     1     -21.226  24.244   3.580  1.00  0.00     0.186 HD
ATOM     24  H3  UNL     1     -21.298  25.812   1.640  1.00  0.00     0.188 HD
ENDBRANCH  16  18
ENDBRANCH  13  16
ENDBRANCH   1  13
TORSDOF 3
ENDMDL