MODEL 1
REMARK VINA RESULT: -6.476327685      0.000      0.000
REMARK  3 active torsions:
REMARK  status: ('A' for Active; 'I' for Inactive)
REMARK    1  A    between atoms: C5_11  and  C6_12
REMARK    2  A    between atoms: C9_15  and  S1_16
REMARK    3  A    between atoms: S1_16  and  N3_17
ROOT
HETATM    1  C1  UNL     1     -15.061  22.306  -4.345  1.00  0.00     0.019 C
HETATM    2  C2  UNL     1     -14.453  23.302  -4.681  1.00  0.00    -0.057 C
HETATM    3  C3  UNL     1     -13.709  24.470  -5.056  1.00  0.00     0.122 A
HETATM    4  N1  UNL     1     -12.611  24.491  -5.857  1.00  0.00    -0.250 N
ATOM      5  H1  UNL     1     -12.184  23.677  -6.299  1.00  0.00     0.195 HD
HETATM    6  O1  UNL     1     -12.186  25.731  -5.969  1.00  0.00    -0.218 OA
HETATM    7  C4  UNL     1     -12.980  26.523  -5.262  1.00  0.00     0.178 A
HETATM    8  N2  UNL     1     -12.848  27.797  -5.154  1.00  0.00    -0.377 N
ATOM      9  H21 UNL     1     -13.459  28.407  -4.609  1.00  0.00     0.158 HD
ATOM     10  H22 UNL     1     -12.122  28.360  -5.597  1.00  0.00     0.158 HD
HETATM   11  C5  UNL     1     -13.960  25.764  -4.665  1.00  0.00     0.064 A
ENDROOT
BRANCH  11  12
HETATM   12  C6  UNL     1     -15.069  26.162  -3.813  1.00  0.00    -0.019 A
HETATM   13  C7  UNL     1     -16.222  26.660  -4.397  1.00  0.00     0.014 A
HETATM   14  C8  UNL     1     -17.301  27.042  -3.645  1.00  0.00     0.026 A
HETATM   15  C9  UNL     1     -17.292  26.950  -2.282  1.00  0.00     0.079 A
HETATM   16  C10 UNL     1     -16.129  26.449  -1.711  1.00  0.00     0.026 A
HETATM   17  C11 UNL     1     -15.026  26.056  -2.437  1.00  0.00     0.014 A
BRANCH  15  18
HETATM   18  S1  UNL     1     -18.664  27.446  -1.337  1.00  0.00     0.256 S
HETATM   19  O2  UNL     1     -19.833  27.627  -2.270  1.00  0.00    -0.201 OA
HETATM   20  O3  UNL     1     -18.357  28.786  -0.682  1.00  0.00    -0.201 OA
BRANCH  18  21
HETATM   21  N3  UNL     1     -19.091  26.364  -0.109  1.00  0.00    -0.324 N
ATOM     22  H32 UNL     1     -18.971  25.356  -0.210  1.00  0.00     0.169 HD
ATOM     23  H31 UNL     1     -19.471  26.807   0.727  1.00  0.00     0.169 HD
ENDBRANCH  18  21
ENDBRANCH  15  18
ENDBRANCH  11  12
TORSDOF 3
ENDMDL