MODEL 2
REMARK VINA RESULT: -7.286125777      0.963      1.705
REMARK  3 active torsions:
REMARK  status: ('A' for Active; 'I' for Inactive)
REMARK    1  A    between atoms: S1_2  and  N1_4
REMARK    2  A    between atoms: S1_2  and  C5_18
REMARK    3  A    between atoms: N1_4  and  C1_6
ROOT
HETATM    1  C1  UNL     1     -19.861  25.685  -0.249  1.00  0.00     0.145 A
HETATM    2  N2  UNL     1     -20.974  26.211   0.342  1.00  0.00    -0.282 N
ATOM      3  H2  UNL     1     -21.674  26.790  -0.123  1.00  0.00     0.188 HD
HETATM    4  N3  UNL     1     -20.998  25.854   1.595  1.00  0.00    -0.282 N
ATOM      5  H3  UNL     1     -21.733  26.122   2.249  1.00  0.00     0.188 HD
HETATM    6  C2  UNL     1     -19.942  25.091   1.928  1.00  0.00     0.150 A
HETATM    7  N4  UNL     1     -19.272  24.395   2.849  1.00  0.00    -0.284 N
ATOM      8  H4  UNL     1     -19.557  24.286   3.822  1.00  0.00     0.188 HD
HETATM    9  N5  UNL     1     -18.186  23.870   2.315  1.00  0.00    -0.309 N
ATOM     10  H5  UNL     1     -17.502  23.295   2.806  1.00  0.00     0.186 HD
HETATM   11  C3  UNL     1     -18.127  24.220   1.007  1.00  0.00     0.126 A
HETATM   12  C4  UNL     1     -19.218  24.988   0.735  1.00  0.00     0.073 A
ENDROOT
BRANCH   1  13
HETATM   13  N1  UNL     1     -19.595  25.880  -1.471  1.00  0.00    -0.264 N
ATOM     14  H1  UNL     1     -19.841  25.123  -2.108  1.00  0.00     0.180 HD
BRANCH  13  15
HETATM   15  S1  UNL     1     -18.881  27.245  -2.178  1.00  0.00     0.265 S
HETATM   16  O1  UNL     1     -19.505  27.671  -3.465  1.00  0.00    -0.200 OA
HETATM   17  O2  UNL     1     -18.875  28.363  -1.146  1.00  0.00    -0.200 OA
BRANCH  15  18
HETATM   18  C5  UNL     1     -17.178  26.931  -2.541  1.00  0.00     0.095 A
HETATM   19  C6  UNL     1     -16.579  27.302  -3.709  1.00  0.00     0.028 A
HETATM   20  C7  UNL     1     -15.236  27.006  -3.891  1.00  0.00     0.019 A
HETATM   21  C8  UNL     1     -14.489  26.352  -2.935  1.00  0.00     0.087 A
HETATM   22  N6  UNL     1     -15.106  25.998  -1.797  1.00  0.00    -0.374 N
HETATM   23  C9  UNL     1     -16.420  26.279  -1.599  1.00  0.00     0.112 A
ATOM     24  H6  UNL     1     -14.581  25.512  -1.071  1.00  0.00     0.164 HD
ENDBRANCH  15  18
ENDBRANCH  13  15
ENDBRANCH   1  13
TORSDOF 3
ENDMDL