MODEL 5
REMARK VINA RESULT: -6.859821762      5.341      7.348
REMARK  4 active torsions:
REMARK  status: ('A' for Active; 'I' for Inactive)
REMARK    1  A    between atoms: N1_2  and  C2_4
REMARK    2  A    between atoms: C3_7  and  N3_8
REMARK    3  A    between atoms: C5_14  and  N6_15
REMARK    4  A    between atoms: N6_15  and  C6_17
ROOT
HETATM    1  N3  UNL     1      84.807  96.009  18.035  1.00  0.00    -0.125 N
ATOM      2  H3  UNL     1      84.338  95.109  17.930  1.00  0.00     0.197 HD
HETATM    3  C4  UNL     1      85.870  96.334  17.200  1.00  0.00     0.196 C
HETATM    4  N4  UNL     1      86.768  96.604  16.513  1.00  0.00    -0.171 NA
ENDROOT
BRANCH   1   5
HETATM    5  C3  UNL     1      84.405  96.843  18.948  1.00  0.00     0.720 A
HETATM    6  N2  UNL     1      85.275  97.350  19.832  1.00  0.00    -0.021 N
HETATM    7  C2  UNL     1      84.890  98.213  20.787  1.00  0.00     0.706 A
ATOM      8  H2  UNL     1      86.256  97.073  19.779  1.00  0.00     0.203 HD
HETATM    9  N7  UNL     1      83.579  98.562  20.834  1.00  0.00    -0.021 N
HETATM   10  C5  UNL     1      82.674  98.081  19.972  1.00  0.00     0.711 A
ATOM     11  H7  UNL     1      83.271  99.217  21.554  1.00  0.00     0.203 HD
HETATM   12  N5  UNL     1      83.106  97.220  19.033  1.00  0.00    -0.020 N
ATOM     13  H5  UNL     1      82.436  96.840  18.365  1.00  0.00     0.203 HD
BRANCH   7  14
HETATM   14  N1  UNL     1      85.763  98.680  21.621  1.00  0.00    -0.229 N
HETATM   15  C1  UNL     1      85.858  98.301  22.990  1.00  0.00     0.165 C
ATOM     16  H1  UNL     1      86.430  99.368  21.272  1.00  0.00     0.177 HD
ENDBRANCH   7  14
BRANCH  10  17
HETATM   17  N6  UNL     1      81.459  98.433  20.051  1.00  0.00    -0.191 N
ATOM     18  H6  UNL     1      80.858  97.860  20.642  1.00  0.00     0.184 HD
BRANCH  17  19
HETATM   19  C6  UNL     1      80.852  99.523  19.415  1.00  0.00     0.049 A
HETATM   20  C7  UNL     1      80.772 100.748  20.049  1.00  0.00     0.030 A
HETATM   21  C8  UNL     1      80.202 101.860  19.509  1.00  0.00     0.002 A
HETATM   22  C9  UNL     1      79.665 101.749  18.228  1.00  0.00     0.000 A
HETATM   23  C10 UNL     1      79.719 100.543  17.550  1.00  0.00     0.002 A
HETATM   24  C11 UNL     1      80.314  99.433  18.146  1.00  0.00     0.030 A
ENDBRANCH  17  19
ENDBRANCH  10  17
ENDBRANCH   1   5
TORSDOF 4
ENDMDL