MODEL 2
REMARK VINA RESULT: -7.351729091      2.452      6.002
REMARK  3 active torsions:
REMARK  status: ('A' for Active; 'I' for Inactive)
REMARK    1  A    between atoms: N1_1  and  C1_5
REMARK    2  A    between atoms: C1_5  and  C2_6
REMARK    3  A    between atoms: C1_5  and  C7_18
ROOT
HETATM    1  C2  UNL     1      83.314  95.341  16.682  1.00  0.00     0.033 C
HETATM    2  C3  UNL     1      83.884  95.001  15.553  1.00  0.00     0.099 A
HETATM    3  C4  UNL     1      83.077  94.360  14.484  1.00  0.00     0.264 A
HETATM    4  O1  UNL     1      81.841  94.144  14.666  1.00  0.00    -0.267 OA
HETATM    5  N2  UNL     1      83.640  93.972  13.240  1.00  0.00    -0.275 N
ATOM      6  H2  UNL     1      83.053  93.535  12.529  1.00  0.00     0.173 HD
HETATM    7  C5  UNL     1      85.004  94.191  12.988  1.00  0.00     0.329 A
HETATM    8  O2  UNL     1      85.493  93.841  11.878  1.00  0.00    -0.246 OA
HETATM    9  N3  UNL     1      85.824  94.793  13.962  1.00  0.00    -0.275 N
ATOM     10  H3  UNL     1      86.814  94.949  13.774  1.00  0.00     0.173 HD
HETATM   11  C6  UNL     1      85.268  95.180  15.198  1.00  0.00     0.264 A
HETATM   12  O3  UNL     1      86.036  95.710  16.027  1.00  0.00    -0.267 OA
ENDROOT
BRANCH   1  13
HETATM   13  C1  UNL     1      83.827  95.960  17.868  1.00  0.00     0.240 C
BRANCH  13  14
HETATM   14  N1  UNL     1      83.800  94.978  18.973  1.00  0.00    -0.068 N
ATOM     15  H13 UNL     1      83.153  95.245  19.715  1.00  0.00     0.275 HD
ATOM     16  H12 UNL     1      83.355  94.101  18.704  1.00  0.00     0.275 HD
ATOM     17  H11 UNL     1      84.751  94.841  19.318  1.00  0.00     0.275 HD
ENDBRANCH  13  14
BRANCH  13  18
HETATM   18  C7  UNL     1      82.840  97.014  18.307  1.00  0.00    -0.024 A
HETATM   19  C8  UNL     1      81.710  97.290  17.565  1.00  0.00     0.009 A
HETATM   20  C9  UNL     1      80.836  98.258  18.003  1.00  0.00     0.001 A
HETATM   21  C10 UNL     1      81.072  98.952  19.163  1.00  0.00     0.000 A
HETATM   22  C11 UNL     1      82.197  98.686  19.914  1.00  0.00     0.001 A
HETATM   23  C12 UNL     1      83.072  97.721  19.482  1.00  0.00     0.009 A
ENDBRANCH  13  18
ENDBRANCH   1  13
TORSDOF 3
ENDMDL