MODEL 4
REMARK VINA RESULT: -6.353320299      1.649      2.870
REMARK  3 active torsions:
REMARK  status: ('A' for Active; 'I' for Inactive)
REMARK    1  A    between atoms: C9_11  and  C10_12
REMARK    2  A    between atoms: C11_13  and  O1_14
REMARK    3  A    between atoms: N2_16  and  C12_17
ROOT
HETATM    1  C10 UNL     1      83.519  95.696  17.064  1.00  0.00     0.112 C
HETATM    2  C11 UNL     1      83.040  96.688  17.751  1.00  0.00     0.190 C
HETATM    3  N2  UNL     1      83.864  96.859  18.944  1.00  0.00    -0.212 N
HETATM    4  N4  UNL     1      85.105  96.265  18.646  1.00  0.00    -0.012 NA
HETATM    5  N5  UNL     1      84.574  95.159  17.916  1.00  0.00    -0.279 N
ATOM      6  H5  UNL     1      84.873  94.185  17.979  1.00  0.00     0.184 HD
ENDROOT
BRANCH   1   7
HETATM    7  C9  UNL     1      83.140  95.060  15.819  1.00  0.00     0.034 A
HETATM    8  C2  UNL     1      84.109  94.807  14.726  1.00  0.00     0.036 A
HETATM    9  C1  UNL     1      85.407  94.952  14.662  1.00  0.00     0.044 C
HETATM   10  N1  UNL     1      83.330  94.367  13.629  1.00  0.00    -0.355 N
HETATM   11  C3  UNL     1      82.114  94.365  14.011  1.00  0.00     0.043 A
ATOM     12  H1  UNL     1      83.676  94.102  12.707  1.00  0.00     0.166 HD
HETATM   13  C4  UNL     1      81.028  93.992  13.235  1.00  0.00     0.030 A
HETATM   14  C8  UNL     1      81.946  94.766  15.308  1.00  0.00     0.005 A
HETATM   15  C5  UNL     1      79.755  94.002  13.723  1.00  0.00     0.002 A
HETATM   16  C6  UNL     1      79.591  94.399  15.029  1.00  0.00     0.001 A
HETATM   17  C7  UNL     1      80.652  94.777  15.825  1.00  0.00     0.014 A
ENDBRANCH   1   7
BRANCH   2  18
HETATM   18  O1  UNL     1      81.951  97.547  17.542  1.00  0.00    -0.343 OA
ATOM     19  H1  UNL     1      81.893  98.473  17.343  1.00  0.00     0.219 HD
ENDBRANCH   2  18
BRANCH   3  20
HETATM   20  C12 UNL     1      83.465  97.499  20.141  1.00  0.00     0.200 C
HETATM   21  N3  UNL     1      82.916  98.663  20.123  1.00  0.00    -0.394 N
ATOM     22  H32 UNL     1      82.773  99.118  19.222  1.00  0.00     0.156 HD
ATOM     23  H31 UNL     1      82.628  99.124  20.986  1.00  0.00     0.156 HD
ENDBRANCH   3  20
TORSDOF 3
ENDMDL