MODEL 3
REMARK VINA RESULT: -6.434507267      2.698      7.470
REMARK  5 active torsions:
REMARK  status: ('A' for Active; 'I' for Inactive)
REMARK    1  A    between atoms: C2_2  and  N1_3
REMARK    2  A    between atoms: N1_3  and  C3_5
REMARK    3  A    between atoms: C5_9  and  N3_10
REMARK    4  A    between atoms: N3_10  and  C6_12
REMARK    5  A    between atoms: N7_22  and  O1_23
ROOT
HETATM    1  C3  UNL     1      85.002  95.429  16.869  1.00  0.00     0.720 A
HETATM    2  N2  UNL     1      83.818  95.114  17.424  1.00  0.00    -0.195 N
ATOM      3  H2  UNL     1      83.247  94.364  17.035  1.00  0.00     0.183 HD
HETATM    4  C4  UNL     1      83.396  95.803  18.500  1.00  0.00     0.156 A
HETATM    5  C5  UNL     1      84.138  96.832  19.062  1.00  0.00     0.140 A
HETATM    6  N6  UNL     1      85.316  97.112  18.475  1.00  0.00    -0.242 N
ATOM      7  H6  UNL     1      85.899  97.859  18.853  1.00  0.00     0.192 HD
HETATM    8  N7  UNL     1      85.732  96.436  17.417  1.00  0.00     0.018 N
ENDROOT
BRANCH   5   9
HETATM    9  N3  UNL     1      83.669  97.550  20.206  1.00  0.00    -0.325 N
ATOM     10  H3  UNL     1      82.680  97.756  20.340  1.00  0.00     0.169 HD
BRANCH   9  11
HETATM   11  C6  UNL     1      84.561  97.925  21.060  1.00  0.00     0.123 A
HETATM   12  C7  UNL     1      84.527  97.519  22.395  1.00  0.00     0.075 A
HETATM   13  C8  UNL     1      85.628  98.117  22.986  1.00  0.00     0.025 A
HETATM   14  C9  UNL     1      85.988  97.958  24.414  1.00  0.00     0.070 C
HETATM   15  N4  UNL     1      86.277  98.834  22.057  1.00  0.00    -0.304 N
HETATM   16  N5  UNL     1      85.631  98.710  20.922  1.00  0.00    -0.285 N
ATOM     17  H4  UNL     1      87.126  99.381  22.208  1.00  0.00     0.186 HD
ATOM     18  H5  UNL     1      85.911  99.155  20.047  1.00  0.00     0.188 HD
ENDBRANCH   9  11
ENDBRANCH   5   9
BRANCH   8  19
HETATM   19  O1  UNL     1      86.955  96.745  16.826  1.00  0.00    -0.254 OA
ATOM     20  H1  UNL     1      86.997  96.758  15.877  1.00  0.00     0.247 HD
ENDBRANCH   8  19
BRANCH   1  21
HETATM   21  N1  UNL     1      85.477  94.819  15.839  1.00  0.00    -0.223 N
ATOM     22  H1  UNL     1      86.349  94.296  15.918  1.00  0.00     0.177 HD
BRANCH  21  23
HETATM   23  C2  UNL     1      84.791  94.868  14.585  1.00  0.00     0.134 C
HETATM   24  C1  UNL     1      85.486  93.902  13.620  1.00  0.00     0.027 C
ENDBRANCH  21  23
ENDBRANCH   1  21
TORSDOF 5
ENDMDL