MODEL 5
REMARK VINA RESULT: -6.524974788      2.470      3.444
REMARK  4 active torsions:
REMARK  status: ('A' for Active; 'I' for Inactive)
REMARK    1  A    between atoms: N1_2  and  C2_4
REMARK    2  A    between atoms: C4_11  and  N4_12
REMARK    3  A    between atoms: N4_12  and  C5_14
REMARK    4  A    between atoms: C9_18  and  C10_19
ROOT
HETATM    1  C2  UNL     1      84.835  98.150  20.160  1.00  0.00     0.696 A
HETATM    2  N2  UNL     1      83.585  98.583  20.122  1.00  0.00    -0.140 N
ATOM      3  H2  UNL     1      83.312  99.395  20.677  1.00  0.00     0.189 HD
HETATM    4  C3  UNL     1      82.676  97.961  19.359  1.00  0.00     0.352 A
HETATM    5  O1  UNL     1      81.494  98.393  19.340  1.00  0.00    -0.246 OA
HETATM    6  N3  UNL     1      83.049  96.879  18.621  1.00  0.00    -0.140 N
ATOM      7  H3  UNL     1      82.356  96.406  18.041  1.00  0.00     0.189 HD
HETATM    8  C4  UNL     1      84.308  96.423  18.644  1.00  0.00     0.701 A
HETATM    9  N5  UNL     1      85.196  97.066  19.417  1.00  0.00    -0.022 N
ATOM     10  H5  UNL     1      86.160  96.737  19.450  1.00  0.00     0.203 HD
ENDROOT
BRANCH   8  11
HETATM   11  N4  UNL     1      84.694  95.411  17.964  1.00  0.00    -0.191 N
ATOM     12  H4  UNL     1      85.394  94.800  18.386  1.00  0.00     0.184 HD
BRANCH  11  13
HETATM   13  C5  UNL     1      84.227  95.074  16.676  1.00  0.00     0.050 A
HETATM   14  C6  UNL     1      82.886  95.078  16.349  1.00  0.00     0.030 A
HETATM   15  C7  UNL     1      82.402  94.755  15.106  1.00  0.00     0.003 A
HETATM   16  C8  UNL     1      83.302  94.402  14.111  1.00  0.00     0.014 A
HETATM   17  C9  UNL     1      84.660  94.387  14.403  1.00  0.00     0.004 A
HETATM   18  C11 UNL     1      85.110  94.717  15.663  1.00  0.00     0.044 A
BRANCH  17  19
HETATM   19  C10 UNL     1      85.595  94.015  13.349  1.00  0.00     0.270 C
HETATM   20  O2  UNL     1      85.220  93.978  12.150  1.00  0.00    -0.301 OA
ENDBRANCH  17  19
ENDBRANCH  11  13
ENDBRANCH   8  11
BRANCH   1  21
HETATM   21  N1  UNL     1      85.739  98.730  20.889  1.00  0.00    -0.230 N
HETATM   22  C1  UNL     1      85.880  98.370  22.268  1.00  0.00     0.165 C
ATOM     23  H1  UNL     1      86.346  99.441  20.482  1.00  0.00     0.177 HD
ENDBRANCH   1  21
TORSDOF 4
ENDMDL