MODEL 5
REMARK VINA RESULT: -5.686755829      4.321      6.374
REMARK  4 active torsions:
REMARK  status: ('A' for Active; 'I' for Inactive)
REMARK    1  A    between atoms: O1_2  and  C2_3
REMARK    2  A    between atoms: C7_8  and  C8_9
REMARK    3  A    between atoms: N1_10  and  O2_12
REMARK    4  A    between atoms: C10_14  and  N2_15
ROOT
HETATM    1  C2  UNL     1      82.335  92.372  15.252  1.00  0.00     0.082 A
HETATM    2  C3  UNL     1      83.142  93.328  15.807  1.00  0.00     0.069 A
HETATM    3  C4  UNL     1      84.148  93.901  15.060  1.00  0.00     0.067 A
HETATM    4  C5  UNL     1      84.316  93.491  13.761  1.00  0.00     0.038 A
HETATM    5  C6  UNL     1      83.486  92.517  13.213  1.00  0.00     0.033 A
HETATM    6  C7  UNL     1      82.477  91.925  13.922  1.00  0.00     0.016 A
HETATM    7  C10 UNL     1      85.367  94.187  13.208  1.00  0.00     0.126 A
HETATM    8  N3  UNL     1      85.815  95.006  14.184  1.00  0.00    -0.283 N
ATOM      9  H3  UNL     1      86.594  95.657  14.089  1.00  0.00     0.189 HD
HETATM   10  N4  UNL     1      85.097  94.838  15.275  1.00  0.00    -0.294 N
HETATM   11  C11 UNL     1      85.309  95.554  16.498  1.00  0.00     0.178 C
ENDROOT
BRANCH   6  12
HETATM   12  C8  UNL     1      81.572  90.910  13.434  1.00  0.00     0.130 C
HETATM   13  N1  UNL     1      80.562  91.033  12.709  1.00  0.00    -0.276 N
HETATM   14  C9  UNL     1      79.744  89.870  12.304  1.00  0.00     0.184 C
BRANCH  13  15
HETATM   15  O2  UNL     1      80.116  92.218  12.228  1.00  0.00    -0.288 OA
ATOM     16  H2  UNL     1      80.389  93.065  12.564  1.00  0.00     0.244 HD
ENDBRANCH  13  15
ENDBRANCH   6  12
BRANCH   1  17
HETATM   17  O1  UNL     1      81.317  91.805  16.041  1.00  0.00    -0.355 OA
HETATM   18  C1  UNL     1      80.448  92.587  16.805  1.00  0.00     0.210 C
ENDBRANCH   1  17
BRANCH   7  19
HETATM   19  N2  UNL     1      85.796  94.053  12.009  1.00  0.00    -0.384 N
ATOM     20  H22 UNL     1      85.264  93.981  11.142  1.00  0.00     0.157 HD
ATOM     21  H21 UNL     1      86.777  93.996  11.735  1.00  0.00     0.157 HD
ENDBRANCH   7  19
TORSDOF 4
ENDMDL