MODEL 5
REMARK VINA RESULT: -6.987184481      1.750      2.690
REMARK  3 active torsions:
REMARK  status: ('A' for Active; 'I' for Inactive)
REMARK    1  A    between atoms: C3_9  and  N3_10
REMARK    2  A    between atoms: N3_10  and  N4_12
REMARK    3  A    between atoms: C4_14  and  C5_15
ROOT
HETATM    1  O1  UNL     1      86.119  93.295  11.971  1.00  0.00    -0.246 OA
HETATM    2  C1  UNL     1      85.496  93.873  12.901  1.00  0.00     0.342 A
HETATM    3  N1  UNL     1      86.205  94.496  13.874  1.00  0.00    -0.260 N
ATOM      4  H1  UNL     1      87.225  94.504  13.865  1.00  0.00     0.175 HD
HETATM    5  C2  UNL     1      85.512  95.102  14.850  1.00  0.00     0.342 A
HETATM    6  O2  UNL     1      86.132  95.698  15.783  1.00  0.00    -0.246 OA
HETATM    7  N2  UNL     1      84.167  95.110  14.893  1.00  0.00    -0.139 N
ATOM      8  H2  UNL     1      83.666  95.578  15.647  1.00  0.00     0.189 HD
HETATM    9  C3  UNL     1      83.506  94.479  13.907  1.00  0.00     0.704 A
HETATM   10  N5  UNL     1      84.169  93.866  12.919  1.00  0.00    -0.139 N
ATOM     11  H5  UNL     1      83.653  93.393  12.178  1.00  0.00     0.189 HD
ENDROOT
BRANCH   9  12
HETATM   12  N3  UNL     1      82.221  94.448  13.882  1.00  0.00    -0.132 N
ATOM     13  H3  UNL     1      81.710  94.927  14.623  1.00  0.00     0.205 HD
BRANCH  12  14
HETATM   14  N4  UNL     1      81.521  93.817  12.933  1.00  0.00    -0.297 N
HETATM   15  C4  UNL     1      80.324  93.869  12.611  1.00  0.00     0.119 C
ATOM     16  H4  UNL     1      82.074  93.172  12.369  1.00  0.00     0.186 HD
BRANCH  15  17
HETATM   17  C5  UNL     1      79.257  94.680  13.200  1.00  0.00    -0.019 A
HETATM   18  C6  UNL     1      78.854  94.587  14.497  1.00  0.00     0.013 A
HETATM   19  C7  UNL     1      77.824  95.412  14.948  1.00  0.00     0.001 A
HETATM   20  C8  UNL     1      77.204  96.315  14.122  1.00  0.00     0.000 A
HETATM   21  C9  UNL     1      77.637  96.383  12.819  1.00  0.00     0.001 A
HETATM   22  C10 UNL     1      78.645  95.582  12.358  1.00  0.00     0.013 A
ENDBRANCH  15  17
ENDBRANCH  12  14
ENDBRANCH   9  12
TORSDOF 3
ENDMDL