MODEL 2
REMARK VINA RESULT: -6.253464606      3.798      8.057
REMARK  3 active torsions:
REMARK  status: ('A' for Active; 'I' for Inactive)
REMARK    1  A    between atoms: O1_2  and  C2_3
REMARK    2  A    between atoms: C5_12  and  O2_13
REMARK    3  A    between atoms: C5_12  and  C6_15
ROOT
HETATM    1  C2  UNL     1      83.037  96.353  17.719  1.00  0.00     0.186 A
HETATM    2  N1  UNL     1      84.027  95.993  18.522  1.00  0.00    -0.278 N
ATOM      3  H1  UNL     1      84.142  96.341  19.474  1.00  0.00     0.189 HD
HETATM    4  N2  UNL     1      84.848  95.131  17.949  1.00  0.00    -0.296 N
ATOM      5  H2  UNL     1      85.679  94.712  18.366  1.00  0.00     0.187 HD
HETATM    6  C3  UNL     1      84.368  94.910  16.690  1.00  0.00     0.086 A
HETATM    7  C4  UNL     1      83.228  95.667  16.516  1.00  0.00     0.112 A
HETATM    8  N3  UNL     1      82.748  95.483  15.335  1.00  0.00    -0.344 N
ATOM      9  H3  UNL     1      81.908  95.929  14.964  1.00  0.00     0.163 HD
HETATM   10  C5  UNL     1      83.581  94.548  14.619  1.00  0.00     0.203 A
HETATM   11  C11 UNL     1      84.632  94.220  15.596  1.00  0.00     0.008 A
HETATM   12  C12 UNL     1      85.797  93.301  15.452  1.00  0.00     0.051 C
ENDROOT
BRANCH  10  13
HETATM   13  O2  UNL     1      84.094  95.230  13.509  1.00  0.00    -0.362 OA
ATOM     14  H2  UNL     1      85.003  94.968  13.422  1.00  0.00     0.213 HD
ENDBRANCH  10  13
BRANCH  10  15
HETATM   15  C6  UNL     1      82.780  93.369  14.210  1.00  0.00     0.069 A
HETATM   16  C7  UNL     1      82.777  92.235  15.012  1.00  0.00     0.030 A
HETATM   17  C8  UNL     1      82.054  91.107  14.691  1.00  0.00     0.003 A
HETATM   18  C9  UNL     1      81.312  91.130  13.515  1.00  0.00     0.017 A
HETATM   19  C10 UNL     1      81.339  92.274  12.740  1.00  0.00     0.088 A
HETATM   20  N4  UNL     1      82.060  93.347  13.101  1.00  0.00    -0.365 N
ATOM     21  H4  UNL     1      82.052  94.171  12.501  1.00  0.00     0.165 HD
ENDBRANCH  10  15
BRANCH   1  22
HETATM   22  O1  UNL     1      81.977  97.234  17.947  1.00  0.00    -0.338 OA
HETATM   23  C1  UNL     1      82.046  98.107  19.067  1.00  0.00     0.211 C
ENDBRANCH   1  22
TORSDOF 3
ENDMDL