MODEL 5
REMARK VINA RESULT: -5.549751819      5.057      6.860
REMARK  3 active torsions:
REMARK  status: ('A' for Active; 'I' for Inactive)
REMARK    1  A    between atoms: C4_9  and  C5_10
REMARK    2  A    between atoms: C6_11  and  N3_12
REMARK    3  A    between atoms: N4_18  and  N5_19
ROOT
HETATM    1  C5  UNL     1      81.875  94.705  15.271  1.00  0.00     0.117 A
HETATM    2  C6  UNL     1      81.472  95.156  16.498  1.00  0.00     0.134 A
HETATM    3  C7  UNL     1      80.101  95.367  16.730  1.00  0.00     0.040 A
HETATM    4  C8  UNL     1      79.250  95.106  15.707  1.00  0.00     0.022 A
HETATM    5  C9  UNL     1      79.702  94.656  14.497  1.00  0.00     0.116 A
HETATM    6  N4  UNL     1      81.004  94.447  14.247  1.00  0.00    -0.269 N
ENDROOT
BRANCH   1   7
HETATM    7  C4  UNL     1      83.274  94.452  14.964  1.00  0.00     0.090 A
HETATM    8  C2  UNL     1      83.839  93.193  14.929  1.00  0.00     0.039 A
HETATM    9  C1  UNL     1      83.177  91.882  15.183  1.00  0.00     0.071 C
HETATM   10  N1  UNL     1      85.132  93.392  14.614  1.00  0.00    -0.310 N
HETATM   11  C3  UNL     1      85.369  94.707  14.459  1.00  0.00     0.325 A
ATOM     12  H1  UNL     1      85.829  92.655  14.509  1.00  0.00     0.170 HD
HETATM   13  O1  UNL     1      86.491  95.205  14.162  1.00  0.00    -0.247 OA
HETATM   14  N2  UNL     1      84.206  95.345  14.680  1.00  0.00    -0.305 N
ATOM     15  H2  UNL     1      84.067  96.355  14.636  1.00  0.00     0.171 HD
ENDBRANCH   1   7
BRANCH   2  16
HETATM   16  N3  UNL     1      82.391  95.435  17.531  1.00  0.00    -0.113 N
HETATM   17  O2  UNL     1      82.572  94.653  18.460  1.00  0.00    -0.532 OA
HETATM   18  O3  UNL     1      83.105  96.609  17.518  1.00  0.00    -0.532 OA
ENDBRANCH   2  16
BRANCH   6  19
HETATM   19  N5  UNL     1      81.471  93.989  13.015  1.00  0.00    -0.338 N
ATOM     20  H52 UNL     1      82.126  93.211  12.928  1.00  0.00     0.177 HD
ATOM     21  H51 UNL     1      81.164  94.428  12.147  1.00  0.00     0.177 HD
ENDBRANCH   6  19
TORSDOF 3
ENDMDL