MODEL 5
REMARK VINA RESULT: -9.271657650      5.212      8.598
REMARK  10 active torsions:
REMARK  status: ('A' for Active; 'I' for Inactive)
REMARK    1  A    between atoms: N3_5  and  C3_6
REMARK    2  A    between atoms: C4_9  and  N5_10
REMARK    3  A    between atoms: N5_10  and  C5_12
REMARK    4  A    between atoms: C5_12  and  O1_13
REMARK    5  A    between atoms: C5_12  and  N6_15
REMARK    6  A    between atoms: N6_15  and  N7_16
REMARK    7  A    between atoms: N7_16  and  C6_18
REMARK    8  A    between atoms: N8_22  and  O2_23
REMARK    9  A    between atoms: C11_30  and  N11_31
REMARK   10  A    between atoms: C12_36  and  N13_37
ROOT
HETATM    1  C5  UNL     1      20.284  -8.160   4.623  1.00  0.00     0.353 C
ENDROOT
BRANCH   1   2
HETATM    2  N5  UNL     1      20.809  -9.475   4.790  1.00  0.00    -0.182 N
ATOM      3  H5  UNL     1      20.100 -10.201   4.892  1.00  0.00     0.181 HD
BRANCH   2   4
HETATM    4  C4  UNL     1      21.992  -9.893   4.833  1.00  0.00     0.710 A
HETATM    5  N4  UNL     1      22.412 -10.396   6.034  1.00  0.00    -0.020 N
HETATM    6  C3  UNL     1      23.645 -10.881   6.235  1.00  0.00     0.726 A
ATOM      7  H4  UNL     1      21.754 -10.403   6.814  1.00  0.00     0.203 HD
HETATM    8  N14 UNL     1      24.484 -10.850   5.165  1.00  0.00    -0.020 N
HETATM    9  C12 UNL     1      24.106 -10.362   3.970  1.00  0.00     0.705 A
ATOM     10  H14 UNL     1      25.433 -11.208   5.273  1.00  0.00     0.203 HD
HETATM   11  N12 UNL     1      22.860  -9.886   3.810  1.00  0.00    -0.022 N
ATOM     12  H12 UNL     1      22.572  -9.516   2.904  1.00  0.00     0.203 HD
BRANCH   6  13
HETATM   13  N3  UNL     1      24.070 -11.398   7.489  1.00  0.00    -0.097 N
HETATM   14  N2  UNL     1      23.717 -12.633   7.994  1.00  0.00    -0.092 NA
HETATM   15  C2  UNL     1      24.357 -12.760   9.282  1.00  0.00     0.409 C
HETATM   16  N1  UNL     1      24.804 -11.440   9.681  1.00  0.00     0.119 N
HETATM   17  C1  UNL     1      23.853 -10.774  10.552  1.00  0.00     0.314 C
HETATM   18  C13 UNL     1      24.935 -10.711   8.429  1.00  0.00     0.436 C
ENDBRANCH   6  13
BRANCH   9  19
HETATM   19  N13 UNL     1      24.913 -10.342   2.974  1.00  0.00    -0.234 N
ATOM     20 2H13 UNL     1      25.869 -10.689   3.059  1.00  0.00     0.174 HD
ATOM     21 1H13 UNL     1      24.588  -9.972   2.081  1.00  0.00     0.174 HD
ENDBRANCH   9  19
ENDBRANCH   2   4
ENDBRANCH   1   2
BRANCH   1  22
HETATM   22  O1  UNL     1      20.136  -7.570   5.879  1.00  0.00    -0.361 OA
ATOM     23  H1  UNL     1      19.514  -8.079   6.386  1.00  0.00     0.213 HD
ENDBRANCH   1  22
BRANCH   1  24
HETATM   24  N6  UNL     1      19.061  -8.211   3.887  1.00  0.00    -0.087 NA
BRANCH  24  25
HETATM   25  N7  UNL     1      18.153  -7.241   4.228  1.00  0.00    -0.296 N
ATOM     26  H7  UNL     1      18.306  -6.292   3.886  1.00  0.00     0.182 HD
BRANCH  25  27
HETATM   27  C6  UNL     1      17.018  -7.488   5.028  1.00  0.00     0.096 A
HETATM   28  C7  UNL     1      16.344  -8.698   4.950  1.00  0.00     0.051 A
HETATM   29  C8  UNL     1      15.242  -8.876   5.767  1.00  0.00     0.031 A
HETATM   30  C9  UNL     1      14.350  -9.912   5.965  1.00  0.00     0.158 A
HETATM   31  C10 UNL     1      14.876  -7.849   6.608  1.00  0.00     0.135 A
HETATM   32  N8  UNL     1      13.471  -9.523   6.898  1.00  0.00    -0.172 N
HETATM   33  N9  UNL     1      13.784  -8.287   7.285  1.00  0.00    -0.259 N
ATOM     34  H9  UNL     1      13.278  -7.749   7.988  1.00  0.00     0.191 HD
HETATM   35  N10 UNL     1      15.543  -6.681   6.668  1.00  0.00    -0.320 N
HETATM   36  C11 UNL     1      16.626  -6.466   5.888  1.00  0.00     0.203 A
ATOM     37  H10 UNL     1      15.229  -5.952   7.308  1.00  0.00     0.169 HD
BRANCH  32  38
HETATM   38  O2  UNL     1      12.413 -10.205   7.423  1.00  0.00    -0.268 OA
ATOM     39  H2  UNL     1      11.555 -10.363   7.049  1.00  0.00     0.247 HD
ENDBRANCH  32  38
BRANCH  36  40
HETATM   40  N11 UNL     1      17.327  -5.223   5.954  1.00  0.00    -0.095 N
HETATM   41  O3  UNL     1      16.908  -4.251   5.301  1.00  0.00    -0.530 OA
HETATM   42  O4  UNL     1      18.455  -5.042   6.711  1.00  0.00    -0.530 OA
ENDBRANCH  36  40
ENDBRANCH  25  27
ENDBRANCH  24  25
ENDBRANCH   1  24
TORSDOF 10
ENDMDL