MODEL 2
REMARK VINA RESULT: -8.127702732      2.702      3.678
REMARK  10 active torsions:
REMARK  status: ('A' for Active; 'I' for Inactive)
REMARK    1  A    between atoms: C2_2  and  O1_3
REMARK    2  A    between atoms: O1_3  and  C3_4
REMARK    3  A    between atoms: C3_4  and  C4_6
REMARK    4  A    between atoms: C4_6  and  N1_7
REMARK    5  A    between atoms: N1_7  and  C5_10
REMARK    6  A    between atoms: C7_14  and  N3_15
REMARK    7  A    between atoms: C10_22  and  N6_23
REMARK    8  A    between atoms: N7_25  and  N8_27
REMARK    9  A    between atoms: C11_34  and  N12_35
REMARK   10  A    between atoms: N14_40  and  N15_41
REMARK       I    between atoms: N15_41  and  C12_43
ROOT
HETATM    1  N3  UNL     1      17.254  -9.159   2.908  1.00  0.00    -0.021 N
ATOM      2  H3  UNL     1      16.274  -9.075   2.638  1.00  0.00     0.203 HD
HETATM    3  C8  UNL     1      17.950 -10.101   2.379  1.00  0.00     0.699 A
HETATM    4  N4  UNL     1      17.383 -10.961   1.479  1.00  0.00    -0.176 N
ATOM      5  H4  UNL     1      16.401 -10.856   1.222  1.00  0.00     0.185 HD
HETATM    6  C9  UNL     1      18.120 -11.945   0.934  1.00  0.00     0.163 A
HETATM    7  N5  UNL     1      17.565 -12.849   0.001  1.00  0.00    -0.080 NA
HETATM    8  C10 UNL     1      19.452 -12.046   1.317  1.00  0.00     0.135 A
HETATM    9  C11 UNL     1      20.023 -11.185   2.218  1.00  0.00     0.146 A
HETATM   10  N13 UNL     1      19.238 -10.211   2.739  1.00  0.00    -0.174 N
ATOM     11  H13 UNL     1      19.631  -9.554   3.413  1.00  0.00     0.186 HD
ENDROOT
BRANCH   1  12
HETATM   12  C7  UNL     1      17.772  -8.230   3.847  1.00  0.00     0.711 C
HETATM   13  N2  UNL     1      18.634  -7.297   3.540  1.00  0.00    -0.220 N
HETATM   14  C6  UNL     1      18.964  -6.513   4.734  1.00  0.00     0.195 C
ATOM     15  H2  UNL     1      19.020  -7.139   2.608  1.00  0.00     0.177 HD
HETATM   16  C5  UNL     1      18.667  -7.528   5.832  1.00  0.00     0.343 C
HETATM   17  N14 UNL     1      17.476  -8.131   5.247  1.00  0.00    -0.087 N
BRANCH  16  18
HETATM   18  N1  UNL     1      18.437  -6.934   7.098  1.00  0.00    -0.041 N
ATOM     19  H12 UNL     1      18.361  -7.640   7.831  1.00  0.00     0.280 HD
ATOM     20  H11 UNL     1      17.499  -6.539   7.159  1.00  0.00     0.280 HD
BRANCH  18  21
HETATM   21  C4  UNL     1      19.439  -5.955   7.418  1.00  0.00     0.345 C
BRANCH  21  22
HETATM   22  C3  UNL     1      19.815  -5.875   8.829  1.00  0.00     0.284 C
HETATM   23  O2  UNL     1      19.080  -5.347   9.700  1.00  0.00    -0.263 OA
BRANCH  22  24
HETATM   24  O1  UNL     1      21.022  -6.382   9.301  1.00  0.00    -0.321 OA
BRANCH  24  25
HETATM   25  C2  UNL     1      21.600  -5.944  10.510  1.00  0.00     0.174 C
HETATM   26  C1  UNL     1      22.249  -7.044  11.295  1.00  0.00     0.034 C
ENDBRANCH  24  25
ENDBRANCH  22  24
ENDBRANCH  21  22
ENDBRANCH  18  21
ENDBRANCH  16  18
BRANCH  17  27
HETATM   27  N15 UNL     1      16.295  -8.545   5.803  1.00  0.00    -0.252 N
HETATM   28  C12 UNL     1      15.389  -7.609   6.343  1.00  0.00     0.232 C
HETATM   29  C13 UNL     1      14.094  -8.048   6.956  1.00  0.00     0.119 C
HETATM   30  O3  UNL     1      15.597  -6.366   6.349  1.00  0.00    -0.272 OA
ATOM     31  H15 UNL     1      16.070  -9.539   5.827  1.00  0.00     0.190 HD
ENDBRANCH  17  27
ENDBRANCH   1  12
BRANCH   9  32
HETATM   32  N12 UNL     1      21.262 -11.324   2.537  1.00  0.00    -0.383 N
ATOM     33 2H12 UNL     1      21.709 -12.236   2.623  1.00  0.00     0.157 HD
ATOM     34 1H12 UNL     1      21.834 -10.499   2.715  1.00  0.00     0.157 HD
ENDBRANCH   9  32
BRANCH   8  35
HETATM   35  N6  UNL     1      20.215 -13.089   0.731  1.00  0.00    -0.277 N
HETATM   36  N7  UNL     1      20.673 -12.907  -0.434  1.00  0.00    -0.203 N
ATOM     37  H7  UNL     1      21.223 -13.653  -0.861  1.00  0.00     0.212 HD
ATOM     38  H6  UNL     1      20.388 -13.959   1.233  1.00  0.00     0.189 HD
BRANCH  36  39
HETATM   39  N8  UNL     1      20.463 -11.734  -1.162  1.00  0.00    -0.084 N
HETATM   40  N9  UNL     1      19.615 -11.268  -2.061  1.00  0.00    -0.188 N
HETATM   41  N10 UNL     1      20.245 -10.116  -2.112  1.00  0.00    -0.208 N
ATOM     42  H9  UNL     1      18.795 -11.651  -2.531  1.00  0.00     0.213 HD
HETATM   43  N11 UNL     1      21.098 -10.571  -1.214  1.00  0.00    -0.188 N
ATOM     44  H10 UNL     1      20.126  -9.243  -2.625  1.00  0.00     0.211 HD
ATOM     45  H11 UNL     1      21.918 -10.183  -0.747  1.00  0.00     0.213 HD
ENDBRANCH  36  39
ENDBRANCH   8  35
TORSDOF 10
ENDMDL