MODEL 5
REMARK VINA RESULT: -9.499788294      2.867      4.653
REMARK  8 active torsions:
REMARK  status: ('A' for Active; 'I' for Inactive)
REMARK    1  A    between atoms: N1_1  and  C1_4
REMARK    2  A    between atoms: C3_12  and  N5_13
REMARK    3  A    between atoms: C4_20  and  N9_21
REMARK    4  A    between atoms: C5_27  and  S1_28
REMARK    5  A    between atoms: S1_28  and  C6_29
REMARK    6  A    between atoms: C6_29  and  C7_30
REMARK    7  A    between atoms: C7_30  and  C8_31
REMARK    8  A    between atoms: C8_31  and  N12_32
ROOT
HETATM    1  C1  UNL     1      19.417 -11.524   1.850  1.00  0.00     0.131 A
HETATM    2  N2  UNL     1      19.961 -12.668   1.386  1.00  0.00    -0.283 N
ATOM      3  H2  UNL     1      19.566 -13.236   0.636  1.00  0.00     0.188 HD
HETATM    4  N3  UNL     1      21.075 -12.950   2.036  1.00  0.00    -0.283 N
ATOM      5  H3  UNL     1      21.665 -13.763   1.863  1.00  0.00     0.188 HD
HETATM    6  C2  UNL     1      21.317 -12.001   2.964  1.00  0.00     0.153 A
HETATM    7  N4  UNL     1      22.289 -11.799   3.881  1.00  0.00    -0.170 N
ATOM      8  H4  UNL     1      23.049 -12.478   3.946  1.00  0.00     0.186 HD
HETATM    9  C3  UNL     1      22.297 -10.737   4.712  1.00  0.00     0.744 A
HETATM   10  N10 UNL     1      21.286  -9.853   4.612  1.00  0.00    -0.064 N
HETATM   11  N11 UNL     1      21.029  -8.733   5.281  1.00  0.00    -0.257 N
ATOM     12  H11 UNL     1      21.613  -8.356   6.028  1.00  0.00     0.190 HD
HETATM   13  C5  UNL     1      19.895  -8.163   4.838  1.00  0.00     0.161 A
HETATM   14  N17 UNL     1      19.452  -8.987   3.851  1.00  0.00    -0.319 N
ATOM     15  H17 UNL     1      18.605  -8.843   3.301  1.00  0.00     0.169 HD
HETATM   16  C11 UNL     1      20.301 -10.020   3.710  1.00  0.00     0.165 A
HETATM   17  C12 UNL     1      20.277 -11.100   2.852  1.00  0.00     0.101 A
ENDROOT
BRANCH   9  18
HETATM   18  N5  UNL     1      23.344 -10.556   5.672  1.00  0.00     0.109 N
HETATM   19  N6  UNL     1      23.179 -10.513   6.973  1.00  0.00    -0.191 N
HETATM   20  N7  UNL     1      24.344 -10.336   7.533  1.00  0.00    -0.212 N
ATOM     21  H6  UNL     1      22.289 -10.604   7.464  1.00  0.00     0.211 HD
HETATM   22  N8  UNL     1      25.261 -10.264   6.595  1.00  0.00    -0.114 N
ATOM     23  H7  UNL     1      24.515 -10.264   8.537  1.00  0.00     0.210 HD
HETATM   24  C4  UNL     1      24.636 -10.402   5.414  1.00  0.00     0.729 A
ATOM     25  H8  UNL     1      26.261 -10.128   6.737  1.00  0.00     0.207 HD
BRANCH  24  26
HETATM   26  N9  UNL     1      25.199 -10.388   4.231  1.00  0.00    -0.231 N
ATOM     27  H92 UNL     1      25.430 -11.202   3.662  1.00  0.00     0.174 HD
ATOM     28  H91 UNL     1      25.488  -9.563   3.706  1.00  0.00     0.174 HD
ENDBRANCH  24  26
ENDBRANCH   9  18
BRANCH  13  29
HETATM   29  S1  UNL     1      19.104  -6.650   5.397  1.00  0.00    -0.092 SA
BRANCH  29  30
HETATM   30  C6  UNL     1      19.054  -5.519   3.968  1.00  0.00     0.083 C
BRANCH  30  31
HETATM   31  C7  UNL     1      19.089  -4.087   4.389  1.00  0.00     0.026 C
BRANCH  31  32
HETATM   32  C8  UNL     1      18.787  -3.147   3.241  1.00  0.00     0.114 C
BRANCH  32  33
HETATM   33  N12 UNL     1      20.028  -2.557   2.759  1.00  0.00    -0.198 NA
HETATM   34  N13 UNL     1      20.181  -2.763   1.406  1.00  0.00    -0.146 NA
HETATM   35  C9  UNL     1      20.076  -1.485   0.750  1.00  0.00     0.243 C
HETATM   36  N14 UNL     1      19.861  -0.482   1.747  1.00  0.00    -0.166 NA
HETATM   37  N15 UNL     1      21.053   0.236   1.999  1.00  0.00    -0.050 NA
HETATM   38  C10 UNL     1      20.055  -1.152   3.017  1.00  0.00     0.280 C
HETATM   39  N16 UNL     1      21.333  -0.524   3.130  1.00  0.00    -0.092 NA
ENDBRANCH  32  33
ENDBRANCH  31  32
ENDBRANCH  30  31
ENDBRANCH  29  30
ENDBRANCH  13  29
BRANCH   1  40
HETATM   40  N1  UNL     1      18.336 -10.922   1.474  1.00  0.00    -0.384 N
ATOM     41  H12 UNL     1      17.572 -11.342   0.946  1.00  0.00     0.157 HD
ATOM     42  H11 UNL     1      18.051  -9.954   1.625  1.00  0.00     0.157 HD
ENDBRANCH   1  40
TORSDOF 8
ENDMDL