MODEL 2
REMARK VINA RESULT: -8.772345876      7.865     10.807
REMARK  10 active torsions:
REMARK  status: ('A' for Active; 'I' for Inactive)
REMARK    1  A    between atoms: C2_2  and  O1_3
REMARK    2  A    between atoms: C2_2  and  C3_5
REMARK    3  A    between atoms: C3_5  and  N1_6
REMARK    4  A    between atoms: C5_8  and  C6_9
REMARK    5  A    between atoms: C6_9  and  C7_10
REMARK    6  A    between atoms: C8_15  and  C9_16
REMARK    7  A    between atoms: C9_16  and  N4_17
REMARK    8  A    between atoms: C12_22  and  N6_23
REMARK    9  A    between atoms: C13_28  and  N8_29
REMARK   10  A    between atoms: C14_36  and  N12_37
ROOT
HETATM    1  N4  UNL     1      24.826 -12.095   7.246  1.00  0.00    -0.326 N
HETATM    2  C10 UNL     1      24.645 -13.028   6.162  1.00  0.00     0.124 A
HETATM    3  C11 UNL     1      24.500 -12.772   4.787  1.00  0.00     0.164 A
HETATM    4  N5  UNL     1      24.377 -13.751   3.877  1.00  0.00    -0.173 N
ATOM      5  H5  UNL     1      24.272 -13.543   2.884  1.00  0.00     0.186 HD
HETATM    6  C12 UNL     1      24.398 -15.014   4.331  1.00  0.00     0.679 A
HETATM    7  N7  UNL     1      24.532 -15.302   5.630  1.00  0.00    -0.175 N
ATOM      8  H7  UNL     1      24.542 -16.276   5.931  1.00  0.00     0.186 HD
HETATM    9  C13 UNL     1      24.658 -14.302   6.566  1.00  0.00     0.145 A
HETATM   10  N9  UNL     1      24.463 -11.493   4.182  1.00  0.00    -0.270 N
ATOM     11  H9  UNL     1      24.412 -11.509   3.163  1.00  0.00     0.185 HD
HETATM   12  N10 UNL     1      24.485 -10.218   4.739  1.00  0.00    -0.026 NA
HETATM   13  N11 UNL     1      25.202 -10.212   5.922  1.00  0.00    -0.072 NA
HETATM   14  C14 UNL     1      24.407 -10.720   7.059  1.00  0.00     0.397 C
ENDROOT
BRANCH   1  15
HETATM   15  C9  UNL     1      25.414 -12.565   8.443  1.00  0.00     0.204 C
BRANCH  15  16
HETATM   16  C8  UNL     1      24.614 -11.853   9.519  1.00  0.00     0.117 A
HETATM   17  N3  UNL     1      23.333 -12.151   9.901  1.00  0.00    -0.286 N
HETATM   18  N2  UNL     1      22.948 -11.334  10.832  1.00  0.00    -0.287 N
ATOM     19  H3  UNL     1      22.766 -12.903   9.511  1.00  0.00     0.188 HD
HETATM   20  C7  UNL     1      23.922 -10.485  11.103  1.00  0.00     0.104 A
ATOM     21  H2  UNL     1      22.034 -11.346  11.285  1.00  0.00     0.188 HD
HETATM   22  N13 UNL     1      24.931 -10.805  10.302  1.00  0.00    -0.327 N
HETATM   23  C15 UNL     1      26.205 -10.116  10.278  1.00  0.00     0.159 C
BRANCH  20  24
HETATM   24  C6  UNL     1      23.874  -9.396  12.115  1.00  0.00     0.137 C
BRANCH  24  25
HETATM   25  C5  UNL     1      23.080  -8.229  11.652  1.00  0.00     0.047 A
HETATM   26  C4  UNL     1      22.689  -7.874  10.377  1.00  0.00     0.134 A
HETATM   27  N1  UNL     1      21.974  -6.720  10.429  1.00  0.00    -0.282 N
HETATM   28  N15 UNL     1      21.924  -6.372  11.704  1.00  0.00    -0.020 NA
HETATM   29  N14 UNL     1      22.584  -7.266  12.451  1.00  0.00    -0.286 N
ATOM     30  H14 UNL     1      22.694  -7.225  13.464  1.00  0.00     0.184 HD
BRANCH  27  31
HETATM   31  C3  UNL     1      21.372  -5.997   9.307  1.00  0.00     0.177 C
BRANCH  31  32
HETATM   32  C2  UNL     1      19.878  -6.252   9.249  1.00  0.00     0.133 C
HETATM   33  C1  UNL     1      19.409  -5.940   7.854  1.00  0.00     0.041 C
BRANCH  32  34
HETATM   34  O1  UNL     1      19.185  -5.545  10.215  1.00  0.00    -0.394 OA
ATOM     35  H1  UNL     1      19.519  -5.698  11.091  1.00  0.00     0.210 HD
ENDBRANCH  32  34
ENDBRANCH  31  32
ENDBRANCH  27  31
ENDBRANCH  24  25
ENDBRANCH  20  24
ENDBRANCH  15  16
ENDBRANCH   1  15
BRANCH  14  36
HETATM   36  N12 UNL     1      23.013 -10.615   6.593  1.00  0.00    -0.043 N
ATOM     37 3H12 UNL     1      22.359 -10.706   7.370  1.00  0.00     0.278 HD
ATOM     38 2H12 UNL     1      22.793  -9.661   6.305  1.00  0.00     0.278 HD
ATOM     39 1H12 UNL     1      22.799 -11.281   5.852  1.00  0.00     0.278 HD
ENDBRANCH  14  36
BRANCH   9  40
HETATM   40  N8  UNL     1      24.759 -14.684   7.881  1.00  0.00    -0.383 N
ATOM     41  H82 UNL     1      25.678 -14.611   8.317  1.00  0.00     0.157 HD
ATOM     42  H81 UNL     1      23.979 -15.053   8.425  1.00  0.00     0.157 HD
ENDBRANCH   9  40
BRANCH   6  43
HETATM   43  N6  UNL     1      24.282 -15.987   3.481  1.00  0.00    -0.234 N
ATOM     44  H62 UNL     1      24.522 -15.820   2.503  1.00  0.00     0.174 HD
ATOM     45  H61 UNL     1      23.956 -16.895   3.813  1.00  0.00     0.174 HD
ENDBRANCH   6  43
TORSDOF 10
ENDMDL