MODEL 5
REMARK VINA RESULT: -8.414579404      2.953      7.790
REMARK  11 active torsions:
REMARK  status: ('A' for Active; 'I' for Inactive)
REMARK    1  A    between atoms: N1_1  and  C1_5
REMARK    2  A    between atoms: C1_5  and  O1_6
REMARK    3  A    between atoms: C1_5  and  C2_8
REMARK    4  A    between atoms: N3_12  and  C4_14
REMARK    5  A    between atoms: N7_24  and  C7_25
REMARK    6  A    between atoms: C7_25  and  C8_26
REMARK    7  A    between atoms: C8_26  and  N8_27
REMARK    8  A    between atoms: C8_26  and  C9_31
REMARK    9  A    between atoms: C10_34  and  C11_35
REMARK   10  A    between atoms: C12_45  and  O3_46
REMARK   11  A    between atoms: C13_48  and  O4_49
ROOT
HETATM    1  C2  UNL     1      20.094  -5.020   7.581  1.00  0.00     0.133 A
HETATM    2  N2  UNL     1      20.051  -4.389   6.393  1.00  0.00    -0.186 N
ATOM      3  H2  UNL     1      20.603  -3.568   6.144  1.00  0.00     0.184 HD
HETATM    4  C3  UNL     1      19.175  -5.001   5.585  1.00  0.00     0.688 A
HETATM    5  N3  UNL     1      18.887  -4.654   4.390  1.00  0.00    -0.169 N
ATOM      6  H3  UNL     1      18.197  -5.231   3.910  1.00  0.00     0.186 HD
HETATM    7  N7  UNL     1      18.650  -6.031   6.257  1.00  0.00    -0.158 N
HETATM    8  C13 UNL     1      19.202  -6.064   7.494  1.00  0.00     0.185 A
ENDROOT
BRANCH   7   9
HETATM    9  C7  UNL     1      17.668  -6.981   5.797  1.00  0.00     0.189 C
BRANCH   9  10
HETATM   10  C8  UNL     1      16.258  -6.554   6.032  1.00  0.00     0.255 C
BRANCH  10  11
HETATM   11  N8  UNL     1      16.163  -5.803   7.258  1.00  0.00    -0.068 N
ATOM     12  H83 UNL     1      16.422  -6.364   8.069  1.00  0.00     0.275 HD
ATOM     13  H82 UNL     1      16.892  -5.092   7.327  1.00  0.00     0.275 HD
ATOM     14  H81 UNL     1      15.231  -5.402   7.354  1.00  0.00     0.275 HD
ENDBRANCH  10  11
BRANCH  10  15
HETATM   15  C9  UNL     1      15.318  -7.744   6.025  1.00  0.00     0.083 A
HETATM   16  N9  UNL     1      15.467  -8.746   5.210  1.00  0.00    -0.346 N
HETATM   17  C10 UNL     1      14.636  -9.761   5.242  1.00  0.00     0.124 A
ATOM     18  H9  UNL     1      16.236  -8.743   4.540  1.00  0.00     0.166 HD
HETATM   19  S1  UNL     1      13.558  -9.311   6.488  1.00  0.00    -0.042 SA
HETATM   20  C12 UNL     1      14.265  -7.803   6.903  1.00  0.00     0.134 A
BRANCH  17  21
HETATM   21  C11 UNL     1      14.649 -10.971   4.409  1.00  0.00     0.171 A
HETATM   22  N10 UNL     1      13.740 -11.939   4.258  1.00  0.00    -0.266 N
HETATM   23  N11 UNL     1      14.180 -12.858   3.385  1.00  0.00    -0.227 N
ATOM     24  H10 UNL     1      12.841 -11.974   4.738  1.00  0.00     0.190 HD
HETATM   25  N12 UNL     1      15.372 -12.452   2.995  1.00  0.00    -0.227 N
ATOM     26  H11 UNL     1      13.690 -13.700   3.084  1.00  0.00     0.210 HD
HETATM   27  N13 UNL     1      15.677 -11.309   3.605  1.00  0.00    -0.266 N
ATOM     28  H12 UNL     1      15.970 -12.940   2.327  1.00  0.00     0.210 HD
ATOM     29  H13 UNL     1      16.540 -10.780   3.485  1.00  0.00     0.190 HD
ENDBRANCH  17  21
BRANCH  20  30
HETATM   30  O3  UNL     1      13.887  -6.858   7.877  1.00  0.00    -0.352 OA
ATOM     31  H3  UNL     1      14.309  -6.668   8.707  1.00  0.00     0.218 HD
ENDBRANCH  20  30
ENDBRANCH  10  15
ENDBRANCH   9  10
ENDBRANCH   7   9
BRANCH   8  32
HETATM   32  O4  UNL     1      18.949  -6.969   8.523  1.00  0.00    -0.344 OA
ATOM     33  H4  UNL     1      18.381  -7.726   8.443  1.00  0.00     0.219 HD
ENDBRANCH   8  32
BRANCH   5  34
HETATM   34  C4  UNL     1      19.404  -3.581   3.662  1.00  0.00     0.204 A
HETATM   35  N4  UNL     1      19.982  -2.488   4.139  1.00  0.00    -0.280 N
HETATM   36  N5  UNL     1      20.437  -1.523   3.348  1.00  0.00    -0.294 N
ATOM     37  H4  UNL     1      20.080  -2.385   5.150  1.00  0.00     0.188 HD
HETATM   38  C5  UNL     1      20.327  -1.620   2.005  1.00  0.00     0.200 A
ATOM     39  H5  UNL     1      20.875  -0.698   3.760  1.00  0.00     0.187 HD
HETATM   40  N6  UNL     1      19.749  -2.709   1.462  1.00  0.00    -0.315 N
HETATM   41  C6  UNL     1      19.299  -3.662   2.265  1.00  0.00     0.292 A
ATOM     42  H6  UNL     1      19.658  -2.798   0.449  1.00  0.00     0.170 HD
HETATM   43  O2  UNL     1      18.753  -4.689   1.736  1.00  0.00    -0.264 OA
ENDBRANCH   5  34
BRANCH   1  44
HETATM   44  C1  UNL     1      20.932  -4.663   8.746  1.00  0.00     0.372 C
BRANCH  44  45
HETATM   45  N1  UNL     1      21.828  -3.569   8.369  1.00  0.00    -0.047 N
ATOM     46  H13 UNL     1      22.679  -3.525   8.930  1.00  0.00     0.277 HD
ATOM     47  H12 UNL     1      22.285  -3.706   7.467  1.00  0.00     0.277 HD
ATOM     48  H11 UNL     1      21.261  -2.723   8.417  1.00  0.00     0.277 HD
ENDBRANCH  44  45
BRANCH  44  49
HETATM   49  O1  UNL     1      21.764  -5.732   9.067  1.00  0.00    -0.365 OA
ATOM     50  H1  UNL     1      22.159  -6.002   8.246  1.00  0.00     0.212 HD
ENDBRANCH  44  49
ENDBRANCH   1  44
TORSDOF 11
ENDMDL