MODEL 3
REMARK VINA RESULT: -7.333512626      3.697      5.710
REMARK  12 active torsions:
REMARK  status: ('A' for Active; 'I' for Inactive)
REMARK       I    between atoms: C2_2  and  N1_4
REMARK    1  A    between atoms: N1_4  and  C3_6
REMARK    2  A    between atoms: C4_9  and  C5_10
REMARK    3  A    between atoms: C5_10  and  O2_11
REMARK    4  A    between atoms: C5_10  and  O3_13
REMARK    5  A    between atoms: C6_16  and  N3_17
REMARK       I    between atoms: N3_17  and  C7_19
REMARK       I    between atoms: C7_19  and  N6_25
REMARK    6  A    between atoms: N4_20  and  N5_22
REMARK    7  A    between atoms: N6_25  and  N7_27
REMARK    8  A    between atoms: C8_29  and  N8_30
REMARK    9  A    between atoms: C8_29  and  O6_35
REMARK   10  A    between atoms: N8_30  and  N9_32
REMARK   11  A    between atoms: O6_35  and  N10_36
REMARK   12  A    between atoms: C9_39  and  N11_40
ROOT
HETATM    1  N3  UNL     1      18.185  -7.977   3.505  1.00  0.00    -0.180 N
ATOM      2  H3  UNL     1      18.370  -7.921   2.504  1.00  0.00     0.185 HD
HETATM    3  C7  UNL     1      19.037  -7.255   4.338  1.00  0.00     0.712 C
HETATM    4  N4  UNL     1      19.481  -6.117   3.993  1.00  0.00    -0.137 N
ATOM      5  H4  UNL     1      20.101  -5.640   4.647  1.00  0.00     0.205 HD
HETATM    6  N6  UNL     1      19.430  -7.780   5.599  1.00  0.00    -0.128 N
ATOM      7  H6  UNL     1      19.396  -8.787   5.762  1.00  0.00     0.205 HD
ENDROOT
BRANCH   1   8
HETATM    8  C6  UNL     1      17.187  -8.709   3.868  1.00  0.00     0.129 A
HETATM    9  S1  UNL     1      16.011  -8.270   5.021  1.00  0.00    -0.051 SA
HETATM   10  C4  UNL     1      14.825  -9.466   5.271  1.00  0.00     0.110 A
HETATM   11  N2  UNL     1      14.994 -10.562   4.533  1.00  0.00    -0.334 N
HETATM   12  C3  UNL     1      15.957 -10.809   3.653  1.00  0.00     0.145 A
ATOM     13  H2  UNL     1      14.302 -11.299   4.659  1.00  0.00     0.168 HD
HETATM   14  C9  UNL     1      16.996  -9.961   3.321  1.00  0.00     0.181 A
BRANCH  10  15
HETATM   15  C5  UNL     1      13.673  -9.338   6.233  1.00  0.00     0.312 C
BRANCH  15  16
HETATM   16  O2  UNL     1      12.558  -8.813   5.566  1.00  0.00    -0.365 OA
ATOM     17  H2  UNL     1      12.098  -8.210   6.138  1.00  0.00     0.213 HD
ENDBRANCH  15  16
BRANCH  15  18
HETATM   18  O3  UNL     1      13.294 -10.591   6.717  1.00  0.00    -0.365 OA
ATOM     19  H3  UNL     1      12.392 -10.577   7.015  1.00  0.00     0.213 HD
ENDBRANCH  15  18
ENDBRANCH  10  15
BRANCH  12  20
HETATM   20  N1  UNL     1      15.931 -12.075   2.969  1.00  0.00    -0.311 N
HETATM   21  C2  UNL     1      14.750 -12.847   2.838  1.00  0.00     0.219 C
HETATM   22  C1  UNL     1      14.744 -14.166   2.120  1.00  0.00     0.117 C
HETATM   23  O1  UNL     1      13.695 -12.388   3.347  1.00  0.00    -0.274 OA
ATOM     24  H1  UNL     1      16.797 -12.431   2.563  1.00  0.00     0.170 HD
ENDBRANCH  12  20
BRANCH  14  25
HETATM   25  N11 UNL     1      17.979 -10.367   2.338  1.00  0.00    -0.109 N
HETATM   26  O7  UNL     1      17.686 -10.626   1.180  1.00  0.00    -0.532 OA
HETATM   27  O8  UNL     1      19.277 -10.451   2.765  1.00  0.00    -0.532 OA
ENDBRANCH  14  25
ENDBRANCH   1   8
BRANCH   4  28
HETATM   28  N5  UNL     1      19.196  -5.467   2.804  1.00  0.00    -0.331 N
ATOM     29  H52 UNL     1      19.790  -4.670   2.574  1.00  0.00     0.177 HD
ATOM     30  H51 UNL     1      18.451  -5.718   2.153  1.00  0.00     0.177 HD
ENDBRANCH   4  28
BRANCH   6  31
HETATM   31  N7  UNL     1      19.859  -6.933   6.609  1.00  0.00    -0.248 N
HETATM   32  C8  UNL     1      19.113  -6.298   7.417  1.00  0.00     0.281 C
ATOM     33  H7  UNL     1      20.866  -6.807   6.713  1.00  0.00     0.191 HD
BRANCH  32  34
HETATM   34  N8  UNL     1      19.690  -5.453   8.414  1.00  0.00    -0.202 N
ATOM     35  H8  UNL     1      19.130  -4.722   8.852  1.00  0.00     0.197 HD
BRANCH  34  36
HETATM   36  N9  UNL     1      21.018  -5.632   8.784  1.00  0.00    -0.036 N
HETATM   37  O4  UNL     1      21.702  -4.592   8.963  1.00  0.00    -0.516 OA
HETATM   38  O5  UNL     1      21.619  -6.841   8.962  1.00  0.00    -0.516 OA
ENDBRANCH  34  36
ENDBRANCH  32  34
BRANCH  32  39
HETATM   39  O6  UNL     1      17.735  -6.420   7.337  1.00  0.00    -0.205 OA
BRANCH  39  40
HETATM   40  N10 UNL     1      16.930  -5.366   7.068  1.00  0.00    -0.302 N
ATOM     41 2H10 UNL     1      16.097  -5.244   7.643  1.00  0.00     0.184 HD
ATOM     42 1H10 UNL     1      17.133  -4.704   6.318  1.00  0.00     0.184 HD
ENDBRANCH  39  40
ENDBRANCH  32  39
ENDBRANCH   6  31
TORSDOF 12
ENDMDL