MODEL 4
REMARK VINA RESULT: -9.768176152      5.192      6.952
REMARK  10 active torsions:
REMARK  status: ('A' for Active; 'I' for Inactive)
REMARK    1  A    between atoms: N1_1  and  N2_4
REMARK    2  A    between atoms: C2_9  and  O2_10
REMARK    3  A    between atoms: C3_12  and  C4_13
REMARK    4  A    between atoms: N4_14  and  N5_16
REMARK    5  A    between atoms: N5_16  and  C5_18
REMARK    6  A    between atoms: C6_23  and  N8_24
REMARK    7  A    between atoms: N8_24  and  O3_26
REMARK    8  A    between atoms: O3_26  and  C7_27
REMARK    9  A    between atoms: C9_29  and  O4_30
REMARK   10  A    between atoms: C10_32  and  C11_33
ROOT
HETATM    1  C5  UNL     1      17.564  -9.188   3.077  1.00  0.00     0.726 A
HETATM    2  N6  UNL     1      17.059  -8.820   4.258  1.00  0.00    -0.116 N
ATOM      3  H6  UNL     1      16.408  -9.376   4.812  1.00  0.00     0.206 HD
HETATM    4  N7  UNL     1      17.515  -7.647   4.604  1.00  0.00    -0.115 N
ATOM      5  H7  UNL     1      17.281  -7.144   5.461  1.00  0.00     0.206 HD
HETATM    6  C6  UNL     1      18.339  -7.218   3.645  1.00  0.00     0.732 A
HETATM    7  N9  UNL     1      18.361  -8.179   2.707  1.00  0.00    -0.017 N
ATOM      8  H9  UNL     1      18.903  -8.145   1.844  1.00  0.00     0.203 HD
ENDROOT
BRANCH   1   9
HETATM    9  N5  UNL     1      17.328 -10.388   2.346  1.00  0.00    -0.131 N
ATOM     10  H5  UNL     1      16.406 -10.815   2.446  1.00  0.00     0.205 HD
BRANCH   9  11
HETATM   11  N4  UNL     1      18.219 -11.023   1.521  1.00  0.00    -0.296 N
HETATM   12  C4  UNL     1      19.482 -11.038   1.563  1.00  0.00     0.129 C
ATOM     13  H4  UNL     1      17.802 -11.563   0.764  1.00  0.00     0.186 HD
BRANCH  12  14
HETATM   14  C3  UNL     1      20.241 -11.803   0.553  1.00  0.00     0.102 A
HETATM   15  C2  UNL     1      19.992 -11.584  -0.773  1.00  0.00     0.161 A
HETATM   16  N3  UNL     1      20.642 -12.237  -1.756  1.00  0.00    -0.287 N
HETATM   17  C1  UNL     1      21.577 -13.146  -1.429  1.00  0.00     0.350 A
ATOM     18  H3  UNL     1      20.427 -12.044  -2.734  1.00  0.00     0.172 HD
HETATM   19  N2  UNL     1      21.841 -13.382  -0.126  1.00  0.00    -0.174 N
HETATM   20  O1  UNL     1      22.210 -13.781  -2.328  1.00  0.00    -0.244 OA
HETATM   21  C13 UNL     1      21.195 -12.731   0.877  1.00  0.00     0.286 A
HETATM   22  O9  UNL     1      21.453 -12.961   2.082  1.00  0.00    -0.265 OA
BRANCH  15  23
HETATM   23  O2  UNL     1      19.035 -10.653  -1.136  1.00  0.00    -0.345 OA
ATOM     24  H2  UNL     1      18.211 -10.975  -1.484  1.00  0.00     0.219 HD
ENDBRANCH  15  23
BRANCH  19  25
HETATM   25  N1  UNL     1      22.818 -14.330   0.164  1.00  0.00    -0.332 N
ATOM     26  H12 UNL     1      23.698 -14.049   0.598  1.00  0.00     0.177 HD
ATOM     27  H11 UNL     1      22.613 -15.300  -0.077  1.00  0.00     0.177 HD
ENDBRANCH  19  25
ENDBRANCH  12  14
ENDBRANCH   9  11
ENDBRANCH   1   9
BRANCH   6  28
HETATM   28  N8  UNL     1      19.057  -5.982   3.611  1.00  0.00    -0.089 N
ATOM     29  H8  UNL     1      19.615  -5.722   4.425  1.00  0.00     0.213 HD
BRANCH  28  30
HETATM   30  O3  UNL     1      19.031  -5.133   2.541  1.00  0.00    -0.217 OA
BRANCH  30  31
HETATM   31  C7  UNL     1      19.436  -3.825   2.587  1.00  0.00     0.177 A
HETATM   32  C8  UNL     1      19.775  -3.154   1.441  1.00  0.00     0.085 A
HETATM   33  C9  UNL     1      20.186  -1.814   1.506  1.00  0.00     0.109 A
HETATM   34  C10 UNL     1      20.232  -1.220   2.758  1.00  0.00     0.188 A
HETATM   35  O7  UNL     1      19.896  -1.914   3.820  1.00  0.00    -0.263 OA
HETATM   36  C12 UNL     1      19.509  -3.165   3.783  1.00  0.00     0.325 A
HETATM   37  O8  UNL     1      19.197  -3.777   4.867  1.00  0.00    -0.257 OA
BRANCH  33  38
HETATM   38  O4  UNL     1      20.535  -1.106   0.367  1.00  0.00    -0.358 OA
ATOM     39  H4  UNL     1      21.341  -0.607   0.320  1.00  0.00     0.217 HD
ENDBRANCH  33  38
BRANCH  34  40
HETATM   40  C11 UNL     1      20.656   0.182   2.872  1.00  0.00     0.237 C
HETATM   41  O5  UNL     1      21.867   0.477   2.885  1.00  0.00    -0.642 OA
HETATM   42  O6  UNL     1      19.707   1.160   2.962  1.00  0.00    -0.642 OA
ENDBRANCH  34  40
ENDBRANCH  30  31
ENDBRANCH  28  30
ENDBRANCH   6  28
TORSDOF 10
ENDMDL