MODEL 2
REMARK VINA RESULT: -10.005368970      3.649      4.464
REMARK  8 active torsions:
REMARK  status: ('A' for Active; 'I' for Inactive)
REMARK       I    between atoms: N1_2  and  C2_4
REMARK       I    between atoms: C2_4  and  N2_6
REMARK    1  A    between atoms: N2_6  and  N3_8
REMARK    2  A    between atoms: N4_10  and  C3_12
REMARK    3  A    between atoms: C6_19  and  N7_20
REMARK    4  A    between atoms: N7_20  and  N8_22
REMARK    5  A    between atoms: N8_22  and  C7_24
REMARK    6  A    between atoms: C8_27  and  N10_28
REMARK    7  A    between atoms: N10_28  and  N11_30
REMARK    8  A    between atoms: N12_33  and  O5_34
ROOT
HETATM    1  C3  UNL     1      19.424  -8.379   4.833  1.00  0.00     0.169 A
HETATM    2  N5  UNL     1      18.362  -8.600   5.598  1.00  0.00    -0.301 N
ATOM      3  H5  UNL     1      18.229  -9.559   5.919  1.00  0.00     0.171 HD
HETATM    4  C4  UNL     1      17.462  -7.724   5.989  1.00  0.00     0.274 A
HETATM    5  O2  UNL     1      16.526  -8.205   6.734  1.00  0.00    -0.266 OA
HETATM    6  C5  UNL     1      17.393  -6.379   5.708  1.00  0.00     0.149 A
HETATM    7  N6  UNL     1      16.281  -5.619   6.268  1.00  0.00    -0.093 NA
HETATM    8  C6  UNL     1      18.325  -5.744   4.928  1.00  0.00     0.122 A
HETATM    9  S1  UNL     1      19.577  -6.759   4.336  1.00  0.00    -0.031 SA
ENDROOT
BRANCH   8  10
HETATM   10  N7  UNL     1      18.275  -4.371   4.627  1.00  0.00    -0.278 N
ATOM     11  H7  UNL     1      17.373  -3.898   4.694  1.00  0.00     0.188 HD
BRANCH  10  12
HETATM   12  N8  UNL     1      19.357  -3.634   4.252  1.00  0.00    -0.132 N
ATOM     13  H8  UNL     1      20.177  -3.654   4.857  1.00  0.00     0.205 HD
BRANCH  12  14
HETATM   14  C7  UNL     1      19.422  -2.834   3.068  1.00  0.00     0.691 C
HETATM   15  N9  UNL     1      19.254  -1.558   3.223  1.00  0.00    -0.188 N
HETATM   16  C8  UNL     1      19.262  -0.480   2.231  1.00  0.00     0.324 C
ATOM     17  H9  UNL     1      19.091  -1.258   4.185  1.00  0.00     0.181 HD
HETATM   18  N12 UNL     1      20.337  -0.786   1.311  1.00  0.00    -0.154 NA
HETATM   19  C9  UNL     1      19.875  -1.631   0.239  1.00  0.00     0.145 C
HETATM   20  C10 UNL     1      20.185  -3.076   0.571  1.00  0.00     0.155 C
HETATM   21  N13 UNL     1      19.658  -3.478   1.836  1.00  0.00    -0.224 N
ATOM     22  H13 UNL     1      19.390  -4.462   1.852  1.00  0.00     0.177 HD
BRANCH  16  23
HETATM   23  N10 UNL     1      19.490   0.788   2.850  1.00  0.00    -0.238 N
ATOM     24  H10 UNL     1      19.139   1.639   2.411  1.00  0.00     0.190 HD
BRANCH  23  25
HETATM   25  N11 UNL     1      20.181   0.863   4.039  1.00  0.00    -0.041 N
HETATM   26  O3  UNL     1      21.421   0.684   4.026  1.00  0.00    -0.517 OA
HETATM   27  O4  UNL     1      19.497   1.130   5.203  1.00  0.00    -0.517 OA
ENDBRANCH  23  25
ENDBRANCH  16  23
BRANCH  18  28
HETATM   28  O5  UNL     1      21.029   0.279   0.914  1.00  0.00    -0.309 OA
ATOM     29  H5  UNL     1      21.276   0.259  -0.003  1.00  0.00     0.237 HD
ENDBRANCH  18  28
ENDBRANCH  12  14
ENDBRANCH  10  12
ENDBRANCH   8  10
BRANCH   1  30
HETATM   30  N4  UNL     1      20.326  -9.440   4.487  1.00  0.00    -0.265 N
HETATM   31  N3  UNL     1      21.288  -9.648   5.276  1.00  0.00    -0.237 N
ATOM     32  H3  UNL     1      21.373  -9.061   6.105  1.00  0.00     0.208 HD
ATOM     33  H4  UNL     1      20.195  -9.998   3.644  1.00  0.00     0.190 HD
BRANCH  31  34
HETATM   34  N2  UNL     1      22.241 -10.644   5.067  1.00  0.00    -0.237 N
HETATM   35  C2  UNL     1      23.267 -10.852   6.025  1.00  0.00     0.335 C
HETATM   36  N1  UNL     1      24.243 -11.873   5.809  1.00  0.00    -0.346 N
HETATM   37  O1  UNL     1      23.302 -10.126   7.058  1.00  0.00    -0.246 OA
HETATM   38  C1  UNL     1      25.303 -12.119   6.754  1.00  0.00     0.151 C
ATOM     39  H1  UNL     1      24.188 -12.443   4.965  1.00  0.00     0.163 HD
ATOM     40  H2  UNL     1      22.201 -11.222   4.227  1.00  0.00     0.193 HD
ENDBRANCH  31  34
ENDBRANCH   1  30
TORSDOF 8
ENDMDL