MODEL 2
REMARK VINA RESULT: -8.351467726      4.640      9.074
REMARK  11 active torsions:
REMARK  status: ('A' for Active; 'I' for Inactive)
REMARK    1  A    between atoms: N1_2  and  N2_3
REMARK    2  A    between atoms: N3_6  and  C4_7
REMARK    3  A    between atoms: C6_12  and  N5_13
REMARK    4  A    between atoms: N5_13  and  C7_15
REMARK    5  A    between atoms: N7_19  and  C9_20
REMARK    6  A    between atoms: C9_20  and  O1_21
REMARK    7  A    between atoms: C9_20  and  N8_23
REMARK       I    between atoms: N8_23  and  C10_25
REMARK    8  A    between atoms: C10_25  and  C11_27
REMARK    9  A    between atoms: C11_27  and  O3_28
REMARK   10  A    between atoms: C11_27  and  C12_30
REMARK   11  A    between atoms: C12_30  and  O4_32
ROOT
HETATM    1  C7  UNL     1      17.858  -6.876   6.004  1.00  0.00     0.695 C
HETATM    2  N6  UNL     1      16.967  -6.065   5.543  1.00  0.00    -0.211 N
ATOM      3  H6  UNL     1      16.100  -6.414   5.133  1.00  0.00     0.179 HD
HETATM    4  C8  UNL     1      17.236  -4.643   5.626  1.00  0.00     0.259 C
HETATM    5  N7  UNL     1      18.622  -4.332   5.365  1.00  0.00    -0.151 NA
HETATM    6  N9  UNL     1      19.506  -5.116   6.057  1.00  0.00    -0.243 N
ATOM      7  H9  UNL     1      20.475  -4.830   6.195  1.00  0.00     0.203 HD
HETATM    8  N10 UNL     1      19.031  -6.303   6.556  1.00  0.00    -0.122 N
ATOM      9  H10 UNL     1      19.519  -6.771   7.320  1.00  0.00     0.206 HD
ENDROOT
BRANCH   1  10
HETATM   10  N5  UNL     1      17.676  -8.308   5.963  1.00  0.00    -0.181 N
ATOM     11  H5  UNL     1      18.413  -8.941   6.274  1.00  0.00     0.185 HD
BRANCH  10  12
HETATM   12  C6  UNL     1      16.422  -8.816   5.473  1.00  0.00     0.134 A
HETATM   13  C4  UNL     1      16.091  -9.532   4.363  1.00  0.00     0.083 A
HETATM   14  C5  UNL     1      14.771  -9.879   4.245  1.00  0.00     0.128 A
HETATM   15  N4  UNL     1      13.942  -9.494   5.198  1.00  0.00    -0.333 N
HETATM   16  S1  UNL     1      14.892  -8.662   6.280  1.00  0.00     0.006 SA
ATOM     17  H4  UNL     1      12.938  -9.669   5.257  1.00  0.00     0.173 HD
BRANCH  13  18
HETATM   18  N3  UNL     1      17.037  -9.893   3.317  1.00  0.00    -0.363 N
HETATM   19  C3  UNL     1      18.227  -9.149   2.922  1.00  0.00     0.140 C
HETATM   20  C2  UNL     1      19.202 -10.304   2.672  1.00  0.00     0.131 C
HETATM   21  N2  UNL     1      18.396 -11.335   2.077  1.00  0.00    -0.216 NA
HETATM   22  C14 UNL     1      17.010 -11.069   2.509  1.00  0.00     0.233 C
BRANCH  21  23
HETATM   23  N1  UNL     1      18.765 -12.618   2.422  1.00  0.00    -0.168 NA
HETATM   24  C1  UNL     1      19.572 -13.273   1.433  1.00  0.00     0.152 C
ENDBRANCH  21  23
ENDBRANCH  13  18
ENDBRANCH  10  12
ENDBRANCH   1  10
BRANCH   5  25
HETATM   25  C9  UNL     1      18.820  -4.279   3.950  1.00  0.00     0.324 C
BRANCH  25  26
HETATM   26  O1  UNL     1      19.542  -5.346   3.470  1.00  0.00    -0.362 OA
ATOM     27  H1  UNL     1      20.477  -5.181   3.453  1.00  0.00     0.213 HD
ENDBRANCH  25  26
BRANCH  25  28
HETATM   28  N8  UNL     1      19.451  -3.045   3.531  1.00  0.00    -0.319 N
HETATM   29  C10 UNL     1      19.244  -2.519   2.249  1.00  0.00     0.252 C
HETATM   30  O2  UNL     1      18.485  -3.144   1.444  1.00  0.00    -0.270 OA
ATOM     31  H8  UNL     1      20.059  -2.549   4.182  1.00  0.00     0.166 HD
BRANCH  29  32
HETATM   32  C11 UNL     1      19.906  -1.257   1.856  1.00  0.00     0.238 C
BRANCH  32  33
HETATM   33  O3  UNL     1      20.819  -1.486   0.846  1.00  0.00    -0.384 OA
ATOM     34  H3  UNL     1      21.049  -0.670   0.417  1.00  0.00     0.210 HD
ENDBRANCH  32  33
BRANCH  32  35
HETATM   35  C12 UNL     1      20.582  -0.575   3.043  1.00  0.00     0.152 C
HETATM   36  C13 UNL     1      19.733   0.602   3.456  1.00  0.00     0.042 C
BRANCH  35  37
HETATM   37  O4  UNL     1      21.856  -0.157   2.670  1.00  0.00    -0.393 OA
ATOM     38  H4  UNL     1      22.255   0.316   3.391  1.00  0.00     0.210 HD
ENDBRANCH  35  37
ENDBRANCH  32  35
ENDBRANCH  29  32
ENDBRANCH  25  28
ENDBRANCH   5  25
TORSDOF 11
ENDMDL