MODEL 2
REMARK VINA RESULT: -8.805802686      3.121      6.409
REMARK  9 active torsions:
REMARK  status: ('A' for Active; 'I' for Inactive)
REMARK       I    between atoms: N1_2  and  C2_4
REMARK    1  A    between atoms: C2_4  and  C3_6
REMARK    2  A    between atoms: C4_10  and  C5_11
REMARK    3  A    between atoms: C5_11  and  N3_12
REMARK    4  A    between atoms: N3_12  and  C6_13
REMARK    5  A    between atoms: N3_12  and  N6_25
REMARK    6  A    between atoms: C7_16  and  O3_17
REMARK    7  A    between atoms: C9_22  and  O4_23
REMARK    8  A    between atoms: C10_26  and  N7_27
REMARK    9  A    between atoms: C12_39  and  N12_40
ROOT
HETATM    1  N3  UNL     1      18.496  -7.877   4.076  1.00  0.00    -0.230 N
ENDROOT
BRANCH   1   2
HETATM    2  C5  UNL     1      18.458  -6.951   2.940  1.00  0.00     0.239 C
BRANCH   2   3
HETATM    3  C4  UNL     1      18.831  -5.569   3.370  1.00  0.00     0.168 A
HETATM    4  O2  UNL     1      19.097  -5.114   4.582  1.00  0.00    -0.221 OA
HETATM    5  N2  UNL     1      19.377  -3.866   4.559  1.00  0.00    -0.238 N
HETATM    6  C3  UNL     1      19.306  -3.426   3.289  1.00  0.00     0.196 A
ATOM      7  H2  UNL     1      19.616  -3.297   5.371  1.00  0.00     0.196 HD
HETATM    8  N14 UNL     1      18.964  -4.507   2.568  1.00  0.00    -0.317 N
ATOM      9  H14 UNL     1      18.827  -4.516   1.557  1.00  0.00     0.169 HD
BRANCH   6  10
HETATM   10  C2  UNL     1      19.553  -2.070   2.828  1.00  0.00     0.287 C
HETATM   11  N1  UNL     1      20.657  -1.325   3.307  1.00  0.00    -0.359 N
HETATM   12  C1  UNL     1      20.925   0.011   2.872  1.00  0.00     0.149 C
ATOM     13  H1  UNL     1      21.284  -1.756   3.987  1.00  0.00     0.162 HD
HETATM   14  O1  UNL     1      18.787  -1.530   1.991  1.00  0.00    -0.264 OA
ENDBRANCH   6  10
ENDBRANCH   2   3
ENDBRANCH   1   2
BRANCH   1  15
HETATM   15  C6  UNL     1      17.217  -8.031   4.701  1.00  0.00     0.162 A
HETATM   16  N4  UNL     1      16.792  -7.197   5.688  1.00  0.00    -0.305 N
HETATM   17  C7  UNL     1      15.631  -7.324   6.325  1.00  0.00     0.222 A
ATOM     18  H4  UNL     1      17.402  -6.424   5.956  1.00  0.00     0.171 HD
HETATM   19  N5  UNL     1      14.836  -8.346   5.964  1.00  0.00    -0.330 N
HETATM   20  C8  UNL     1      15.170  -9.222   5.001  1.00  0.00     0.132 A
ATOM     21  H5  UNL     1      13.943  -8.462   6.441  1.00  0.00     0.168 HD
HETATM   22  C9  UNL     1      16.384  -9.066   4.353  1.00  0.00     0.127 A
BRANCH  17  23
HETATM   23  O3  UNL     1      15.213  -6.464   7.328  1.00  0.00    -0.332 OA
ATOM     24  H3  UNL     1      14.685  -5.691   7.167  1.00  0.00     0.220 HD
ENDBRANCH  17  23
BRANCH  22  25
HETATM   25  O4  UNL     1      16.688  -9.990   3.367  1.00  0.00    -0.356 OA
ATOM     26  H4  UNL     1      17.234 -10.752   3.516  1.00  0.00     0.218 HD
ENDBRANCH  22  25
ENDBRANCH   1  15
BRANCH   1  27
HETATM   27  N6  UNL     1      19.633  -8.560   4.474  1.00  0.00     0.098 N
HETATM   28  C10 UNL     1      20.430  -8.262   5.501  1.00  0.00     0.728 A
HETATM   29  N8  UNL     1      21.391  -9.235   5.525  1.00  0.00    -0.094 N
HETATM   30  N9  UNL     1      21.185 -10.085   4.555  1.00  0.00     0.107 N
ATOM     31  H8  UNL     1      22.154  -9.290   6.199  1.00  0.00     0.207 HD
HETATM   32  C11 UNL     1      21.874 -11.208   4.192  1.00  0.00     0.727 A
HETATM   33  C13 UNL     1      20.093  -9.690   3.880  1.00  0.00     0.770 A
HETATM   34  N10 UNL     1      22.916 -11.560   4.858  1.00  0.00    -0.232 N
HETATM   35  N11 UNL     1      21.458 -11.929   3.150  1.00  0.00    -0.020 N
ATOM     36 2H10 UNL     1      23.234 -11.008   5.654  1.00  0.00     0.174 HD
ATOM     37 1H10 UNL     1      23.431 -12.398   4.587  1.00  0.00     0.174 HD
HETATM   38  C12 UNL     1      20.372 -11.565   2.453  1.00  0.00     0.705 A
ATOM     39  H11 UNL     1      21.972 -12.769   2.881  1.00  0.00     0.203 HD
HETATM   40  N13 UNL     1      19.723 -10.461   2.835  1.00  0.00    -0.017 N
ATOM     41  H13 UNL     1      18.897 -10.183   2.305  1.00  0.00     0.203 HD
BRANCH  28  42
HETATM   42  N7  UNL     1      20.453  -7.317   6.362  1.00  0.00    -0.231 N
ATOM     43  H72 UNL     1      21.333  -6.852   6.588  1.00  0.00     0.174 HD
ATOM     44  H71 UNL     1      19.741  -6.860   6.931  1.00  0.00     0.174 HD
ENDBRANCH  28  42
BRANCH  38  45
HETATM   45  N12 UNL     1      20.011 -12.293   1.455  1.00  0.00    -0.234 N
ATOM     46 2H12 UNL     1      19.241 -12.961   1.493  1.00  0.00     0.174 HD
ATOM     47 1H12 UNL     1      20.520 -12.199   0.576  1.00  0.00     0.174 HD
ENDBRANCH  38  45
ENDBRANCH   1  27
TORSDOF 9
ENDMDL