MODEL 2
REMARK VINA RESULT: -7.872229944      4.882      9.429
REMARK  9 active torsions:
REMARK  status: ('A' for Active; 'I' for Inactive)
REMARK    1  A    between atoms: O1_2  and  C2_3
REMARK    2  A    between atoms: C4_5  and  N1_6
REMARK    3  A    between atoms: N1_6  and  C5_8
REMARK    4  A    between atoms: C10_14  and  N2_15
REMARK    5  A    between atoms: N2_15  and  C11_17
REMARK    6  A    between atoms: C11_17  and  O3_18
REMARK    7  A    between atoms: C11_17  and  C12_20
REMARK    8  A    between atoms: C14_25  and  C15_26
REMARK    9  A    between atoms: C17_30  and  S2_31
ROOT
HETATM    1  C11 UNL     1     -10.246  11.121  15.592  1.00  0.00     0.158 C
ENDROOT
BRANCH   1   2
HETATM    2  N2  UNL     1     -10.752  11.741  16.703  1.00  0.00    -0.333 N
ATOM      3  H2  UNL     1     -10.124  12.149  17.395  1.00  0.00     0.168 HD
BRANCH   2   4
HETATM    4  C10 UNL     1     -12.199  11.813  16.888  1.00  0.00     0.074 A
HETATM    5  C2  UNL     1     -12.818  10.773  17.540  1.00  0.00     0.097 A
HETATM    6  C3  UNL     1     -14.196  10.818  17.729  1.00  0.00     0.069 A
HETATM    7  C4  UNL     1     -14.973  11.855  17.295  1.00  0.00     0.043 A
HETATM    8  C6  UNL     1     -14.306  12.907  16.628  1.00  0.00    -0.027 A
HETATM    9  C7  UNL     1     -15.072  14.063  16.128  1.00  0.00     0.051 C
HETATM   10  C8  UNL     1     -12.944  12.870  16.437  1.00  0.00    -0.024 A
HETATM   11  C9  UNL     1     -12.294  13.994  15.735  1.00  0.00     0.051 C
BRANCH   5  12
HETATM   12  O1  UNL     1     -12.103   9.697  18.005  1.00  0.00    -0.354 OA
HETATM   13  C1  UNL     1     -12.780   8.568  18.506  1.00  0.00     0.210 C
ENDBRANCH   5  12
BRANCH   7  14
HETATM   14  N1  UNL     1     -16.367  11.958  17.457  1.00  0.00    -0.334 N
ATOM     15  H1  UNL     1     -16.891  12.415  16.711  1.00  0.00     0.168 HD
BRANCH  14  16
HETATM   16  C5  UNL     1     -17.093  11.489  18.549  1.00  0.00     0.353 C
HETATM   17  O2  UNL     1     -17.520  10.345  18.745  1.00  0.00    -0.283 OA
ENDBRANCH  14  16
ENDBRANCH   7  14
ENDBRANCH   2   4
ENDBRANCH   1   2
BRANCH   1  18
HETATM   18  O3  UNL     1     -10.889  11.359  14.469  1.00  0.00    -0.345 OA
ATOM     19  H3  UNL     1     -11.677  10.847  14.333  1.00  0.00     0.219 HD
ENDBRANCH   1  18
BRANCH   1  20
HETATM   20  C12 UNL     1      -9.085  10.229  15.458  1.00  0.00     0.064 A
HETATM   21  S1  UNL     1      -8.164  10.030  13.995  1.00  0.00    -0.067 SA
HETATM   22  C13 UNL     1      -7.008   8.910  14.548  1.00  0.00     0.087 A
HETATM   23  N3  UNL     1      -5.938   8.312  13.921  1.00  0.00    -0.349 N
HETATM   24  C19 UNL     1      -7.357   8.707  15.859  1.00  0.00     0.022 A
HETATM   25  C14 UNL     1      -5.127   7.464  14.562  1.00  0.00     0.076 A
ATOM     26  H3  UNL     1      -5.758   8.522  12.940  1.00  0.00     0.166 HD
HETATM   27  C16 UNL     1      -5.445   7.243  15.873  1.00  0.00     0.050 A
HETATM   28  C17 UNL     1      -6.507   7.815  16.550  1.00  0.00     0.015 A
HETATM   29  C20 UNL     1      -8.437   9.393  16.314  1.00  0.00    -0.026 A
HETATM   30  C21 UNL     1      -9.031   9.178  17.704  1.00  0.00     0.050 C
BRANCH  25  31
HETATM   31  C15 UNL     1      -3.981   6.828  13.874  1.00  0.00     0.403 C
HETATM   32  F1  UNL     1      -4.116   5.467  13.771  1.00  0.00    -0.208 F
HETATM   33  F2  UNL     1      -3.894   7.421  12.613  1.00  0.00    -0.208 F
ENDBRANCH  25  31
BRANCH  28  34
HETATM   34  S2  UNL     1      -6.673   7.425  18.294  1.00  0.00    -0.133 SA
HETATM   35  C18 UNL     1      -5.065   6.970  19.006  1.00  0.00     0.095 C
ENDBRANCH  28  34
ENDBRANCH   1  20
TORSDOF 9
ENDMDL