MODEL 5
REMARK VINA RESULT: -6.463940793      3.923      8.124
REMARK  9 active torsions:
REMARK  status: ('A' for Active; 'I' for Inactive)
REMARK    1  A    between atoms: C8_10  and  C9_11
REMARK    2  A    between atoms: C9_11  and  O2_13
REMARK    3  A    between atoms: O2_13  and  C10_14
REMARK    4  A    between atoms: C12_16  and  C13_17
REMARK    5  A    between atoms: C15_21  and  S1_22
REMARK    6  A    between atoms: S1_22  and  C16_23
REMARK    7  A    between atoms: C16_23  and  C17_24
REMARK    8  A    between atoms: C17_24  and  C18_25
REMARK    9  A    between atoms: C21_29  and  O4_30
ROOT
HETATM    1  C1  UNL     1     -10.256   9.709  12.566  1.00  0.00     0.016 C
HETATM    2  C2  UNL     1      -9.710  10.073  13.734  1.00  0.00    -0.071 C
HETATM    3  C3  UNL     1      -8.616  11.096  13.579  1.00  0.00     0.038 C
HETATM    4  C4  UNL     1      -9.223  12.259  12.896  1.00  0.00     0.033 C
HETATM    5  C5  UNL     1      -9.381  13.498  13.652  1.00  0.00    -0.002 C
HETATM    6  C6  UNL     1     -10.027  13.696  14.794  1.00  0.00     0.002 C
HETATM    7  C7  UNL     1      -9.982  15.143  15.281  1.00  0.00     0.068 C
HETATM    8  N1  UNL     1     -10.719  12.753  15.576  1.00  0.00    -0.355 N
ATOM      9  H1  UNL     1     -11.732  12.863  15.514  1.00  0.00     0.166 HD
HETATM   10  C8  UNL     1     -10.343  11.691  16.428  1.00  0.00     0.116 C
HETATM   11  C12 UNL     1     -10.740  10.291  16.066  1.00  0.00    -0.005 C
HETATM   12  C15 UNL     1     -10.046   9.553  15.044  1.00  0.00     0.110 C
ENDROOT
BRANCH  12  13
HETATM   13  S1  UNL     1      -8.517   8.789  15.738  1.00  0.00    -0.155 SA
BRANCH  13  14
HETATM   14  C16 UNL     1      -8.916   7.444  16.858  1.00  0.00     0.080 C
BRANCH  14  15
HETATM   15  C17 UNL     1      -8.396   6.159  16.242  1.00  0.00     0.054 C
BRANCH  15  16
HETATM   16  C18 UNL     1      -8.100   5.140  17.280  1.00  0.00     0.003 A
HETATM   17  C19 UNL     1      -9.008   4.355  17.961  1.00  0.00     0.036 A
HETATM   18  C20 UNL     1      -8.266   3.574  18.812  1.00  0.00     0.145 A
HETATM   19  O3  UNL     1      -7.005   3.876  18.644  1.00  0.00    -0.300 OA
HETATM   20  C21 UNL     1      -6.851   4.802  17.744  1.00  0.00     0.189 A
BRANCH  20  21
HETATM   21  O4  UNL     1      -5.624   5.357  17.323  1.00  0.00    -0.340 OA
ATOM     22  H4  UNL     1      -5.417   6.282  17.255  1.00  0.00     0.220 HD
ENDBRANCH  20  21
ENDBRANCH  15  16
ENDBRANCH  14  15
ENDBRANCH  13  14
ENDBRANCH  12  13
BRANCH  11  23
HETATM   23  C13 UNL     1     -12.189  10.153  16.283  1.00  0.00     0.047 C
HETATM   24  C14 UNL     1     -13.110  10.732  16.942  1.00  0.00     0.104 C
HETATM   25 CL1  UNL     1     -13.061  12.113  18.006  1.00  0.00    -0.071 Cl
HETATM   26 CL2  UNL     1     -14.774  10.040  16.778  1.00  0.00    -0.071 Cl
ENDBRANCH  11  23
BRANCH  10  27
HETATM   27  C9  UNL     1      -9.071  11.820  17.177  1.00  0.00     0.310 C
HETATM   28  O1  UNL     1      -7.981  12.147  16.638  1.00  0.00    -0.258 OA
BRANCH  27  29
HETATM   29  O2  UNL     1      -9.018  11.586  18.539  1.00  0.00    -0.317 OA
BRANCH  29  30
HETATM   30  C10 UNL     1      -9.304  10.279  19.075  1.00  0.00     0.175 C
HETATM   31  C11 UNL     1     -10.588  10.367  19.862  1.00  0.00     0.034 C
ENDBRANCH  29  30
ENDBRANCH  27  29
ENDBRANCH  10  27
TORSDOF 9
ENDMDL