MODEL 5
REMARK VINA RESULT: -8.281147323      2.637      3.986
REMARK  10 active torsions:
REMARK  status: ('A' for Active; 'I' for Inactive)
REMARK    1  A    between atoms: O1_2  and  C2_3
REMARK    2  A    between atoms: C4_5  and  C5_6
REMARK    3  A    between atoms: C6_7  and  C7_8
REMARK    4  A    between atoms: C7_8  and  C8_10
REMARK    5  A    between atoms: C11_14  and  O4_15
REMARK    6  A    between atoms: C12_17  and  C13_18
REMARK    7  A    between atoms: C16_21  and  C17_22
REMARK    8  A    between atoms: C19_27  and  C20_28
REMARK    9  A    between atoms: C20_28  and  N1_29
REMARK   10  A    between atoms: C25_34  and  O5_35
ROOT
HETATM    1  C8  UNL     1     -10.172  11.438  16.587  1.00  0.00     0.135 A
HETATM    2  O3  UNL     1     -10.681  10.740  17.559  1.00  0.00    -0.305 OA
HETATM    3  C9  UNL     1     -10.254   9.527  17.573  1.00  0.00     0.090 A
HETATM    4  C10 UNL     1     -10.504   8.455  18.384  1.00  0.00     0.075 A
HETATM    5  C11 UNL     1      -9.909   7.234  18.194  1.00  0.00     0.075 A
HETATM    6  C12 UNL     1      -8.986   7.048  17.117  1.00  0.00    -0.005 A
HETATM    7  C16 UNL     1      -8.737   8.142  16.325  1.00  0.00     0.070 A
HETATM    8  C18 UNL     1      -9.355   9.397  16.492  1.00  0.00     0.024 A
HETATM    9  C19 UNL     1      -9.293  10.592  15.834  1.00  0.00     0.011 A
ENDROOT
BRANCH   1  10
HETATM   10  C7  UNL     1     -10.425  12.845  16.281  1.00  0.00     0.206 C
HETATM   11  O2  UNL     1      -9.462  13.682  16.378  1.00  0.00    -0.285 OA
BRANCH  10  12
HETATM   12  C6  UNL     1     -11.690  13.310  15.883  1.00  0.00     0.058 C
HETATM   13  C5  UNL     1     -12.940  13.364  15.969  1.00  0.00     0.015 C
BRANCH  13  14
HETATM   14  C4  UNL     1     -13.884  12.701  16.869  1.00  0.00    -0.033 A
HETATM   15  C3  UNL     1     -13.306  12.005  17.989  1.00  0.00     0.051 A
HETATM   16  C2  UNL     1     -14.207  11.417  18.879  1.00  0.00     0.102 A
HETATM   17  C25 UNL     1     -15.534  11.497  18.694  1.00  0.00     0.099 A
HETATM   18  C24 UNL     1     -16.102  12.154  17.624  1.00  0.00     0.040 A
HETATM   19  C23 UNL     1     -15.202  12.759  16.709  1.00  0.00     0.014 A
BRANCH  16  20
HETATM   20  O1  UNL     1     -13.670  10.737  19.975  1.00  0.00    -0.353 OA
HETATM   21  C1  UNL     1     -13.565   9.346  20.083  1.00  0.00     0.210 C
ENDBRANCH  16  20
BRANCH  17  22
HETATM   22  O5  UNL     1     -16.460  10.918  19.595  1.00  0.00    -0.358 OA
ATOM     23  H5  UNL     1     -16.937  10.123  19.392  1.00  0.00     0.217 HD
ENDBRANCH  17  22
ENDBRANCH  13  14
ENDBRANCH  10  12
ENDBRANCH   1  10
BRANCH   9  24
HETATM   24  C20 UNL     1      -8.558  11.050  14.684  1.00  0.00     0.158 C
BRANCH  24  25
HETATM   25  N1  UNL     1      -9.412  11.101  13.519  1.00  0.00    -0.417 N
HETATM   26  C21 UNL     1      -9.660  10.045  12.677  1.00  0.00     0.142 C
HETATM   27  C22 UNL     1      -9.238  12.393  12.842  1.00  0.00     0.142 C
ENDBRANCH  24  25
ENDBRANCH   9  24
BRANCH   7  28
HETATM   28  C17 UNL     1      -7.482   8.137  15.557  1.00  0.00     0.419 C
HETATM   29  F1  UNL     1      -6.655   7.152  16.287  1.00  0.00    -0.166 F
HETATM   30  F2  UNL     1      -6.561   9.114  16.248  1.00  0.00    -0.166 F
HETATM   31  F3  UNL     1      -7.219   7.996  14.345  1.00  0.00    -0.166 F
ENDBRANCH   7  28
BRANCH   5  32
HETATM   32  O4  UNL     1     -10.224   6.259  19.041  1.00  0.00    -0.360 OA
ATOM     33  H4  UNL     1     -11.129   5.967  19.059  1.00  0.00     0.217 HD
ENDBRANCH   5  32
BRANCH   6  34
HETATM   34  C13 UNL     1      -8.451   5.737  16.989  1.00  0.00     0.014 C
HETATM   35  C14 UNL     1      -9.347   4.616  16.545  1.00  0.00     0.015 C
HETATM   36  C15 UNL     1      -7.705   5.221  18.242  1.00  0.00     0.015 C
ENDBRANCH   6  34
TORSDOF 10
ENDMDL