MODEL 1
REMARK VINA RESULT: -8.544422569      0.000      0.000
REMARK  7 active torsions:
REMARK  status: ('A' for Active; 'I' for Inactive)
REMARK    1  A    between atoms: C2_2  and  C3_3
REMARK    2  A    between atoms: C3_3  and  C4_4
REMARK    3  A    between atoms: C4_4  and  N1_5
REMARK    4  A    between atoms: C10_11  and  N2_12
REMARK    5  A    between atoms: N2_12  and  C11_13
REMARK    6  A    between atoms: N2_12  and  C13_15
REMARK    7  A    between atoms: C13_15  and  C14_16
ROOT
HETATM    1  N1  UNL     1     -10.571  10.665  16.228  1.00  0.00    -0.344 N
HETATM    2  C5  UNL     1      -9.457   9.988  15.855  1.00  0.00     0.054 A
HETATM    3  C6  UNL     1      -8.919  10.233  14.604  1.00  0.00    -0.034 A
HETATM    4  C7  UNL     1      -9.591  11.061  13.595  1.00  0.00     0.050 C
HETATM    5  C8  UNL     1      -7.782   9.496  14.210  1.00  0.00     0.011 A
HETATM    6  C9  UNL     1      -7.259   8.581  15.034  1.00  0.00     0.031 A
HETATM    7  C10 UNL     1      -7.794   8.288  16.325  1.00  0.00     0.043 A
HETATM    8  C15 UNL     1      -8.888   8.989  16.728  1.00  0.00     0.030 A
HETATM    9  C16 UNL     1      -9.472   8.679  17.997  1.00  0.00    -0.001 A
HETATM   10  C17 UNL     1      -9.013   7.840  18.961  1.00  0.00     0.064 A
HETATM   11  S1  UNL     1     -10.144   8.039  20.276  1.00  0.00    -0.096 SA
HETATM   12  C18 UNL     1     -11.149   9.173  19.564  1.00  0.00     0.061 A
HETATM   13  C19 UNL     1     -12.237   9.822  20.197  1.00  0.00     0.118 C
HETATM   14  N3  UNL     1     -12.672   9.207  21.206  1.00  0.00    -0.384 N
ATOM     15  H31 UNL     1     -13.455   9.674  21.662  1.00  0.00     0.157 HD
ATOM     16  H32 UNL     1     -12.268   8.316  21.495  1.00  0.00     0.157 HD
HETATM   17  N4  UNL     1     -12.786  11.033  19.803  1.00  0.00    -0.326 N
ATOM     18  H4  UNL     1     -12.899  11.788  20.479  1.00  0.00     0.169 HD
HETATM   19  C20 UNL     1     -13.176  11.212  18.501  1.00  0.00     0.135 A
HETATM   20  N5  UNL     1     -14.336  11.628  17.997  1.00  0.00    -0.285 N
ATOM     21  H5  UNL     1     -15.123  11.973  18.547  1.00  0.00     0.188 HD
HETATM   22  N6  UNL     1     -14.318  11.528  16.658  1.00  0.00    -0.309 N
ATOM     23  H6  UNL     1     -15.084  11.782  16.035  1.00  0.00     0.186 HD
HETATM   24  C21 UNL     1     -13.112  11.031  16.266  1.00  0.00     0.124 A
HETATM   25  C22 UNL     1     -12.399  10.837  17.362  1.00  0.00     0.054 A
HETATM   26  C23 UNL     1     -11.093  10.315  17.417  1.00  0.00     0.063 A
HETATM   27  C24 UNL     1     -10.596   9.375  18.311  1.00  0.00     0.024 A
ENDROOT
BRANCH   7  28
HETATM   28  N2  UNL     1      -7.071   7.262  16.967  1.00  0.00    -0.375 N
BRANCH  28  29
HETATM   29  C11 UNL     1      -6.008   7.650  17.886  1.00  0.00     0.119 C
HETATM   30  C12 UNL     1      -5.425   6.517  18.660  1.00  0.00     0.026 C
ENDBRANCH  28  29
BRANCH  28  31
HETATM   31  C13 UNL     1      -7.238   5.862  16.685  1.00  0.00     0.194 C
BRANCH  31  32
HETATM   32  C14 UNL     1      -8.548   5.241  16.985  1.00  0.00     0.370 C
HETATM   33  F1  UNL     1      -8.550   3.911  17.289  1.00  0.00    -0.213 F
HETATM   34  F2  UNL     1      -9.342   5.365  15.830  1.00  0.00    -0.213 F
ENDBRANCH  31  32
ENDBRANCH  28  31
ENDBRANCH   7  28
BRANCH   1  35
HETATM   35  C4  UNL     1     -10.838  11.840  15.556  1.00  0.00     0.129 C
BRANCH  35  36
HETATM   36  C3  UNL     1     -10.008  13.070  16.163  1.00  0.00     0.020 C
BRANCH  36  37
HETATM   37  C2  UNL     1     -10.310  14.348  15.403  1.00  0.00    -0.003 C
HETATM   38  C1  UNL     1     -11.694  14.378  14.866  1.00  0.00     0.005 C
ENDBRANCH  36  37
ENDBRANCH  35  36
ENDBRANCH   1  35
TORSDOF 7
ENDMDL