MODEL 2
REMARK VINA RESULT: -7.827238242      3.646      5.334
REMARK  8 active torsions:
REMARK  status: ('A' for Active; 'I' for Inactive)
REMARK    1  A    between atoms: C2_2  and  C3_3
REMARK    2  A    between atoms: C3_3  and  C4_4
REMARK    3  A    between atoms: C4_4  and  C5_5
REMARK    4  A    between atoms: C4_4  and  O1_7
REMARK    5  A    between atoms: O1_7  and  C6_8
REMARK    6  A    between atoms: C8_10  and  C9_11
REMARK    7  A    between atoms: C10_12  and  C11_13
REMARK    8  A    between atoms: C16_18  and  O2_19
ROOT
HETATM    1  C6  UNL     1     -14.108  10.327  19.200  1.00  0.00     0.116 A
HETATM    2  C7  UNL     1     -13.207  10.506  18.155  1.00  0.00     0.069 A
HETATM    3  C8  UNL     1     -12.169   9.648  17.889  1.00  0.00     0.035 A
HETATM    4  N1  UNL     1     -12.012   8.578  18.679  1.00  0.00    -0.351 N
ATOM      5  H1  UNL     1     -11.252   7.919  18.511  1.00  0.00     0.166 HD
HETATM    6  C18 UNL     1     -12.863   8.383  19.691  1.00  0.00     0.108 A
HETATM    7  C19 UNL     1     -12.865   7.332  20.620  1.00  0.00     0.130 A
HETATM    8 BR1  UNL     1     -11.643   5.885  20.694  1.00  0.00    -0.027 Br
HETATM    9  N2  UNL     1     -13.913   7.608  21.411  1.00  0.00    -0.251 N
ATOM     10  H2  UNL     1     -14.210   7.041  22.205  1.00  0.00     0.195 HD
HETATM   11  O3  UNL     1     -14.489   8.686  21.026  1.00  0.00    -0.232 OA
HETATM   12  C20 UNL     1     -13.927   9.229  19.993  1.00  0.00     0.162 A
ENDROOT
BRANCH   3  13
HETATM   13  C9  UNL     1     -11.243   9.874  16.776  1.00  0.00     0.030 C
HETATM   14  C10 UNL     1     -11.355  10.963  16.058  1.00  0.00     0.014 C
BRANCH  14  15
HETATM   15  C11 UNL     1     -10.493  11.291  14.931  1.00  0.00    -0.033 A
HETATM   16  C12 UNL     1     -10.308  12.585  14.531  1.00  0.00     0.018 A
HETATM   17  C13 UNL     1      -9.490  12.915  13.458  1.00  0.00    -0.059 A
HETATM   18  C14 UNL     1      -9.296  14.310  13.033  1.00  0.00     0.048 C
HETATM   19  C15 UNL     1      -8.863  11.881  12.805  1.00  0.00     0.043 A
HETATM   20  C16 UNL     1      -9.041  10.577  13.199  1.00  0.00     0.067 A
HETATM   21  C17 UNL     1      -9.849  10.266  14.254  1.00  0.00     0.048 A
BRANCH  20  22
HETATM   22  O2  UNL     1      -8.403   9.538  12.531  1.00  0.00    -0.361 OA
ATOM     23  H2  UNL     1      -8.126   8.757  12.996  1.00  0.00     0.217 HD
ENDBRANCH  20  22
ENDBRANCH  14  15
ENDBRANCH   3  13
BRANCH   1  24
HETATM   24  O1  UNL     1     -15.064  11.219  19.356  1.00  0.00    -0.311 OA
BRANCH  24  25
HETATM   25  C4  UNL     1     -16.119  11.721  18.554  1.00  0.00     0.063 C
BRANCH  25  26
HETATM   26  C3  UNL     1     -15.586  11.951  17.224  1.00  0.00     0.007 C
BRANCH  26  27
HETATM   27  C2  UNL     1     -15.320  13.209  16.561  1.00  0.00     0.025 C
HETATM   28  C1  UNL     1     -13.920  13.738  16.477  1.00  0.00     0.009 C
ENDBRANCH  26  27
ENDBRANCH  25  26
BRANCH  25  29
HETATM   29  C5  UNL     1     -17.412  11.111  18.861  1.00  0.00     0.179 C
HETATM   30 CL1  UNL     1     -17.530   9.560  19.608  1.00  0.00    -0.123 Cl
ENDBRANCH  25  29
ENDBRANCH  24  25
ENDBRANCH   1  24
TORSDOF 8
ENDMDL