MODEL 3
REMARK VINA RESULT: -7.539911322      2.730      5.261
REMARK  9 active torsions:
REMARK  status: ('A' for Active; 'I' for Inactive)
REMARK    1  A    between atoms: C2_2  and  N1_3
REMARK    2  A    between atoms: N1_3  and  C3_4
REMARK    3  A    between atoms: N1_3  and  C5_6
REMARK    4  A    between atoms: C5_6  and  N2_7
REMARK    5  A    between atoms: C6_8  and  O1_9
REMARK    6  A    between atoms: C7_11  and  N3_12
REMARK    7  A    between atoms: N4_14  and  C8_16
REMARK    8  A    between atoms: C14_24  and  C15_25
REMARK    9  A    between atoms: C17_29  and  C18_30
ROOT
HETATM    1  C15 UNL     1      -8.279   9.950  14.853  1.00  0.00     0.201 C
HETATM    2  N5  UNL     1      -7.701   9.531  13.582  1.00  0.00    -0.066 NA
HETATM    3  N6  UNL     1      -8.577  11.110  14.758  1.00  0.00    -0.413 NA
HETATM    4  C16 UNL     1      -8.920  12.400  14.685  1.00  0.00     0.230 C
ENDROOT
BRANCH   1   5
HETATM    5  C14 UNL     1      -8.448   9.103  16.032  1.00  0.00     0.075 A
HETATM    6  C7  UNL     1      -9.734   9.079  16.634  1.00  0.00     0.116 A
HETATM    7  C6  UNL     1      -9.655   8.235  17.691  1.00  0.00     0.177 A
HETATM    8  N2  UNL     1      -8.411   7.705  17.823  1.00  0.00    -0.288 N
HETATM    9  C17 UNL     1      -7.683   8.248  16.797  1.00  0.00     0.044 A
BRANCH   6  10
HETATM   10  N3  UNL     1     -10.892   9.800  16.215  1.00  0.00    -0.295 N
HETATM   11  N4  UNL     1     -11.224  10.803  16.882  1.00  0.00    -0.299 N
ATOM     12  H4  UNL     1     -10.628  11.020  17.681  1.00  0.00     0.187 HD
ATOM     13  H3  UNL     1     -11.429   9.508  15.398  1.00  0.00     0.187 HD
BRANCH  11  14
HETATM   14  C8  UNL     1     -12.304  11.667  16.679  1.00  0.00     0.070 A
HETATM   15  C9  UNL     1     -12.100  12.953  16.235  1.00  0.00     0.034 A
HETATM   16  C10 UNL     1     -13.175  13.827  16.029  1.00  0.00     0.026 A
HETATM   17  C11 UNL     1     -14.463  13.405  16.272  1.00  0.00     0.035 A
HETATM   18 CL1  UNL     1     -15.795  14.507  16.011  1.00  0.00    -0.084 Cl
HETATM   19  C12 UNL     1     -14.681  12.122  16.717  1.00  0.00     0.050 A
HETATM   20  C13 UNL     1     -13.600  11.268  16.915  1.00  0.00     0.063 A
HETATM   21 CL2  UNL     1     -13.919   9.656  17.479  1.00  0.00    -0.082 Cl
ENDBRANCH  11  14
ENDBRANCH   6  10
BRANCH   7  22
HETATM   22  O1  UNL     1     -10.753   7.969  18.524  1.00  0.00    -0.344 OA
ATOM     23  H1  UNL     1     -11.215   8.607  19.055  1.00  0.00     0.219 HD
ENDBRANCH   7  22
BRANCH   8  24
HETATM   24  C5  UNL     1      -8.066   6.787  18.857  1.00  0.00     0.192 C
BRANCH  24  25
HETATM   25  N1  UNL     1      -8.570   5.461  18.771  1.00  0.00    -0.357 N
BRANCH  25  26
HETATM   26  C2  UNL     1      -8.426   4.832  20.054  1.00  0.00     0.124 C
HETATM   27  C1  UNL     1      -8.661   3.355  20.090  1.00  0.00     0.027 C
ENDBRANCH  25  26
BRANCH  25  28
HETATM   28  C3  UNL     1      -8.273   4.685  17.651  1.00  0.00     0.060 C
HETATM   29  C4  UNL     1      -9.406   4.633  16.653  1.00  0.00     0.055 C
ENDBRANCH  25  28
ENDBRANCH  24  25
ENDBRANCH   8  24
BRANCH   9  30
HETATM   30  C18 UNL     1      -6.284   7.965  16.517  1.00  0.00    -0.007 C
HETATM   31  C19 UNL     1      -5.435   7.387  17.629  1.00  0.00     0.021 C
HETATM   32  C20 UNL     1      -5.525   9.219  16.153  1.00  0.00     0.021 C
HETATM   33  C21 UNL     1      -6.196   6.914  15.416  1.00  0.00     0.021 C
ENDBRANCH   9  30
ENDBRANCH   1   5
TORSDOF 9
ENDMDL