MODEL 3
REMARK VINA RESULT: -7.339034890      4.061      6.651
REMARK  9 active torsions:
REMARK  status: ('A' for Active; 'I' for Inactive)
REMARK    1  A    between atoms: C2_2  and  C3_3
REMARK    2  A    between atoms: C3_3  and  C4_4
REMARK    3  A    between atoms: C4_4  and  C5_5
REMARK    4  A    between atoms: N1_6  and  C6_8
REMARK    5  A    between atoms: C10_13  and  O1_14
REMARK    6  A    between atoms: C12_18  and  C13_19
REMARK    7  A    between atoms: C13_19  and  C14_20
REMARK    8  A    between atoms: C15_22  and  O3_23
REMARK    9  A    between atoms: C19_28  and  O5_29
ROOT
HETATM    1  C6  UNL     1     -12.354  13.618  15.809  1.00  0.00     0.033 A
HETATM    2  C7  UNL     1     -11.493  13.744  14.727  1.00  0.00     0.049 A
HETATM    3  C8  UNL     1     -10.518  12.832  14.419  1.00  0.00     0.027 A
HETATM    4 BR1  UNL     1      -9.350  13.045  12.916  1.00  0.00    -0.050 Br
HETATM    5  C9  UNL     1     -10.403  11.736  15.242  1.00  0.00     0.030 A
HETATM    6  C10 UNL     1      -9.434  10.817  14.944  1.00  0.00     0.113 A
HETATM    7  C11 UNL     1      -9.314   9.704  15.771  1.00  0.00     0.127 A
HETATM    8  O2  UNL     1      -8.390   8.846  15.470  1.00  0.00    -0.308 OA
HETATM    9  C12 UNL     1      -8.173   7.761  16.167  1.00  0.00     0.092 A
HETATM   10  C15 UNL     1      -8.949   7.507  17.263  1.00  0.00     0.149 A
HETATM   11  C17 UNL     1      -9.962   8.390  17.640  1.00  0.00     0.223 A
HETATM   12  O4  UNL     1     -10.665   8.151  18.642  1.00  0.00    -0.284 OA
HETATM   13  C18 UNL     1     -10.149   9.516  16.878  1.00  0.00     0.088 A
HETATM   14  C19 UNL     1     -11.125  10.441  17.178  1.00  0.00     0.094 A
HETATM   15  C20 UNL     1     -11.224  11.560  16.323  1.00  0.00     0.015 A
HETATM   16  C21 UNL     1     -12.207  12.499  16.616  1.00  0.00     0.044 A
ENDROOT
BRANCH   1  17
HETATM   17  N1  UNL     1     -13.342  14.602  16.064  1.00  0.00    -0.369 N
HETATM   18  C5  UNL     1     -14.572  14.286  16.184  1.00  0.00     0.061 C
ATOM     19  H1  UNL     1     -13.065  15.579  16.153  1.00  0.00     0.165 HD
BRANCH  18  20
HETATM   20  C4  UNL     1     -14.987  12.878  16.059  1.00  0.00     0.044 C
BRANCH  20  21
HETATM   21  C3  UNL     1     -15.856  12.447  17.238  1.00  0.00     0.005 C
BRANCH  21  22
HETATM   22  C2  UNL     1     -15.393  11.096  17.716  1.00  0.00    -0.004 C
HETATM   23  C1  UNL     1     -15.379  10.948  19.200  1.00  0.00     0.005 C
ENDBRANCH  21  22
ENDBRANCH  20  21
ENDBRANCH  18  20
ENDBRANCH   1  17
BRANCH  14  24
HETATM   24  O5  UNL     1     -11.974  10.340  18.227  1.00  0.00    -0.359 OA
ATOM     25  H5  UNL     1     -12.459   9.554  18.449  1.00  0.00     0.217 HD
ENDBRANCH  14  24
BRANCH   6  26
HETATM   26  O1  UNL     1      -8.583  10.989  13.838  1.00  0.00    -0.357 OA
ATOM     27  H1  UNL     1      -8.249  10.243  13.353  1.00  0.00     0.217 HD
ENDBRANCH   6  26
BRANCH  10  28
HETATM   28  O3  UNL     1      -8.770   6.368  18.040  1.00  0.00    -0.350 OA
HETATM   29  C16 UNL     1      -9.371   5.129  17.824  1.00  0.00     0.210 C
ENDBRANCH  10  28
BRANCH   9  30
HETATM   30  C13 UNL     1      -7.076   6.889  15.696  1.00  0.00     0.083 C
BRANCH  30  31
HETATM   31  C14 UNL     1      -6.237   7.592  14.670  1.00  0.00     0.121 C
HETATM   32 CL1  UNL     1      -4.827   6.701  14.116  1.00  0.00    -0.130 Cl
ENDBRANCH  30  31
ENDBRANCH   9  30
TORSDOF 9
ENDMDL