MODEL 4
REMARK VINA RESULT: -8.016351558      2.966      7.149
REMARK  8 active torsions:
REMARK  status: ('A' for Active; 'I' for Inactive)
REMARK    1  A    between atoms: C2_2  and  C3_3
REMARK    2  A    between atoms: C5_5  and  C6_6
REMARK    3  A    between atoms: C6_6  and  C7_7
REMARK    4  A    between atoms: C13_17  and  O2_18
REMARK    5  A    between atoms: N2_21  and  C15_22
REMARK    6  A    between atoms: C15_22  and  C16_23
REMARK    7  A    between atoms: C16_23  and  O3_24
REMARK    8  A    between atoms: O3_24  and  C17_25
ROOT
HETATM    1  C7  UNL     1     -14.659  12.314  16.613  1.00  0.00     0.102 A
HETATM    2  C8  UNL     1     -14.515  13.690  16.132  1.00  0.00     0.127 A
HETATM    3  N1  UNL     1     -15.430  14.545  15.903  1.00  0.00    -0.383 N
ATOM      4  H11 UNL     1     -15.330  15.503  15.567  1.00  0.00     0.158 HD
ATOM      5  H12 UNL     1     -16.423  14.353  16.039  1.00  0.00     0.158 HD
HETATM    6  O1  UNL     1     -13.159  13.953  15.945  1.00  0.00    -0.296 OA
HETATM    7  C9  UNL     1     -12.417  12.798  16.200  1.00  0.00     0.097 A
HETATM    8  C10 UNL     1     -11.049  12.537  16.143  1.00  0.00     0.021 A
HETATM    9  C11 UNL     1     -10.560  11.306  16.432  1.00  0.00     0.044 A
HETATM   10  C12 UNL     1     -11.424  10.278  16.793  1.00  0.00     0.067 A
HETATM   11  C13 UNL     1     -12.782  10.510  16.859  1.00  0.00     0.077 A
HETATM   12  C14 UNL     1     -13.246  11.778  16.557  1.00  0.00     0.022 A
HETATM   13  N2  UNL     1      -9.220  11.704  16.194  1.00  0.00    -0.374 N
HETATM   14  C21 UNL     1      -9.670  13.032  15.880  1.00  0.00     0.167 A
ENDROOT
BRANCH  13  15
HETATM   15  C15 UNL     1      -7.913  11.027  16.244  1.00  0.00     0.150 C
BRANCH  15  16
HETATM   16  C16 UNL     1      -8.108   9.550  16.293  1.00  0.00     0.195 C
BRANCH  16  17
HETATM   17  O3  UNL     1      -7.945   8.963  17.537  1.00  0.00    -0.345 OA
BRANCH  17  18
HETATM   18  C17 UNL     1      -8.884   8.080  18.139  1.00  0.00     0.119 A
HETATM   19  C18 UNL     1      -9.689   8.469  19.144  1.00  0.00     0.076 A
HETATM   20 CL1  UNL     1      -9.678  10.117  19.834  1.00  0.00    -0.081 Cl
HETATM   21  C19 UNL     1     -10.556   7.545  19.655  1.00  0.00     0.078 A
HETATM   22  S1  UNL     1     -10.222   6.157  18.718  1.00  0.00    -0.085 SA
HETATM   23  C20 UNL     1      -8.999   6.790  17.711  1.00  0.00     0.109 A
HETATM   24 CL2  UNL     1      -8.139   5.910  16.460  1.00  0.00    -0.073 Cl
ENDBRANCH  17  18
ENDBRANCH  16  17
ENDBRANCH  15  16
ENDBRANCH  13  15
BRANCH  11  25
HETATM   25  O2  UNL     1     -13.647   9.469  17.223  1.00  0.00    -0.360 OA
ATOM     26  H2  UNL     1     -14.354   9.638  17.834  1.00  0.00     0.217 HD
ENDBRANCH  11  25
BRANCH   1  27
HETATM   27  C6  UNL     1     -15.050  12.206  18.074  1.00  0.00     0.045 C
BRANCH  27  28
HETATM   28  C5  UNL     1     -16.224  11.384  18.347  1.00  0.00    -0.019 C
HETATM   29  C3  UNL     1     -16.377  10.518  19.321  1.00  0.00    -0.067 C
HETATM   30  C4  UNL     1     -17.679   9.774  19.415  1.00  0.00     0.048 C
BRANCH  29  31
HETATM   31  C2  UNL     1     -15.368  10.240  20.306  1.00  0.00    -0.004 C
HETATM   32  C1  UNL     1     -14.878   9.016  20.491  1.00  0.00     0.012 C
ENDBRANCH  29  31
ENDBRANCH  27  28
ENDBRANCH   1  27
TORSDOF 8
ENDMDL