MODEL 4
REMARK VINA RESULT: -7.777486180      2.606      3.808
REMARK  9 active torsions:
REMARK  status: ('A' for Active; 'I' for Inactive)
REMARK    1  A    between atoms: C2_2  and  C3_3
REMARK    2  A    between atoms: C3_3  and  C4_4
REMARK    3  A    between atoms: C10_11  and  N1_12
REMARK       I    between atoms: N1_12  and  C11_13
REMARK    4  A    between atoms: C11_13  and  C12_15
REMARK    5  A    between atoms: C12_15  and  S1_16
REMARK    6  A    between atoms: S1_16  and  C13_17
REMARK    7  A    between atoms: C16_22  and  C17_23
REMARK    8  A    between atoms: C17_23  and  O3_25
REMARK    9  A    between atoms: O3_25  and  C18_26
ROOT
HETATM    1  S1  UNL     1     -11.769   6.878  20.590  1.00  0.00    -0.101 SA
ENDROOT
BRANCH   1   2
HETATM    2  C12 UNL     1     -13.497   7.221  20.438  1.00  0.00     0.200 C
BRANCH   2   3
HETATM    3  C11 UNL     1     -13.827   7.347  18.911  1.00  0.00     0.301 C
HETATM    4  N1  UNL     1     -13.707   8.688  18.474  1.00  0.00    -0.368 NA
HETATM    5  O1  UNL     1     -14.127   6.372  18.321  1.00  0.00    -0.256 OA
BRANCH   4   6
HETATM    6  C10 UNL     1     -13.602   9.930  18.049  1.00  0.00     0.139 A
HETATM    7  C4  UNL     1     -12.788  10.426  17.045  1.00  0.00    -0.015 A
HETATM    8  C5  UNL     1     -12.908  11.726  16.547  1.00  0.00     0.017 A
HETATM    9  C6  UNL     1     -13.839  12.564  17.058  1.00  0.00    -0.060 A
HETATM   10  C7  UNL     1     -13.903  13.949  16.495  1.00  0.00     0.048 C
HETATM   11  C8  UNL     1     -14.657  12.104  18.062  1.00  0.00     0.034 A
HETATM   12  C9  UNL     1     -14.589  10.856  18.573  1.00  0.00     0.075 A
HETATM   13 CL1  UNL     1     -15.631  10.381  19.869  1.00  0.00    -0.081 Cl
BRANCH   7  14
HETATM   14  C3  UNL     1     -11.568   9.743  16.537  1.00  0.00     0.042 C
BRANCH  14  15
HETATM   15  C2  UNL     1     -10.648  10.602  15.769  1.00  0.00     0.000 C
HETATM   16  C1  UNL     1      -9.718   9.940  14.811  1.00  0.00     0.005 C
ENDBRANCH  14  15
ENDBRANCH   7  14
ENDBRANCH   4   6
ENDBRANCH   2   3
ENDBRANCH   1   2
BRANCH   1  17
HETATM   17  C13 UNL     1     -10.732   6.893  19.162  1.00  0.00     0.078 A
HETATM   18  N2  UNL     1     -10.509   5.795  18.391  1.00  0.00    -0.353 N
HETATM   19  C14 UNL     1      -9.493   5.685  17.516  1.00  0.00     0.024 A
ATOM     20  H2  UNL     1     -11.151   5.007  18.481  1.00  0.00     0.166 HD
HETATM   21  C15 UNL     1      -9.378   4.543  16.580  1.00  0.00     0.069 C
HETATM   22  C16 UNL     1      -8.580   6.730  17.357  1.00  0.00     0.086 A
HETATM   23  C20 UNL     1      -8.775   7.873  18.083  1.00  0.00     0.073 A
HETATM   24  N3  UNL     1      -7.908   8.995  17.883  1.00  0.00    -0.101 NA
HETATM   25  C21 UNL     1      -9.858   7.976  19.005  1.00  0.00    -0.003 A
HETATM   26  C22 UNL     1     -10.093   9.194  19.795  1.00  0.00     0.053 C
BRANCH  22  27
HETATM   27  C17 UNL     1      -7.316   6.407  16.686  1.00  0.00     0.297 C
HETATM   28  O2  UNL     1      -6.376   5.799  17.168  1.00  0.00    -0.259 OA
BRANCH  27  29
HETATM   29  O3  UNL     1      -7.059   6.848  15.325  1.00  0.00    -0.318 OA
BRANCH  29  30
HETATM   30  C18 UNL     1      -5.933   7.571  15.021  1.00  0.00     0.174 C
HETATM   31  C19 UNL     1      -4.800   7.103  14.258  1.00  0.00     0.034 C
ENDBRANCH  29  30
ENDBRANCH  27  29
ENDBRANCH  22  27
ENDBRANCH   1  17
TORSDOF 9
ENDMDL