MODEL 3
REMARK VINA RESULT: -8.544708191      1.510      1.772
REMARK  8 active torsions:
REMARK  status: ('A' for Active; 'I' for Inactive)
REMARK    1  A    between atoms: C7_9  and  S1_10
REMARK    2  A    between atoms: S1_10  and  C8_11
REMARK    3  A    between atoms: C12_19  and  C13_20
REMARK    4  A    between atoms: N5_29  and  C18_30
REMARK    5  A    between atoms: C18_30  and  C19_31
REMARK    6  A    between atoms: C19_31  and  C20_32
REMARK    7  A    between atoms: C20_32  and  C21_33
REMARK    8  A    between atoms: C21_33  and  O1_34
ROOT
HETATM    1  C8  UNL     1      -9.503  10.536  17.541  1.00  0.00     0.090 A
HETATM    2  N1  UNL     1      -9.769  10.952  18.815  1.00  0.00    -0.346 N
ATOM      3  H1  UNL     1     -10.010  11.929  18.987  1.00  0.00     0.167 HD
HETATM    4  C9  UNL     1      -9.719  10.096  19.838  1.00  0.00     0.182 A
HETATM    5  N2  UNL     1      -9.401   8.823  19.586  1.00  0.00    -0.338 N
ATOM      6  H2  UNL     1      -9.364   8.169  20.367  1.00  0.00     0.168 HD
HETATM    7  C10 UNL     1      -9.132   8.366  18.364  1.00  0.00     0.122 A
HETATM    8  C11 UNL     1      -9.170   9.218  17.276  1.00  0.00     0.055 A
HETATM    9  C12 UNL     1      -8.867   8.495  16.150  1.00  0.00     0.010 A
HETATM   10  C17 UNL     1      -8.648   7.179  16.588  1.00  0.00     0.106 A
HETATM   11  N5  UNL     1      -8.810   7.122  17.914  1.00  0.00    -0.342 N
ENDROOT
BRANCH   1  12
HETATM   12  S1  UNL     1      -9.634  11.677  16.188  1.00  0.00    -0.069 SA
BRANCH  12  13
HETATM   13  C7  UNL     1     -11.263  12.392  16.136  1.00  0.00     0.034 A
HETATM   14  C2  UNL     1     -11.408  13.714  15.775  1.00  0.00    -0.042 A
HETATM   15  C1  UNL     1     -10.230  14.576  15.413  1.00  0.00     0.049 C
HETATM   16  C3  UNL     1     -12.695  14.239  15.748  1.00  0.00     0.032 A
HETATM   17  C4  UNL     1     -13.813  13.517  16.061  1.00  0.00     0.036 A
HETATM   18 CL1  UNL     1     -15.425  14.222  16.017  1.00  0.00    -0.084 Cl
HETATM   19  C5  UNL     1     -13.652  12.200  16.421  1.00  0.00     0.049 A
HETATM   20  C6  UNL     1     -12.391  11.642  16.459  1.00  0.00     0.053 A
HETATM   21 CL2  UNL     1     -12.229   9.942  16.928  1.00  0.00    -0.083 Cl
ENDBRANCH  12  13
ENDBRANCH   1  12
BRANCH   9  22
HETATM   22  C13 UNL     1      -8.714   8.973  14.796  1.00  0.00     0.017 A
HETATM   23  C14 UNL     1      -9.663   9.443  13.900  1.00  0.00     0.121 A
HETATM   24  N3  UNL     1      -9.091   9.860  12.780  1.00  0.00    -0.311 N
HETATM   25  N4  UNL     1      -7.795   9.676  12.919  1.00  0.00    -0.305 N
ATOM     26  H3  UNL     1      -9.564  10.250  11.965  1.00  0.00     0.186 HD
HETATM   27  C15 UNL     1      -7.505   9.146  14.106  1.00  0.00     0.034 A
ATOM     28  H4  UNL     1      -7.102   9.909  12.208  1.00  0.00     0.186 HD
HETATM   29  C16 UNL     1      -6.137   8.790  14.626  1.00  0.00     0.070 C
ENDBRANCH   9  22
BRANCH  11  30
HETATM   30  C18 UNL     1      -8.673   5.947  18.770  1.00  0.00     0.130 C
BRANCH  30  31
HETATM   31  C19 UNL     1      -8.567   4.769  17.830  1.00  0.00     0.022 C
BRANCH  31  32
HETATM   32  C20 UNL     1      -7.348   3.954  18.100  1.00  0.00     0.028 C
BRANCH  32  33
HETATM   33  C21 UNL     1      -6.170   4.854  18.407  1.00  0.00     0.164 C
BRANCH  33  34
HETATM   34  O1  UNL     1      -5.618   5.230  17.159  1.00  0.00    -0.401 OA
ATOM     35  H1  UNL     1      -5.638   6.179  17.131  1.00  0.00     0.209 HD
ENDBRANCH  33  34
ENDBRANCH  32  33
ENDBRANCH  31  32
ENDBRANCH  30  31
ENDBRANCH  11  30
TORSDOF 8
ENDMDL