MODEL 1
REMARK VINA RESULT: -7.192032758      0.000      0.000
REMARK  4 active torsions:
REMARK  status: ('A' for Active; 'I' for Inactive)
REMARK    1  A    between atoms: N1_1  and  S1_4
REMARK    2  A    between atoms: S1_4  and  C1_7
REMARK    3  A    between atoms: C5_11  and  N2_12
REMARK    4  A    between atoms: N2_12  and  C6_14
ROOT
HETATM    1  C1  UNL     1       4.265  -5.238 -41.453  1.00  0.00     0.081 A
HETATM    2  C2  UNL     1       3.110  -5.595 -42.116  1.00  0.00     0.025 A
HETATM    3  C3  UNL     1       2.827  -6.924 -42.414  1.00  0.00     0.004 A
HETATM    4  C4  UNL     1       3.749  -7.891 -42.022  1.00  0.00     0.030 A
HETATM    5  C5  UNL     1       4.912  -7.566 -41.360  1.00  0.00     0.050 A
HETATM    6  C10 UNL     1       5.146  -6.236 -41.088  1.00  0.00     0.055 A
ENDROOT
BRANCH   5   7
HETATM    7  N2  UNL     1       5.847  -8.556 -40.964  1.00  0.00    -0.192 N
ATOM      8  H2  UNL     1       6.735  -8.609 -41.464  1.00  0.00     0.184 HD
BRANCH   7   9
HETATM    9  C6  UNL     1       5.638  -9.389 -40.008  1.00  0.00     0.685 A
HETATM   10  N3  UNL     1       5.245 -10.636 -40.325  1.00  0.00    -0.201 N
HETATM   11  C7  UNL     1       4.999 -11.582 -39.420  1.00  0.00     0.111 A
ATOM     12  H3  UNL     1       5.128 -10.869 -41.312  1.00  0.00     0.183 HD
HETATM   13  C8  UNL     1       5.147 -11.302 -38.077  1.00  0.00     0.092 A
HETATM   14  C9  UNL     1       5.550 -10.026 -37.742  1.00  0.00     0.260 A
HETATM   15  O3  UNL     1       5.695  -9.738 -36.524  1.00  0.00    -0.268 OA
HETATM   16  N4  UNL     1       5.785  -9.105 -38.708  1.00  0.00    -0.156 N
ATOM     17  H4  UNL     1       6.082  -8.168 -38.437  1.00  0.00     0.187 HD
ENDBRANCH   7   9
ENDBRANCH   5   7
BRANCH   1  18
HETATM   18  S1  UNL     1       4.594  -3.560 -41.092  1.00  0.00     0.256 S
HETATM   19  O1  UNL     1       5.461  -3.519 -39.847  1.00  0.00    -0.201 OA
HETATM   20  O2  UNL     1       3.330  -2.827 -40.771  1.00  0.00    -0.201 OA
BRANCH  18  21
HETATM   21  N1  UNL     1       5.463  -2.799 -42.391  1.00  0.00    -0.324 N
ATOM     22  H12 UNL     1       6.474  -2.842 -42.522  1.00  0.00     0.169 HD
ATOM     23  H11 UNL     1       4.792  -2.313 -42.985  1.00  0.00     0.169 HD
ENDBRANCH  18  21
ENDBRANCH   1  18
TORSDOF 4
ENDMDL