MODEL 3
REMARK VINA RESULT: -7.274817962      1.960      7.316
REMARK  5 active torsions:
REMARK  status: ('A' for Active; 'I' for Inactive)
REMARK    1  A    between atoms: N1_1  and  C1_5
REMARK    2  A    between atoms: C1_5  and  N2_6
REMARK    3  A    between atoms: C1_5  and  C2_10
REMARK    4  A    between atoms: C5_13  and  C6_14
REMARK    5  A    between atoms: N3_19  and  O1_20
ROOT
HETATM    1  C2  UNL     1       5.906  -2.213 -43.854  1.00  0.00    -0.001 A
HETATM    2  C3  UNL     1       4.935  -2.222 -42.878  1.00  0.00     0.012 A
HETATM    3  C4  UNL     1       4.651  -3.398 -42.215  1.00  0.00     0.014 A
HETATM    4  C5  UNL     1       5.301  -4.608 -42.482  1.00  0.00    -0.007 A
HETATM    5  C14 UNL     1       6.262  -4.577 -43.456  1.00  0.00     0.014 A
HETATM    6  C15 UNL     1       6.555  -3.383 -44.131  1.00  0.00     0.012 A
ENDROOT
BRANCH   4   7
HETATM    7  C6  UNL     1       4.920  -5.791 -41.759  1.00  0.00     0.073 A
HETATM    8  C7  UNL     1       4.411  -6.856 -42.525  1.00  0.00     0.033 A
HETATM    9  C8  UNL     1       4.016  -7.989 -41.895  1.00  0.00     0.011 A
HETATM   10  C9  UNL     1       4.108  -8.103 -40.523  1.00  0.00    -0.030 A
HETATM   11  C10 UNL     1       4.605  -7.043 -39.844  1.00  0.00     0.072 A
HETATM   12  C13 UNL     1       3.659  -9.369 -39.906  1.00  0.00     0.068 C
HETATM   13  N3  UNL     1       5.016  -5.880 -40.428  1.00  0.00    -0.226 N
HETATM   14  C11 UNL     1       4.726  -7.116 -38.351  1.00  0.00     0.292 C
HETATM   15  N4  UNL     1       3.680  -8.050 -37.921  1.00  0.00    -0.070 N
HETATM   16  C12 UNL     1       4.021  -9.367 -38.445  1.00  0.00     0.237 C
ATOM     17  H42 UNL     1       3.538  -8.049 -36.911  1.00  0.00     0.277 HD
ATOM     18  H41 UNL     1       2.743  -7.746 -38.188  1.00  0.00     0.277 HD
BRANCH  13  19
HETATM   19  O1  UNL     1       5.489  -4.853 -39.641  1.00  0.00    -0.282 OA
ATOM     20  H1  UNL     1       5.574  -4.922 -38.697  1.00  0.00     0.245 HD
ENDBRANCH  13  19
ENDBRANCH   4   7
BRANCH   1  21
HETATM   21  C1  UNL     1       6.212  -0.943 -44.568  1.00  0.00     0.411 C
BRANCH  21  22
HETATM   22  N1  UNL     1       5.218   0.087 -44.245  1.00  0.00    -0.046 N
ATOM     23  H13 UNL     1       5.079   0.735 -45.021  1.00  0.00     0.277 HD
ATOM     24  H12 UNL     1       4.275  -0.297 -44.197  1.00  0.00     0.277 HD
ATOM     25  H11 UNL     1       5.474   0.574 -43.386  1.00  0.00     0.277 HD
ENDBRANCH  21  22
BRANCH  21  26
HETATM   26  N2  UNL     1       7.546  -0.496 -44.207  1.00  0.00    -0.046 N
ATOM     27  H23 UNL     1       7.629  -0.321 -43.206  1.00  0.00     0.277 HD
ATOM     28  H22 UNL     1       8.231  -1.248 -44.288  1.00  0.00     0.277 HD
ATOM     29  H21 UNL     1       7.811   0.320 -44.758  1.00  0.00     0.277 HD
ENDBRANCH  21  26
ENDBRANCH   1  21
TORSDOF 5
ENDMDL