MODEL 3
REMARK VINA RESULT: -6.762541218      2.891      6.879
REMARK  4 active torsions:
REMARK  status: ('A' for Active; 'I' for Inactive)
REMARK    1  A    between atoms: N1_1  and  S1_4
REMARK    2  A    between atoms: S1_4  and  C1_7
REMARK    3  A    between atoms: C4_10  and  N2_11
REMARK    4  A    between atoms: N2_11  and  C5_13
ROOT
HETATM    1  C1  UNL     1       4.592  -4.908 -40.870  1.00  0.00     0.079 A
HETATM    2  C2  UNL     1       4.564  -5.088 -39.510  1.00  0.00     0.027 A
HETATM    3  C3  UNL     1       5.028  -6.277 -38.989  1.00  0.00     0.031 A
HETATM    4  C4  UNL     1       5.517  -7.282 -39.809  1.00  0.00     0.049 A
HETATM    5  C9  UNL     1       5.542  -7.094 -41.171  1.00  0.00     0.031 A
HETATM    6  C10 UNL     1       5.076  -5.901 -41.701  1.00  0.00     0.027 A
ENDROOT
BRANCH   4   7
HETATM    7  N2  UNL     1       5.998  -8.510 -39.298  1.00  0.00    -0.192 N
ATOM      8  H2  UNL     1       7.004  -8.672 -39.238  1.00  0.00     0.184 HD
BRANCH   7   9
HETATM    9  C5  UNL     1       5.170  -9.440 -38.901  1.00  0.00     0.685 A
HETATM   10  N3  UNL     1       4.537 -10.244 -39.745  1.00  0.00    -0.201 N
HETATM   11  C6  UNL     1       3.689 -11.196 -39.327  1.00  0.00     0.111 A
ATOM     12  H3  UNL     1       4.701 -10.135 -40.746  1.00  0.00     0.183 HD
HETATM   13  C7  UNL     1       3.446 -11.368 -37.970  1.00  0.00     0.092 A
HETATM   14  C8  UNL     1       4.121 -10.515 -37.118  1.00  0.00     0.260 A
HETATM   15  O3  UNL     1       3.923 -10.643 -35.867  1.00  0.00    -0.268 OA
HETATM   16  N4  UNL     1       4.957  -9.580 -37.582  1.00  0.00    -0.156 N
ATOM     17  H4  UNL     1       5.440  -8.966 -36.926  1.00  0.00     0.187 HD
ENDBRANCH   7   9
ENDBRANCH   4   7
BRANCH   1  18
HETATM   18  S1  UNL     1       4.031  -3.444 -41.654  1.00  0.00     0.256 S
HETATM   19  O1  UNL     1       3.520  -2.448 -40.681  1.00  0.00    -0.201 OA
HETATM   20  O2  UNL     1       2.989  -3.747 -42.693  1.00  0.00    -0.201 OA
BRANCH  18  21
HETATM   21  N1  UNL     1       5.402  -2.777 -42.506  1.00  0.00    -0.324 N
ATOM     22  H12 UNL     1       6.040  -2.084 -42.117  1.00  0.00     0.169 HD
ATOM     23  H11 UNL     1       5.456  -3.188 -43.438  1.00  0.00     0.169 HD
ENDBRANCH  18  21
ENDBRANCH   1  18
TORSDOF 4
ENDMDL