MODEL 3
REMARK VINA RESULT: -6.658119761      1.367      1.597
REMARK  4 active torsions:
REMARK  status: ('A' for Active; 'I' for Inactive)
REMARK    1  A    between atoms: C5_8  and  N3_9
REMARK    2  A    between atoms: N3_9  and  C6_11
REMARK    3  A    between atoms: C11_16  and  S1_17
REMARK    4  A    between atoms: S1_17  and  N4_18
ROOT
HETATM    1  C6  UNL     1       4.818  -5.876 -41.671  1.00  0.00     0.056 A
HETATM    2  C7  UNL     1       4.887  -6.531 -42.889  1.00  0.00     0.031 A
HETATM    3  C8  UNL     1       4.319  -6.011 -44.025  1.00  0.00     0.002 A
HETATM    4  C9  UNL     1       3.655  -4.804 -43.978  1.00  0.00     0.002 A
HETATM    5  C10 UNL     1       3.571  -4.129 -42.782  1.00  0.00     0.027 A
HETATM    6  C11 UNL     1       4.151  -4.668 -41.634  1.00  0.00     0.105 A
ENDROOT
BRANCH   1   7
HETATM    7  N3  UNL     1       5.401  -6.411 -40.563  1.00  0.00    -0.353 N
ATOM      8  H3  UNL     1       6.090  -5.780 -40.154  1.00  0.00     0.166 HD
BRANCH   7   9
HETATM    9  C5  UNL     1       5.307  -7.485 -39.914  1.00  0.00     0.059 A
HETATM   10  C1  UNL     1       5.031  -7.502 -38.573  1.00  0.00     0.088 A
HETATM   11  N1  UNL     1       4.835  -6.347 -37.771  1.00  0.00    -0.099 NA
HETATM   12  C2  UNL     1       4.926  -8.714 -37.880  1.00  0.00     0.116 A
HETATM   13  N2  UNL     1       5.095  -9.883 -38.518  1.00  0.00    -0.373 N
HETATM   14  C3  UNL     1       5.365  -9.909 -39.819  1.00  0.00     0.090 A
ATOM     15  H2  UNL     1       5.015 -10.758 -38.000  1.00  0.00     0.164 HD
HETATM   16  C4  UNL     1       5.471  -8.740 -40.517  1.00  0.00     0.048 A
ENDBRANCH   7   9
ENDBRANCH   1   7
BRANCH   6  17
HETATM   17  S1  UNL     1       4.002  -3.742 -40.167  1.00  0.00     0.259 S
HETATM   18  O1  UNL     1       5.294  -3.550 -39.439  1.00  0.00    -0.201 OA
HETATM   19  O2  UNL     1       3.372  -2.424 -40.538  1.00  0.00    -0.201 OA
BRANCH  17  20
HETATM   20  N4  UNL     1       2.924  -4.513 -39.063  1.00  0.00    -0.324 N
ATOM     21  H42 UNL     1       2.555  -5.454 -39.195  1.00  0.00     0.169 HD
ATOM     22  H41 UNL     1       2.714  -3.900 -38.275  1.00  0.00     0.169 HD
ENDBRANCH  17  20
ENDBRANCH   6  17
TORSDOF 4
ENDMDL