MODEL 3
REMARK VINA RESULT: -7.144012028      2.526      3.445
REMARK  2 active torsions:
REMARK  status: ('A' for Active; 'I' for Inactive)
REMARK    1  A    between atoms: C10_14  and  S1_15
REMARK    2  A    between atoms: S1_15  and  N3_16
ROOT
HETATM    1  N1  UNL     1       3.727  -2.545 -40.915  1.00  0.00    -0.101 NA
HETATM    2  C1  UNL     1       3.709  -3.858 -41.470  1.00  0.00     0.062 A
HETATM    3  C2  UNL     1       4.157  -4.099 -42.751  1.00  0.00     0.118 A
HETATM    4  N2  UNL     1       4.115  -5.360 -43.217  1.00  0.00    -0.331 N
ATOM      5  H2  UNL     1       4.449  -5.523 -44.167  1.00  0.00     0.168 HD
HETATM    6  C3  UNL     1       3.665  -6.421 -42.524  1.00  0.00     0.256 A
HETATM    7  O1  UNL     1       3.670  -7.565 -43.061  1.00  0.00    -0.267 OA
HETATM    8  C4  UNL     1       3.211  -6.217 -41.242  1.00  0.00     0.045 A
HETATM    9  C5  UNL     1       2.664  -7.330 -40.508  1.00  0.00     0.003 A
HETATM   10  C6  UNL     1       1.537  -8.008 -41.000  1.00  0.00     0.014 A
HETATM   11  C7  UNL     1       0.920  -9.039 -40.351  1.00  0.00     0.001 A
HETATM   12  C8  UNL     1       1.427  -9.438 -39.148  1.00  0.00     0.002 A
HETATM   13  C9  UNL     1       2.524  -8.794 -38.653  1.00  0.00     0.026 A
HETATM   14  C10 UNL     1       3.169  -7.735 -39.305  1.00  0.00     0.090 A
HETATM   15  C11 UNL     1       3.236  -4.958 -40.732  1.00  0.00     0.045 A
ENDROOT
BRANCH  14  16
HETATM   16  S1  UNL     1       4.569  -7.070 -38.547  1.00  0.00     0.257 S
HETATM   17  O2  UNL     1       4.432  -5.760 -37.900  1.00  0.00    -0.201 OA
HETATM   18  O3  UNL     1       4.956  -8.023 -37.392  1.00  0.00    -0.201 OA
BRANCH  16  19
HETATM   19  N3  UNL     1       5.908  -7.190 -39.647  1.00  0.00    -0.324 N
ATOM     20  H32 UNL     1       6.174  -8.035 -40.153  1.00  0.00     0.169 HD
ATOM     21  H31 UNL     1       6.371  -6.282 -39.697  1.00  0.00     0.169 HD
ENDBRANCH  16  19
ENDBRANCH  14  16
TORSDOF 2
ENDMDL