MODEL 3
REMARK VINA RESULT: -7.048519301      2.111      3.094
REMARK  3 active torsions:
REMARK  status: ('A' for Active; 'I' for Inactive)
REMARK    1  A    between atoms: C4_8  and  S1_9
REMARK    2  A    between atoms: S1_9  and  N3_10
REMARK    3  A    between atoms: C5_15  and  C6_16
ROOT
HETATM    1  N1  UNL     1       0.406  -8.532 -41.418  1.00  0.00    -0.100 NA
HETATM    2  C1  UNL     1       1.121  -8.576 -40.211  1.00  0.00     0.074 A
HETATM    3  C2  UNL     1       0.609  -9.301 -39.160  1.00  0.00     0.118 A
HETATM    4  N2  UNL     1       1.283  -9.339 -38.011  1.00  0.00    -0.330 N
ATOM      5  H2  UNL     1       0.918  -9.872 -37.222  1.00  0.00     0.168 HD
HETATM    6  C3  UNL     1       2.455  -8.668 -37.892  1.00  0.00     0.269 A
HETATM    7  O1  UNL     1       3.070  -8.725 -36.783  1.00  0.00    -0.266 OA
HETATM    8  C4  UNL     1       2.995  -7.924 -38.946  1.00  0.00     0.160 A
HETATM    9  C5  UNL     1       2.305  -7.884 -40.129  1.00  0.00     0.029 A
ENDROOT
BRANCH   8  10
HETATM   10  S1  UNL     1       4.491  -7.103 -38.658  1.00  0.00     0.263 S
HETATM   11  O2  UNL     1       5.227  -6.733 -39.910  1.00  0.00    -0.201 OA
HETATM   12  O3  UNL     1       4.222  -5.835 -37.901  1.00  0.00    -0.201 OA
BRANCH  10  13
HETATM   13  N3  UNL     1       5.467  -8.127 -37.641  1.00  0.00    -0.324 N
ATOM     14  H32 UNL     1       6.235  -7.812 -37.048  1.00  0.00     0.169 HD
ATOM     15  H31 UNL     1       5.129  -9.083 -37.750  1.00  0.00     0.169 HD
ENDBRANCH  10  13
ENDBRANCH   8  10
BRANCH   9  16
HETATM   16  C6  UNL     1       2.818  -7.127 -41.257  1.00  0.00    -0.022 A
HETATM   17  C7  UNL     1       2.502  -5.775 -41.343  1.00  0.00     0.012 A
HETATM   18  C8  UNL     1       2.975  -5.023 -42.418  1.00  0.00     0.001 A
HETATM   19  C9  UNL     1       3.754  -5.554 -43.422  1.00  0.00     0.000 A
HETATM   20  C10 UNL     1       4.054  -6.893 -43.316  1.00  0.00     0.001 A
HETATM   21  C11 UNL     1       3.598  -7.657 -42.262  1.00  0.00     0.012 A
ENDBRANCH   9  16
TORSDOF 3
ENDMDL