MODEL 1
REMARK VINA RESULT: -7.105770478      0.000      0.000
REMARK  3 active torsions:
REMARK  status: ('A' for Active; 'I' for Inactive)
REMARK    1  A    between atoms: C4_5  and  C5_6
REMARK    2  A    between atoms: C6_7  and  C7_8
REMARK    3  A    between atoms: N2_12  and  O1_13
ROOT
HETATM    1  C5  UNL     1       4.411  -8.216 -39.591  1.00  0.00     0.074 A
HETATM    2  C6  UNL     1       5.064  -7.350 -40.434  1.00  0.00     0.076 A
HETATM    3  N3  UNL     1       6.370  -7.707 -40.489  1.00  0.00    -0.296 N
ATOM      4  H3  UNL     1       7.086  -7.235 -41.041  1.00  0.00     0.187 HD
HETATM    5  N4  UNL     1       6.577  -8.761 -39.720  1.00  0.00    -0.265 N
ATOM      6  H4  UNL     1       7.469  -9.234 -39.579  1.00  0.00     0.190 HD
HETATM    7  C12 UNL     1       5.415  -9.096 -39.161  1.00  0.00     0.273 A
HETATM    8  O2  UNL     1       5.200 -10.058 -38.355  1.00  0.00    -0.266 OA
ENDROOT
BRANCH   1   9
HETATM    9  C4  UNL     1       3.013  -8.273 -39.185  1.00  0.00    -0.003 A
HETATM   10  C3  UNL     1       2.104  -8.960 -39.971  1.00  0.00     0.017 A
HETATM   11  C2  UNL     1       0.757  -9.033 -39.594  1.00  0.00     0.046 A
HETATM   12  C1  UNL     1       0.314  -8.425 -38.439  1.00  0.00     0.116 A
HETATM   13  N1  UNL     1      -1.069  -8.499 -38.047  1.00  0.00    -0.083 NA
HETATM   14  N5  UNL     1       1.212  -7.766 -37.698  1.00  0.00    -0.354 N
HETATM   15  C13 UNL     1       2.520  -7.683 -38.042  1.00  0.00     0.101 A
ATOM     16  H5  UNL     1       0.901  -7.309 -36.841  1.00  0.00     0.166 HD
ENDBRANCH   1   9
BRANCH   2  17
HETATM   17  C7  UNL     1       4.474  -6.239 -41.152  1.00  0.00     0.011 A
HETATM   18  C8  UNL     1       4.083  -6.454 -42.464  1.00  0.00     0.017 A
HETATM   19  C9  UNL     1       3.515  -5.425 -43.203  1.00  0.00     0.021 A
HETATM   20  C10 UNL     1       3.337  -4.196 -42.643  1.00  0.00     0.122 A
HETATM   21  N2  UNL     1       3.718  -3.983 -41.364  1.00  0.00    -0.246 N
HETATM   22  C11 UNL     1       4.267  -4.977 -40.650  1.00  0.00     0.136 A
BRANCH  21  23
HETATM   23  O1  UNL     1       3.523  -2.722 -40.837  1.00  0.00    -0.284 OA
ATOM     24  H1  UNL     1       4.158  -2.404 -40.206  1.00  0.00     0.245 HD
ENDBRANCH  21  23
ENDBRANCH   2  17
TORSDOF 3
ENDMDL