MODEL 5
REMARK VINA RESULT: -7.887134583      2.311      3.630
REMARK  1 active torsions:
REMARK  status: ('A' for Active; 'I' for Inactive)
REMARK    1  A    between atoms: C4_8  and  C5_9
ROOT
HETATM    1  O1  UNL     1       5.405  -6.569 -37.101  1.00  0.00    -0.247 OA
HETATM    2  C1  UNL     1       4.892  -6.485 -38.246  1.00  0.00     0.327 A
HETATM    3  N1  UNL     1       5.459  -5.736 -39.197  1.00  0.00    -0.275 N
ATOM      4  H1  UNL     1       6.318  -5.229 -38.982  1.00  0.00     0.173 HD
HETATM    5  C2  UNL     1       4.929  -5.632 -40.430  1.00  0.00     0.264 A
HETATM    6  O2  UNL     1       5.502  -4.906 -41.285  1.00  0.00    -0.267 OA
HETATM    7  C3  UNL     1       3.775  -6.300 -40.761  1.00  0.00     0.093 A
HETATM    8  C4  UNL     1       3.165  -6.230 -41.973  1.00  0.00     0.076 A
HETATM    9  N2  UNL     1       2.015  -6.912 -42.156  1.00  0.00    -0.296 N
ATOM     10  H2  UNL     1       1.558  -6.856 -43.067  1.00  0.00     0.187 HD
HETATM   11  N3  UNL     1       1.453  -7.646 -41.221  1.00  0.00    -0.264 N
ATOM     12  H3  UNL     1       0.582  -8.140 -41.414  1.00  0.00     0.190 HD
HETATM   13  C11 UNL     1       2.021  -7.742 -40.027  1.00  0.00     0.287 A
HETATM   14  O3  UNL     1       1.518  -8.439 -39.094  1.00  0.00    -0.264 OA
HETATM   15  C12 UNL     1       3.189  -7.080 -39.759  1.00  0.00     0.124 A
HETATM   16  N4  UNL     1       3.764  -7.152 -38.526  1.00  0.00    -0.303 N
ATOM     17  H4  UNL     1       3.329  -7.725 -37.804  1.00  0.00     0.171 HD
ENDROOT
BRANCH   8  18
HETATM   18  C5  UNL     1       3.654  -5.465 -43.079  1.00  0.00    -0.007 A
HETATM   19  C6  UNL     1       3.249  -4.131 -43.164  1.00  0.00     0.014 A
HETATM   20  C7  UNL     1       3.573  -3.311 -44.227  1.00  0.00     0.001 A
HETATM   21  C8  UNL     1       4.329  -3.800 -45.270  1.00  0.00     0.000 A
HETATM   22  C9  UNL     1       4.732  -5.115 -45.194  1.00  0.00     0.001 A
HETATM   23  C10 UNL     1       4.406  -5.926 -44.134  1.00  0.00     0.014 A
ENDBRANCH   8  18
TORSDOF 1
ENDMDL