MODEL 4
REMARK VINA RESULT: -7.266842283      2.083      6.074
REMARK  3 active torsions:
REMARK  status: ('A' for Active; 'I' for Inactive)
REMARK    1  A    between atoms: C4_5  and  S1_6
REMARK    2  A    between atoms: S1_6  and  N2_9
REMARK    3  A    between atoms: N2_9  and  C5_11
ROOT
HETATM    1  S1  UNL     1       4.724  -6.215 -38.705  1.00  0.00     0.264 S
HETATM    2  O1  UNL     1       3.345  -5.944 -38.108  1.00  0.00    -0.200 OA
HETATM    3  O2  UNL     1       5.576  -5.042 -38.260  1.00  0.00    -0.200 OA
ENDROOT
BRANCH   1   4
HETATM    4  C4  UNL     1       4.545  -6.103 -40.470  1.00  0.00     0.080 A
HETATM    5  C3  UNL     1       5.440  -5.351 -41.166  1.00  0.00     0.027 A
HETATM    6  C2  UNL     1       5.342  -5.232 -42.542  1.00  0.00     0.028 A
HETATM    7  C1  UNL     1       4.316  -5.895 -43.190  1.00  0.00     0.046 A
HETATM    8  N1  UNL     1       4.236  -5.760 -44.595  1.00  0.00    -0.102 NA
HETATM    9  C11 UNL     1       3.404  -6.657 -42.516  1.00  0.00     0.028 A
HETATM   10  C10 UNL     1       3.541  -6.749 -41.123  1.00  0.00     0.027 A
ENDBRANCH   1   4
BRANCH   1  11
HETATM   11  N2  UNL     1       5.356  -7.669 -38.266  1.00  0.00    -0.264 N
ATOM     12  H2  UNL     1       6.237  -7.514 -37.777  1.00  0.00     0.180 HD
BRANCH  11  13
HETATM   13  C5  UNL     1       5.135  -8.884 -38.321  1.00  0.00     0.139 A
HETATM   14  N3  UNL     1       4.493  -9.498 -37.263  1.00  0.00    -0.350 N
HETATM   15  C6  UNL     1       4.220 -10.791 -37.243  1.00  0.00     0.090 A
ATOM     16  H3  UNL     1       4.218  -8.929 -36.463  1.00  0.00     0.166 HD
HETATM   17  C7  UNL     1       4.571 -11.596 -38.300  1.00  0.00     0.019 A
HETATM   18  C8  UNL     1       5.208 -11.042 -39.372  1.00  0.00     0.032 A
HETATM   19  C9  UNL     1       5.488  -9.675 -39.376  1.00  0.00     0.091 A
HETATM   20  N4  UNL     1       6.150  -9.210 -40.540  1.00  0.00    -0.098 NA
ENDBRANCH  11  13
ENDBRANCH   1  11
TORSDOF 3
ENDMDL