MODEL 3
REMARK VINA RESULT: -7.742406086      1.900      3.045
REMARK  3 active torsions:
REMARK  status: ('A' for Active; 'I' for Inactive)
REMARK    1  A    between atoms: N1_2  and  O1_3
REMARK    2  A    between atoms: C2_5  and  C3_6
REMARK    3  A    between atoms: N2_8  and  C5_9
ROOT
HETATM    1  C5  UNL     1       5.345  -5.317 -43.096  1.00  0.00     0.056 A
HETATM    2  C6  UNL     1       6.494  -4.670 -43.552  1.00  0.00     0.032 A
HETATM    3  C7  UNL     1       6.614  -4.402 -44.900  1.00  0.00     0.025 A
HETATM    4  C8  UNL     1       5.630  -4.757 -45.808  1.00  0.00     0.044 A
HETATM    5  C9  UNL     1       5.734  -4.489 -47.208  1.00  0.00     0.099 C
HETATM    6  N3  UNL     1       5.825  -4.289 -48.348  1.00  0.00    -0.191 NA
HETATM    7  C10 UNL     1       4.493  -5.396 -45.362  1.00  0.00     0.025 A
HETATM    8  C11 UNL     1       4.384  -5.658 -44.018  1.00  0.00     0.032 A
ENDROOT
BRANCH   1   9
HETATM    9  N2  UNL     1       5.230  -5.589 -41.715  1.00  0.00    -0.158 N
HETATM   10  C4  UNL     1       5.462  -6.849 -41.217  1.00  0.00     0.131 A
HETATM   11  C3  UNL     1       5.360  -7.148 -39.885  1.00  0.00     0.040 A
HETATM   12  C13 UNL     1       4.997  -6.076 -39.049  1.00  0.00     0.144 A
HETATM   13  N5  UNL     1       4.775  -4.867 -39.539  1.00  0.00    -0.178 N
HETATM   14  N6  UNL     1       4.887  -6.373 -37.662  1.00  0.00    -0.081 NA
HETATM   15  C12 UNL     1       4.890  -4.627 -40.854  1.00  0.00     0.683 A
ATOM     16  H5  UNL     1       4.515  -4.108 -38.911  1.00  0.00     0.185 HD
HETATM   17  N4  UNL     1       4.675  -3.452 -41.342  1.00  0.00    -0.234 N
ATOM     18  H42 UNL     1       4.762  -3.270 -42.342  1.00  0.00     0.174 HD
ATOM     19  H41 UNL     1       4.416  -2.717 -40.684  1.00  0.00     0.174 HD
BRANCH  11  20
HETATM   20  C2  UNL     1       5.596  -8.443 -39.349  1.00  0.00     0.132 C
HETATM   21  N1  UNL     1       4.915  -9.474 -39.263  1.00  0.00    -0.276 N
HETATM   22  C1  UNL     1       3.593  -9.728 -39.696  1.00  0.00     0.184 C
BRANCH  21  23
HETATM   23  O1  UNL     1       5.564 -10.595 -38.624  1.00  0.00    -0.288 OA
ATOM     24  H1  UNL     1       5.819 -11.294 -39.215  1.00  0.00     0.244 HD
ENDBRANCH  21  23
ENDBRANCH  11  20
ENDBRANCH   1   9
TORSDOF 3
ENDMDL