MODEL 4
REMARK VINA RESULT: -5.055151749      2.605      4.629
REMARK  4 active torsions:
REMARK  status: ('A' for Active; 'I' for Inactive)
REMARK    1  A    between atoms: C11_12  and  O1_13
REMARK    2  A    between atoms: C14_17  and  C15_18
REMARK    3  A    between atoms: C14_17  and  O2_24
REMARK    4  A    between atoms: N2_19  and  N3_21
ROOT
HETATM    1  C1  UNL     1      18.405  28.762  24.391  1.00  0.00     0.221 C
HETATM    2  N1  UNL     1      19.582  28.765  24.435  1.00  0.00    -0.462 NA
HETATM    3  C2  UNL     1      20.991  28.760  24.462  1.00  0.00     0.210 C
HETATM    4  C3  UNL     1      21.494  30.000  25.103  1.00  0.00     0.000 C
HETATM    5  C4  UNL     1      20.527  30.784  25.888  1.00  0.00     0.014 C
HETATM    6  C5  UNL     1      20.463  30.023  27.193  1.00  0.00     0.010 C
HETATM    7  C6  UNL     1      21.871  29.494  27.362  1.00  0.00    -0.043 C
HETATM    8  C7  UNL     1      22.509  30.302  28.490  1.00  0.00     0.015 C
HETATM    9  C8  UNL     1      21.840  28.060  27.825  1.00  0.00     0.015 C
HETATM   10  C9  UNL     1      22.603  29.744  26.123  1.00  0.00     0.007 C
HETATM   11  C10 UNL     1      23.460  28.677  25.577  1.00  0.00     0.038 C
HETATM   12  C11 UNL     1      23.763  28.820  24.128  1.00  0.00     0.126 C
HETATM   13  C12 UNL     1      22.813  29.559  23.275  1.00  0.00     0.058 C
HETATM   14  C13 UNL     1      22.198  30.776  24.007  1.00  0.00     0.024 C
HETATM   15  C14 UNL     1      21.513  28.833  22.987  1.00  0.00     0.132 C
ENDROOT
BRANCH  15  16
HETATM   16  C15 UNL     1      21.691  27.480  22.467  1.00  0.00     0.121 C
HETATM   17  N2  UNL     1      20.792  26.789  21.929  1.00  0.00    -0.319 N
ATOM     18  H2  UNL     1      21.084  25.862  21.620  1.00  0.00     0.185 HD
BRANCH  17  19
HETATM   19  N3  UNL     1      19.461  27.098  21.694  1.00  0.00    -0.346 N
ATOM     20  H32 UNL     1      18.982  27.510  22.496  1.00  0.00     0.176 HD
ATOM     21  H31 UNL     1      18.905  26.974  20.848  1.00  0.00     0.176 HD
ENDBRANCH  17  19
ENDBRANCH  15  16
BRANCH  15  22
HETATM   22  O2  UNL     1      20.587  29.624  22.398  1.00  0.00    -0.376 OA
HETATM   23  C16 UNL     1      20.841  30.310  21.274  1.00  0.00     0.203 C
ENDBRANCH  15  22
BRANCH  12  24
HETATM   24  O1  UNL     1      25.026  29.441  23.956  1.00  0.00    -0.395 OA
ATOM     25  H1  UNL     1      25.015  30.313  24.335  1.00  0.00     0.210 HD
ENDBRANCH  12  24
TORSDOF 4
ENDMDL