MODEL 5
REMARK VINA RESULT: -6.328470861      5.853      8.929
REMARK  3 active torsions:
REMARK  status: ('A' for Active; 'I' for Inactive)
REMARK    1  A    between atoms: C5_6  and  N2_7
REMARK       I    between atoms: N2_7  and  C6_9
REMARK       I    between atoms: C6_9  and  N3_11
REMARK    2  A    between atoms: N3_11  and  C7_13
REMARK    3  A    between atoms: C10_16  and  N4_17
ROOT
HETATM    1  N2  UNL     1      20.711  35.518  20.888  1.00  0.00    -0.337 N
ATOM      2  H2  UNL     1      19.796  35.886  20.628  1.00  0.00     0.164 HD
HETATM    3  C6  UNL     1      21.035  34.207  20.505  1.00  0.00     0.316 C
HETATM    4  O1  UNL     1      22.167  33.752  20.827  1.00  0.00    -0.247 OA
HETATM    5  N3  UNL     1      20.152  33.397  19.784  1.00  0.00    -0.339 N
ATOM      6  H3  UNL     1      19.246  33.795  19.538  1.00  0.00     0.164 HD
ENDROOT
BRANCH   5   7
HETATM    7  C7  UNL     1      20.419  32.048  19.359  1.00  0.00     0.086 C
HETATM    8  C8  UNL     1      20.331  31.900  17.865  1.00  0.00     0.027 C
HETATM    9  C9  UNL     1      19.026  31.286  17.411  1.00  0.00     0.035 C
HETATM   10  C10 UNL     1      18.764  29.942  18.029  1.00  0.00     0.189 C
HETATM   11  C14 UNL     1      19.673  29.740  19.250  1.00  0.00     0.035 C
HETATM   12  C15 UNL     1      19.580  31.026  20.048  1.00  0.00     0.027 C
BRANCH  10  13
HETATM   13  N4  UNL     1      18.838  28.850  17.117  1.00  0.00    -0.074 N
HETATM   14  C11 UNL     1      19.283  27.613  17.783  1.00  0.00     0.272 C
HETATM   15  C12 UNL     1      17.613  28.532  16.450  1.00  0.00     0.272 C
HETATM   16  C13 UNL     1      19.843  29.088  16.067  1.00  0.00     0.272 C
ENDBRANCH  10  13
ENDBRANCH   5   7
BRANCH   1  17
HETATM   17  C5  UNL     1      21.613  36.382  21.639  1.00  0.00     0.103 C
HETATM   18  C4  UNL     1      21.644  37.708  20.962  1.00  0.00     0.028 C
HETATM   19  C3  UNL     1      21.728  38.885  21.883  1.00  0.00     0.021 C
HETATM   20  C2  UNL     1      22.349  38.500  23.209  1.00  0.00     0.116 C
HETATM   21  N1  UNL     1      21.480  37.548  23.811  1.00  0.00    -0.415 N
HETATM   22  C1  UNL     1      20.370  38.098  24.513  1.00  0.00     0.143 C
HETATM   23  C16 UNL     1      21.222  36.374  23.068  1.00  0.00     0.141 C
ENDBRANCH   1  17
TORSDOF 3
ENDMDL