MODEL 4
REMARK VINA RESULT: -6.100173595      2.380      6.998
REMARK  3 active torsions:
REMARK  status: ('A' for Active; 'I' for Inactive)
REMARK    1  A    between atoms: C2_2  and  N1_3
REMARK    2  A    between atoms: C6_7  and  N2_8
REMARK    3  A    between atoms: C14_16  and  N3_17
REMARK       I    between atoms: N3_17  and  C15_19
ROOT
HETATM    1  N1  UNL     1      22.086  33.343  21.695  1.00  0.00     0.090 N
HETATM    2  C3  UNL     1      23.371  33.298  21.086  1.00  0.00     0.272 C
HETATM    3  C4  UNL     1      23.895  31.871  21.166  1.00  0.00     0.032 C
HETATM    4  C5  UNL     1      23.609  31.329  22.560  1.00  0.00     0.035 C
HETATM    5  C6  UNL     1      22.988  29.933  22.437  1.00  0.00     0.192 C
HETATM    6  C13 UNL     1      21.706  30.016  21.704  1.00  0.00     0.060 C
HETATM    7  C14 UNL     1      20.872  31.247  21.925  1.00  0.00     0.114 C
HETATM    8  C16 UNL     1      21.208  32.405  21.025  1.00  0.00     0.297 C
ENDROOT
BRANCH   5   9
HETATM    9  N2  UNL     1      23.009  29.196  23.652  1.00  0.00    -0.067 N
HETATM   10  C7  UNL     1      22.356  27.892  23.522  1.00  0.00     0.273 C
HETATM   11  C8  UNL     1      24.343  29.098  24.201  1.00  0.00     0.237 C
HETATM   12  C9  UNL     1      24.431  28.176  25.393  1.00  0.00     0.028 C
HETATM   13  C10 UNL     1      23.470  28.585  26.488  1.00  0.00     0.003 C
HETATM   14  C11 UNL     1      22.129  29.011  25.931  1.00  0.00     0.028 C
HETATM   15  C12 UNL     1      22.239  29.869  24.720  1.00  0.00     0.237 C
ENDBRANCH   5   9
BRANCH   7  16
HETATM   16  N3  UNL     1      19.467  30.945  21.754  1.00  0.00    -0.358 N
HETATM   17  C15 UNL     1      18.569  30.716  22.806  1.00  0.00     0.182 C
HETATM   18  N4  UNL     1      18.691  29.899  23.779  1.00  0.00    -0.374 N
HETATM   19  N5  UNL     1      17.334  31.476  22.835  1.00  0.00    -0.064 NA
ATOM     20  H42 UNL     1      19.560  29.364  23.758  1.00  0.00     0.158 HD
ATOM     21  H41 UNL     1      18.038  29.732  24.544  1.00  0.00     0.158 HD
ATOM     22  H3  UNL     1      19.105  30.895  20.802  1.00  0.00     0.162 HD
ENDBRANCH   7  16
BRANCH   1  23
HETATM   23  C2  UNL     1      21.528  34.650  21.841  1.00  0.00     0.268 C
HETATM   24  C1  UNL     1      22.345  35.712  21.193  1.00  0.00     0.037 C
ENDBRANCH   1  23
TORSDOF 3
ENDMDL