MODEL 2
REMARK VINA RESULT: -6.543671363      5.455      7.622
REMARK  2 active torsions:
REMARK  status: ('A' for Active; 'I' for Inactive)
REMARK       I    between atoms: N3_4  and  C2_6
REMARK       I    between atoms: C2_6  and  N4_8
REMARK    1  A    between atoms: N4_8  and  C3_10
REMARK    2  A    between atoms: C8_15  and  C9_16
REMARK       I    between atoms: C9_16  and  N5_18
ROOT
HETATM    1  C3  UNL     1      20.542  37.081  22.800  1.00  0.00     0.099 C
HETATM    2  C4  UNL     1      20.311  37.727  21.442  1.00  0.00     0.026 C
HETATM    3  C5  UNL     1      21.418  38.674  21.076  1.00  0.00     0.002 C
HETATM    4  C6  UNL     1      22.785  38.150  21.272  1.00  0.00     0.001 C
HETATM    5  C7  UNL     1      22.975  37.237  22.433  1.00  0.00     0.016 C
HETATM    6  C8  UNL     1      21.816  36.317  22.690  1.00  0.00     0.101 C
ENDROOT
BRANCH   1   7
HETATM    7  N4  UNL     1      20.562  38.114  23.784  1.00  0.00    -0.337 N
HETATM    8  C2  UNL     1      20.567  37.807  25.162  1.00  0.00     0.322 C
HETATM    9  N3  UNL     1      20.587  38.820  26.143  1.00  0.00    -0.285 N
HETATM   10  O1  UNL     1      20.554  36.602  25.508  1.00  0.00    -0.247 OA
HETATM   11  C1  UNL     1      19.505  39.411  26.487  1.00  0.00     0.204 C
ATOM     12  H3  UNL     1      21.470  39.084  26.581  1.00  0.00     0.172 HD
HETATM   13  N1  UNL     1      18.282  39.047  25.880  1.00  0.00    -0.066 NA
HETATM   14  N2  UNL     1      19.557  40.421  27.472  1.00  0.00    -0.066 NA
ATOM     15  H4  UNL     1      20.573  39.090  23.487  1.00  0.00     0.164 HD
ENDBRANCH   1   7
BRANCH   6  16
HETATM   16  C9  UNL     1      21.706  35.243  21.697  1.00  0.00     0.226 C
HETATM   17  O2  UNL     1      22.125  35.539  20.521  1.00  0.00    -0.273 OA
HETATM   18  N5  UNL     1      21.205  33.955  21.883  1.00  0.00    -0.352 N
HETATM   19  C10 UNL     1      20.693  33.434  23.156  1.00  0.00     0.125 C
HETATM   20  C14 UNL     1      21.158  33.004  20.787  1.00  0.00     0.125 C
HETATM   21  C11 UNL     1      20.965  31.938  23.171  1.00  0.00     0.020 C
HETATM   22  C12 UNL     1      22.265  31.612  22.480  1.00  0.00     0.003 C
HETATM   23  C13 UNL     1      22.229  31.971  21.024  1.00  0.00     0.020 C
ENDBRANCH   6  16
TORSDOF 2
ENDMDL