MODEL 1
REMARK VINA RESULT: -6.895011063      0.000      0.000
REMARK  3 active torsions:
REMARK  status: ('A' for Active; 'I' for Inactive)
REMARK    1  A    between atoms: C4_4  and  C5_5
REMARK    2  A    between atoms: N1_6  and  N2_8
REMARK       I    between atoms: N2_8  and  C6_10
REMARK       I    between atoms: N4_12  and  C7_14
REMARK       I    between atoms: N6_16  and  C8_18
REMARK    3  A    between atoms: C8_18  and  C9_20
ROOT
HETATM    1  N2  UNL     1      19.894  31.217  18.578  1.00  0.00    -0.274 N
ATOM      2  H2  UNL     1      20.289  30.573  19.263  1.00  0.00     0.189 HD
HETATM    3  C6  UNL     1      20.506  32.469  18.329  1.00  0.00     0.209 C
HETATM    4  N3  UNL     1      21.075  32.832  17.082  1.00  0.00    -0.062 NA
HETATM    5  N4  UNL     1      20.549  33.325  19.289  1.00  0.00    -0.303 N
ATOM      6  H4  UNL     1      20.991  34.226  19.104  1.00  0.00     0.171 HD
HETATM    7  C7  UNL     1      20.025  33.100  20.580  1.00  0.00     0.197 C
HETATM    8  N5  UNL     1      18.939  32.223  20.776  1.00  0.00    -0.063 NA
HETATM    9  N6  UNL     1      20.539  33.699  21.589  1.00  0.00    -0.301 N
ATOM     10  H6  UNL     1      20.161  33.537  22.523  1.00  0.00     0.171 HD
HETATM   11  C8  UNL     1      21.629  34.585  21.414  1.00  0.00     0.228 C
HETATM   12  O1  UNL     1      22.455  34.423  20.488  1.00  0.00    -0.273 OA
ENDROOT
BRANCH   1  13
HETATM   13  N1  UNL     1      18.742  30.880  17.869  1.00  0.00    -0.313 N
HETATM   14  C5  UNL     1      18.522  29.731  17.373  1.00  0.00     0.085 C
ATOM     15  H1  UNL     1      18.032  31.601  17.740  1.00  0.00     0.185 HD
BRANCH  14  16
HETATM   16  C4  UNL     1      19.506  28.634  17.517  1.00  0.00     0.030 A
HETATM   17  C2  UNL     1      19.203  27.259  17.070  1.00  0.00    -0.009 A
HETATM   18  C1  UNL     1      17.870  26.956  16.421  1.00  0.00     0.011 C
HETATM   19  C3  UNL     1      19.173  27.593  18.527  1.00  0.00     0.015 A
ENDBRANCH  14  16
ENDBRANCH   1  13
BRANCH  11  20
HETATM   20  C9  UNL     1      21.813  35.747  22.352  1.00  0.00     0.078 C
HETATM   21  C10 UNL     1      20.895  35.532  23.505  1.00  0.00     0.014 C
HETATM   22  C11 UNL     1      21.204  36.323  24.721  1.00  0.00     0.001 C
HETATM   23  C12 UNL     1      22.233  37.403  24.517  1.00  0.00     0.000 C
HETATM   24  C13 UNL     1      21.835  38.457  23.554  1.00  0.00     0.000 C
HETATM   25  C14 UNL     1      20.840  38.027  22.527  1.00  0.00     0.001 C
HETATM   26  C15 UNL     1      21.357  36.972  21.597  1.00  0.00     0.014 C
ENDBRANCH  11  20
TORSDOF 3
ENDMDL