MODEL 5
REMARK VINA RESULT: -5.919332078      2.981      5.508
REMARK  5 active torsions:
REMARK  status: ('A' for Active; 'I' for Inactive)
REMARK    1  A    between atoms: C2_2  and  N1_3
REMARK    2  A    between atoms: N1_3  and  C3_5
REMARK    3  A    between atoms: C3_5  and  N2_7
REMARK       I    between atoms: C4_9  and  N3_10
REMARK       I    between atoms: C4_9  and  N4_16
REMARK    4  A    between atoms: N3_10  and  C5_12
REMARK    5  A    between atoms: C12_20  and  C13_21
ROOT
HETATM    1  N2  UNL     1      20.647  34.358  20.715  1.00  0.00    -0.167 N
ATOM      2  H2  UNL     1      19.890  34.717  20.132  1.00  0.00     0.186 HD
HETATM    3  C4  UNL     1      20.715  33.107  20.734  1.00  0.00     0.679 C
HETATM    4  N3  UNL     1      19.743  32.391  19.955  1.00  0.00    -0.221 N
ATOM      5  H3  UNL     1      19.171  31.671  20.395  1.00  0.00     0.178 HD
HETATM    6  N4  UNL     1      21.651  32.305  21.445  1.00  0.00    -0.203 N
HETATM    7  C9  UNL     1      23.084  32.612  21.430  1.00  0.00     0.142 C
HETATM    8  C10 UNL     1      23.744  31.400  22.046  1.00  0.00     0.023 C
HETATM    9  C11 UNL     1      22.701  30.979  23.058  1.00  0.00     0.038 C
HETATM   10  C12 UNL     1      21.403  31.129  22.254  1.00  0.00     0.203 C
ENDROOT
BRANCH   1  11
HETATM   11  C3  UNL     1      21.392  35.351  21.323  1.00  0.00     0.186 C
HETATM   12  S1  UNL     1      21.299  35.553  22.938  1.00  0.00    -0.040 SA
BRANCH  11  13
HETATM   13  N1  UNL     1      22.244  36.199  20.569  1.00  0.00    -0.367 N
ATOM     14  H1  UNL     1      22.221  36.126  19.552  1.00  0.00     0.161 HD
BRANCH  13  15
HETATM   15  C2  UNL     1      23.144  37.165  21.168  1.00  0.00     0.117 C
HETATM   16  C1  UNL     1      24.557  36.663  21.200  1.00  0.00     0.026 C
ENDBRANCH  13  15
ENDBRANCH  11  13
ENDBRANCH   1  11
BRANCH   4  17
HETATM   17  C5  UNL     1      19.574  32.682  18.568  1.00  0.00     0.099 C
HETATM   18  C6  UNL     1      19.261  31.521  17.654  1.00  0.00     0.026 C
HETATM   19  C7  UNL     1      18.338  32.475  16.883  1.00  0.00     0.004 C
HETATM   20  C8  UNL     1      18.236  33.262  18.185  1.00  0.00     0.026 C
ENDBRANCH   4  17
BRANCH  10  21
HETATM   21  C13 UNL     1      21.293  29.903  21.437  1.00  0.00     0.197 C
HETATM   22  O1  UNL     1      20.384  29.688  20.599  1.00  0.00    -0.646 OA
HETATM   23  O2  UNL     1      22.250  28.894  21.586  1.00  0.00    -0.646 OA
ENDBRANCH  10  21
TORSDOF 5
ENDMDL