MODEL 1
REMARK VINA RESULT: -6.371747778      0.000      0.000
REMARK  5 active torsions:
REMARK  status: ('A' for Active; 'I' for Inactive)
REMARK    1  A    between atoms: N3_4  and  C2_6
REMARK    2  A    between atoms: C2_6  and  N4_8
REMARK    3  A    between atoms: N4_8  and  C3_10
REMARK    4  A    between atoms: C3_10  and  C4_11
REMARK    5  A    between atoms: C4_11  and  C5_13
ROOT
HETATM    1  C4  UNL     1      22.216  36.817  22.708  1.00  0.00     0.149 C
HETATM    2  O1  UNL     1      23.340  37.188  22.433  1.00  0.00    -0.296 OA
ENDROOT
BRANCH   1   3
HETATM    3  C3  UNL     1      21.246  36.622  21.603  1.00  0.00     0.200 C
BRANCH   3   4
HETATM    4  N4  UNL     1      21.642  35.641  20.646  1.00  0.00    -0.360 N
ATOM      5  H4  UNL     1      21.819  35.904  19.677  1.00  0.00     0.162 HD
BRANCH   4   6
HETATM    6  C2  UNL     1      21.785  34.284  21.069  1.00  0.00     0.174 C
HETATM    7  S1  UNL     1      23.212  33.530  20.980  1.00  0.00    -0.041 SA
BRANCH   6   8
HETATM    8  N3  UNL     1      20.647  33.619  21.580  1.00  0.00    -0.310 N
HETATM    9  C1  UNL     1      19.807  33.101  20.762  1.00  0.00     0.203 C
HETATM   10  N1  UNL     1      20.011  33.190  19.363  1.00  0.00    -0.066 NA
HETATM   11  N2  UNL     1      18.671  32.438  21.303  1.00  0.00    -0.066 NA
ATOM     12  H3  UNL     1      20.496  33.552  22.587  1.00  0.00     0.170 HD
ENDBRANCH   6   8
ENDBRANCH   4   6
ENDBRANCH   3   4
ENDBRANCH   1   3
BRANCH   1  13
HETATM   13  C5  UNL     1      21.850  36.575  24.104  1.00  0.00     0.065 C
HETATM   14  C6  UNL     1      20.364  36.739  24.367  1.00  0.00    -0.002 C
HETATM   15  C7  UNL     1      19.935  38.160  24.481  1.00  0.00     0.010 C
HETATM   16  C11 UNL     1      20.094  36.059  25.701  1.00  0.00     0.010 C
HETATM   17  C8  UNL     1      20.726  38.898  25.534  1.00  0.00    -0.013 C
HETATM   18  C9  UNL     1      20.458  38.222  26.861  1.00  0.00     0.009 C
HETATM   19  C14 UNL     1      22.176  38.819  25.144  1.00  0.00     0.010 C
HETATM   20  C10 UNL     1      20.889  36.783  26.757  1.00  0.00    -0.013 C
HETATM   21  C12 UNL     1      22.359  36.746  26.462  1.00  0.00     0.010 C
HETATM   22  C13 UNL     1      22.637  37.401  25.098  1.00  0.00    -0.002 C
ENDBRANCH   1  13
TORSDOF 5
ENDMDL