MODEL 2
REMARK VINA RESULT: -6.097376206      2.132      4.438
REMARK  3 active torsions:
REMARK  status: ('A' for Active; 'I' for Inactive)
REMARK    1  A    between atoms: C2_2  and  C3_3
REMARK    2  A    between atoms: C3_3  and  N1_4
REMARK       I    between atoms: N1_4  and  C4_5
REMARK    3  A    between atoms: C4_5  and  C5_7
REMARK       I    between atoms: N2_15  and  C13_16
ROOT
HETATM    1  C5  UNL     1      20.574  31.569  20.718  1.00  0.00     0.105 C
HETATM    2  C6  UNL     1      21.669  32.445  21.250  1.00  0.00     0.069 C
HETATM    3  C7  UNL     1      21.374  33.345  22.364  1.00  0.00    -0.019 C
HETATM    4  C8  UNL     1      20.708  33.049  23.596  1.00  0.00    -0.030 C
HETATM    5  C9  UNL     1      20.406  31.708  24.111  1.00  0.00     0.027 C
HETATM    6  C10 UNL     1      21.513  30.780  24.410  1.00  0.00     0.010 C
HETATM    7  C11 UNL     1      22.347  30.371  23.209  1.00  0.00     0.009 C
HETATM    8  C12 UNL     1      21.471  29.607  22.304  1.00  0.00     0.136 C
HETATM    9  N2  UNL     1      20.648  30.285  21.339  1.00  0.00    -0.318 N
HETATM   10  C13 UNL     1      19.642  29.386  20.846  1.00  0.00     0.188 C
HETATM   11  N3  UNL     1      18.841  28.879  21.743  1.00  0.00    -0.373 N
ATOM     12  H31 UNL     1      18.127  28.240  21.393  1.00  0.00     0.158 HD
ATOM     13  H32 UNL     1      18.939  29.139  22.725  1.00  0.00     0.158 HD
HETATM   14  N4  UNL     1      19.508  29.030  19.503  1.00  0.00    -0.064 NA
HETATM   15  C14 UNL     1      23.163  31.469  22.778  1.00  0.00    -0.003 A
HETATM   16  C15 UNL     1      24.193  31.682  21.764  1.00  0.00     0.011 A
HETATM   17  C16 UNL     1      22.859  31.561  21.316  1.00  0.00     0.004 A
ENDROOT
BRANCH   1  18
HETATM   18  C4  UNL     1      19.287  32.146  20.376  1.00  0.00     0.339 C
HETATM   19  N1  UNL     1      19.003  32.492  19.087  1.00  0.00    -0.378 NA
HETATM   20  O1  UNL     1      18.384  32.337  21.284  1.00  0.00    -0.250 OA
BRANCH  19  21
HETATM   21  C3  UNL     1      18.718  32.841  17.785  1.00  0.00     0.186 C
BRANCH  21  22
HETATM   22  C2  UNL     1      18.866  31.792  16.773  1.00  0.00     0.022 C
HETATM   23  C1  UNL     1      20.012  31.295  16.389  1.00  0.00     0.013 C
ENDBRANCH  21  22
ENDBRANCH  19  21
ENDBRANCH   1  18
TORSDOF 3
ENDMDL