MODEL 2
REMARK VINA RESULT: -6.728689271      4.304      7.984
REMARK  5 active torsions:
REMARK  status: ('A' for Active; 'I' for Inactive)
REMARK    1  A    between atoms: N1_2  and  C2_3
REMARK    2  A    between atoms: C2_3  and  C3_4
REMARK    3  A    between atoms: C4_5  and  C5_6
REMARK    4  A    between atoms: C5_6  and  N2_7
REMARK    5  A    between atoms: C9_11  and  N3_12
REMARK       I    between atoms: N3_12  and  C10_14
ROOT
HETATM    1  N2  UNL     1      21.181  31.502  21.348  1.00  0.00     0.101 N
HETATM    2  C6  UNL     1      22.226  31.593  22.339  1.00  0.00     0.273 C
HETATM    3  C7  UNL     1      23.532  32.061  21.784  1.00  0.00     0.032 C
HETATM    4  C8  UNL     1      23.403  33.303  20.917  1.00  0.00     0.029 C
HETATM    5  C9  UNL     1      21.973  33.742  20.990  1.00  0.00     0.112 C
HETATM    6  C11 UNL     1      21.108  32.620  20.454  1.00  0.00     0.298 C
ENDROOT
BRANCH   1   7
HETATM    7  C5  UNL     1      19.921  31.299  22.059  1.00  0.00     0.365 C
BRANCH   7   8
HETATM    8  C4  UNL     1      20.116  30.152  22.974  1.00  0.00    -0.075 C
HETATM    9  C3  UNL     1      20.255  29.225  23.729  1.00  0.00    -0.077 C
BRANCH   9  10
HETATM   10  C2  UNL     1      20.408  28.130  24.650  1.00  0.00     0.330 C
BRANCH  10  11
HETATM   11  N1  UNL     1      21.762  27.905  25.066  1.00  0.00    -0.061 N
HETATM   12  C1  UNL     1      21.937  26.823  25.990  1.00  0.00     0.273 C
HETATM   13  C12 UNL     1      22.178  29.125  25.777  1.00  0.00     0.238 C
HETATM   14  C13 UNL     1      23.601  29.058  26.229  1.00  0.00     0.028 C
HETATM   15  C14 UNL     1      24.563  28.628  25.169  1.00  0.00     0.003 C
HETATM   16  C15 UNL     1      23.814  28.549  23.863  1.00  0.00     0.028 C
HETATM   17  C16 UNL     1      22.623  27.646  23.923  1.00  0.00     0.238 C
ENDBRANCH  10  11
ENDBRANCH   9  10
ENDBRANCH   7   8
ENDBRANCH   1   7
BRANCH   5  18
HETATM   18  N3  UNL     1      21.682  35.007  20.412  1.00  0.00    -0.358 N
HETATM   19  C10 UNL     1      21.667  36.243  21.104  1.00  0.00     0.182 C
HETATM   20  N4  UNL     1      21.178  36.302  22.289  1.00  0.00    -0.374 N
HETATM   21  N5  UNL     1      22.179  37.448  20.532  1.00  0.00    -0.064 NA
ATOM     22  H42 UNL     1      20.813  35.442  22.697  1.00  0.00     0.158 HD
ATOM     23  H41 UNL     1      21.168  37.192  22.788  1.00  0.00     0.158 HD
ATOM     24  H3  UNL     1      21.465  35.026  19.416  1.00  0.00     0.162 HD
ENDBRANCH   5  18
TORSDOF 5
ENDMDL