MODEL 3
REMARK VINA RESULT: -6.974206694      4.942      6.386
REMARK  4 active torsions:
REMARK  status: ('A' for Active; 'I' for Inactive)
REMARK       I    between atoms: C1_2  and  N2_4
REMARK    1  A    between atoms: C2_6  and  N3_7
REMARK    2  A    between atoms: C2_6  and  C13_19
REMARK    3  A    between atoms: N3_7  and  C3_9
REMARK    4  A    between atoms: C15_21  and  C16_22
ROOT
HETATM    1  N1  UNL     1      22.720  34.765  21.447  1.00  0.00    -0.040 NA
HETATM    2  C1  UNL     1      22.636  33.689  20.537  1.00  0.00     0.334 C
HETATM    3  O1  UNL     1      23.662  32.979  20.307  1.00  0.00    -0.251 OA
HETATM    4  N2  UNL     1      21.451  33.353  19.857  1.00  0.00    -0.300 N
ATOM      5  H2  UNL     1      21.263  33.808  18.964  1.00  0.00     0.171 HD
HETATM    6  C2  UNL     1      20.570  32.481  20.309  1.00  0.00     0.086 C
ENDROOT
BRANCH   6   7
HETATM    7  N3  UNL     1      20.900  31.892  21.553  1.00  0.00    -0.374 N
ATOM      8  H3  UNL     1      21.082  32.535  22.324  1.00  0.00     0.161 HD
BRANCH   7   9
HETATM    9  C3  UNL     1      21.006  30.499  21.852  1.00  0.00     0.091 C
HETATM   10  C4  UNL     1      20.297  30.040  23.074  1.00  0.00     0.009 C
HETATM   11  C5  UNL     1      20.347  28.522  23.133  1.00  0.00     0.011 C
HETATM   12  C9  UNL     1      21.051  30.567  24.282  1.00  0.00     0.011 C
HETATM   13  C6  UNL     1      21.779  28.067  23.153  1.00  0.00    -0.013 C
HETATM   14  C7  UNL     1      22.443  28.571  24.395  1.00  0.00     0.009 C
HETATM   15  C12 UNL     1      22.498  28.538  21.904  1.00  0.00     0.011 C
HETATM   16  C8  UNL     1      22.459  30.075  24.335  1.00  0.00    -0.013 C
HETATM   17  C10 UNL     1      23.176  30.558  23.099  1.00  0.00     0.011 C
HETATM   18  C11 UNL     1      22.451  30.048  21.899  1.00  0.00     0.009 C
ENDBRANCH   7   9
ENDBRANCH   6   7
BRANCH   6  19
HETATM   19  C13 UNL     1      19.374  32.181  19.530  1.00  0.00     0.067 A
HETATM   20  C14 UNL     1      19.227  30.779  18.958  1.00  0.00     0.027 A
HETATM   21  C15 UNL     1      19.293  32.027  18.082  1.00  0.00     0.087 A
BRANCH  21  22
HETATM   22  C16 UNL     1      20.403  32.131  17.143  1.00  0.00     0.236 C
HETATM   23  N4  UNL     1      20.750  31.096  16.236  1.00  0.00    -0.062 NA
HETATM   24  O2  UNL     1      21.119  33.167  17.094  1.00  0.00    -0.276 OA
ENDBRANCH  21  22
ENDBRANCH   6  19
TORSDOF 4
ENDMDL