MODEL 4
REMARK VINA RESULT: -6.307322906      3.320      4.503
REMARK  6 active torsions:
REMARK  status: ('A' for Active; 'I' for Inactive)
REMARK    1  A    between atoms: C4_4  and  O1_5
REMARK    2  A    between atoms: O1_5  and  C5_6
REMARK    3  A    between atoms: C5_6  and  C6_8
REMARK    4  A    between atoms: C6_8  and  O3_10
REMARK    5  A    between atoms: C6_8  and  C8_12
REMARK    6  A    between atoms: C8_12  and  C9_13
ROOT
HETATM    1  C5  UNL     1      21.930  32.239  20.738  1.00  0.00     0.293 C
HETATM    2  O2  UNL     1      22.057  30.997  20.853  1.00  0.00    -0.262 OA
ENDROOT
BRANCH   1   3
HETATM    3  O1  UNL     1      22.804  33.015  21.485  1.00  0.00    -0.314 OA
BRANCH   3   4
HETATM    4  C4  UNL     1      24.118  33.256  21.103  1.00  0.00     0.135 C
HETATM    5  C3  UNL     1      24.603  34.652  21.417  1.00  0.00     0.068 C
HETATM    6  C2  UNL     1      25.874  34.837  20.583  1.00  0.00     0.221 C
HETATM    7  C1  UNL     1      26.395  36.233  20.647  1.00  0.00     0.043 C
HETATM    8  N1  UNL     1      26.868  33.906  21.070  1.00  0.00     0.088 N
HETATM    9  C13 UNL     1      26.438  32.535  20.959  1.00  0.00     0.275 C
HETATM   10  C14 UNL     1      28.033  34.047  20.187  1.00  0.00     0.310 C
HETATM   11  C12 UNL     1      25.118  32.285  21.659  1.00  0.00     0.062 C
ENDBRANCH   3   4
ENDBRANCH   1   3
BRANCH   1  12
HETATM   12  C6  UNL     1      20.879  32.843  19.832  1.00  0.00     0.143 C
HETATM   13  C7  UNL     1      20.177  33.854  20.677  1.00  0.00     0.057 C
BRANCH  12  14
HETATM   14  O3  UNL     1      21.585  33.420  18.776  1.00  0.00    -0.380 OA
ATOM     15  H3  UNL     1      20.949  33.944  18.303  1.00  0.00     0.211 HD
ENDBRANCH  12  14
BRANCH  12  16
HETATM   16  C8  UNL     1      20.077  31.716  19.333  1.00  0.00     0.073 C
BRANCH  16  17
HETATM   17  C9  UNL     1      19.481  31.770  17.991  1.00  0.00     0.033 C
HETATM   18  C10 UNL     1      18.251  32.642  17.863  1.00  0.00     0.032 C
HETATM   19  C11 UNL     1      20.421  32.094  16.868  1.00  0.00     0.032 C
HETATM   20 CL1  UNL     1      18.918  30.092  17.606  1.00  0.00    -0.120 Cl
ENDBRANCH  16  17
ENDBRANCH  12  16
ENDBRANCH   1  12
TORSDOF 6
ENDMDL