MODEL 1
REMARK VINA RESULT: -7.527483913      0.000      0.000
REMARK  6 active torsions:
REMARK  status: ('A' for Active; 'I' for Inactive)
REMARK    1  A    between atoms: C3_3  and  C4_4
REMARK    2  A    between atoms: C5_5  and  C6_6
REMARK    3  A    between atoms: C6_6  and  O2_8
REMARK    4  A    between atoms: O2_8  and  C7_9
REMARK    5  A    between atoms: C7_9  and  C8_10
REMARK    6  A    between atoms: C11_15  and  O4_16
ROOT
HETATM    1  C4  UNL     1      23.604  35.325  21.003  1.00  0.00     0.084 C
HETATM    2  C5  UNL     1      23.305  34.066  21.736  1.00  0.00     0.101 C
HETATM    3  C9  UNL     1      21.882  33.789  22.003  1.00  0.00     0.048 C
HETATM    4  C10 UNL     1      20.880  34.778  21.545  1.00  0.00     0.134 C
HETATM    5  O3  UNL     1      21.368  35.598  20.498  1.00  0.00    -0.348 OA
HETATM    6  C11 UNL     1      22.421  36.268  21.116  1.00  0.00     0.170 C
HETATM    7  C12 UNL     1      22.015  36.530  22.551  1.00  0.00     0.080 C
HETATM    8  C13 UNL     1      20.649  35.891  22.576  1.00  0.00    -0.016 C
HETATM    9  C14 UNL     1      19.658  36.871  22.037  1.00  0.00     0.018 C
HETATM   10  C15 UNL     1      20.230  35.380  23.894  1.00  0.00     0.018 C
ENDROOT
BRANCH   2  11
HETATM   11  C6  UNL     1      23.907  32.925  20.932  1.00  0.00     0.264 C
HETATM   12  O1  UNL     1      23.336  31.808  20.906  1.00  0.00    -0.265 OA
BRANCH  11  13
HETATM   13  O2  UNL     1      25.049  33.062  20.234  1.00  0.00    -0.320 OA
BRANCH  13  14
HETATM   14  C7  UNL     1      26.256  32.423  20.199  1.00  0.00     0.193 C
BRANCH  14  15
HETATM   15  C8  UNL     1      27.504  33.182  19.945  1.00  0.00     0.141 C
HETATM   16 CL1  UNL     1      28.676  33.078  21.219  1.00  0.00    -0.128 Cl
ENDBRANCH  14  15
ENDBRANCH  13  14
ENDBRANCH  11  13
ENDBRANCH   2  11
BRANCH   1  17
HETATM   17  C3  UNL     1      24.863  35.970  21.420  1.00  0.00    -0.020 C
HETATM   18  C2  UNL     1      25.762  36.293  20.504  1.00  0.00    -0.034 C
HETATM   19  C1  UNL     1      27.064  36.953  20.874  1.00  0.00     0.036 C
ENDBRANCH   1  17
BRANCH   6  20
HETATM   20  O4  UNL     1      22.688  37.494  20.499  1.00  0.00    -0.365 OA
ATOM     21  H4  UNL     1      23.301  38.011  21.009  1.00  0.00     0.213 HD
ENDBRANCH   6  20
TORSDOF 6
ENDMDL