MODEL 4
REMARK VINA RESULT: -6.382713318      4.308      6.680
REMARK  5 active torsions:
REMARK  status: ('A' for Active; 'I' for Inactive)
REMARK    1  A    between atoms: C2_2  and  O1_3
REMARK    2  A    between atoms: C2_2  and  N1_5
REMARK    3  A    between atoms: C6_8  and  C7_9
REMARK    4  A    between atoms: C7_9  and  N2_10
REMARK    5  A    between atoms: C11_17  and  S1_18
ROOT
HETATM    1  N2  UNL     1      21.448  34.548  21.056  1.00  0.00    -0.283 N
HETATM    2  N3  UNL     1      21.626  35.748  20.542  1.00  0.00    -0.300 N
ATOM      3  H3  UNL     1      22.059  35.927  19.636  1.00  0.00     0.187 HD
HETATM    4  C8  UNL     1      21.163  36.712  21.372  1.00  0.00     0.046 A
HETATM    5  C9  UNL     1      21.196  38.180  21.125  1.00  0.00     0.071 C
HETATM    6  C10 UNL     1      20.671  36.039  22.461  1.00  0.00     0.092 A
HETATM    7 CL1  UNL     1      19.940  36.746  23.868  1.00  0.00    -0.079 Cl
HETATM    8  C11 UNL     1      20.856  34.683  22.248  1.00  0.00     0.110 A
ENDROOT
BRANCH   1   9
HETATM    9  C7  UNL     1      21.846  33.323  20.443  1.00  0.00     0.156 C
BRANCH   9  10
HETATM   10  C6  UNL     1      23.192  32.810  20.723  1.00  0.00     0.025 C
HETATM   11  C5  UNL     1      23.341  31.741  21.755  1.00  0.00     0.028 C
HETATM   12  C4  UNL     1      24.824  31.820  22.142  1.00  0.00     0.125 C
HETATM   13  N1  UNL     1      25.368  32.914  21.364  1.00  0.00    -0.362 N
HETATM   14  C13 UNL     1      24.227  33.829  21.149  1.00  0.00     0.131 C
BRANCH  13  15
HETATM   15  C2  UNL     1      26.688  33.073  20.911  1.00  0.00     0.130 C
HETATM   16  C1  UNL     1      26.943  33.779  19.834  1.00  0.00     0.071 C
BRANCH  15  17
HETATM   17  O1  UNL     1      27.730  32.487  21.598  1.00  0.00    -0.341 OA
HETATM   18  C3  UNL     1      29.070  32.862  21.438  1.00  0.00     0.211 C
ENDBRANCH  15  17
ENDBRANCH  13  15
ENDBRANCH   9  10
ENDBRANCH   1   9
BRANCH   8  19
HETATM   19  S1  UNL     1      20.342  33.370  23.393  1.00  0.00    -0.114 SA
HETATM   20  C12 UNL     1      19.298  32.156  22.508  1.00  0.00     0.097 C
ENDBRANCH   8  19
TORSDOF 5
ENDMDL