MODEL 2
REMARK VINA RESULT: -6.612555462      3.533      4.826
REMARK  5 active torsions:
REMARK  status: ('A' for Active; 'I' for Inactive)
REMARK    1  A    between atoms: C3_3  and  C5_5
REMARK    2  A    between atoms: C5_5  and  C6_6
REMARK    3  A    between atoms: C8_11  and  C9_12
REMARK    4  A    between atoms: C9_12  and  O2_14
REMARK    5  A    between atoms: O2_14  and  C10_15
ROOT
HETATM    1  C1  UNL     1      16.793  33.653  17.433  1.00  0.00     0.012 C
HETATM    2  C2  UNL     1      17.797  33.089  17.822  1.00  0.00    -0.113 C
HETATM    3  C3  UNL     1      19.004  32.409  18.245  1.00  0.00     0.062 C
HETATM    4  C4  UNL     1      18.997  31.067  17.476  1.00  0.00     0.023 C
ENDROOT
BRANCH   3   5
HETATM    5  C5  UNL     1      19.115  32.080  19.655  1.00  0.00     0.051 C
BRANCH   5   6
HETATM    6  C6  UNL     1      19.424  33.050  20.699  1.00  0.00     0.204 C
HETATM    7  N1  UNL     1      19.229  34.456  20.522  1.00  0.00    -0.060 N
HETATM    8  C7  UNL     1      20.619  34.682  20.680  1.00  0.00     0.242 C
ATOM      9  H12 UNL     1      18.752  34.799  19.688  1.00  0.00     0.278 HD
ATOM     10  H11 UNL     1      18.564  34.953  21.114  1.00  0.00     0.278 HD
HETATM   11  C8  UNL     1      21.036  35.714  21.639  1.00  0.00     0.067 C
HETATM   12  C14 UNL     1      20.871  33.258  21.077  1.00  0.00     0.113 C
HETATM   13  C12 UNL     1      20.902  35.664  22.935  1.00  0.00     0.035 C
HETATM   14 CL1  UNL     1      21.462  36.997  23.919  1.00  0.00    -0.087 Cl
HETATM   15  C13 UNL     1      20.281  34.489  23.600  1.00  0.00     0.126 C
HETATM   16  S1  UNL     1      21.136  33.045  22.849  1.00  0.00    -0.154 SA
BRANCH  11  17
HETATM   17  C9  UNL     1      21.666  36.939  21.108  1.00  0.00     0.292 C
HETATM   18  O1  UNL     1      20.964  37.979  20.862  1.00  0.00    -0.259 OA
BRANCH  17  19
HETATM   19  O2  UNL     1      23.008  37.056  20.843  1.00  0.00    -0.318 OA
BRANCH  19  20
HETATM   20  C10 UNL     1      23.998  36.222  21.416  1.00  0.00     0.174 C
HETATM   21  C11 UNL     1      25.389  36.579  20.998  1.00  0.00     0.034 C
ENDBRANCH  19  20
ENDBRANCH  17  19
ENDBRANCH  11  17
ENDBRANCH   5   6
ENDBRANCH   3   5
TORSDOF 5
ENDMDL