MODEL 5
REMARK VINA RESULT: -7.361272009      2.348      2.918
REMARK  5 active torsions:
REMARK  status: ('A' for Active; 'I' for Inactive)
REMARK    1  A    between atoms: N1_4  and  C3_5
REMARK    2  A    between atoms: C3_5  and  C4_6
REMARK    3  A    between atoms: C4_6  and  N2_7
REMARK    4  A    between atoms: N2_7  and  C5_9
REMARK    5  A    between atoms: C6_12  and  C7_13
ROOT
HETATM    1  C5  UNL     1      23.298  37.026  21.156  1.00  0.00     0.144 A
HETATM    2  N3  UNL     1      22.782  35.820  21.402  1.00  0.00    -0.340 N
ATOM      3  H3  UNL     1      23.390  35.014  21.548  1.00  0.00     0.168 HD
HETATM    4  C6  UNL     1      21.484  35.693  21.453  1.00  0.00     0.022 A
HETATM    5  C12 UNL     1      20.725  36.823  21.246  1.00  0.00     0.078 A
HETATM    6  S1  UNL     1      21.921  38.008  20.991  1.00  0.00    -0.064 SA
ENDROOT
BRANCH   1   7
HETATM    7  N2  UNL     1      24.532  37.413  21.052  1.00  0.00    -0.369 N
ATOM      8  H2  UNL     1      24.686  38.367  20.727  1.00  0.00     0.161 HD
BRANCH   7   9
HETATM    9  C4  UNL     1      25.689  36.643  21.345  1.00  0.00     0.152 C
BRANCH   9  10
HETATM   10  C3  UNL     1      26.371  36.190  20.095  1.00  0.00     0.292 C
BRANCH  10  11
HETATM   11  N1  UNL     1      26.701  34.791  20.080  1.00  0.00     0.097 N
HETATM   12  C2  UNL     1      28.029  34.467  20.479  1.00  0.00     0.338 C
HETATM   13  C1  UNL     1      28.110  33.085  21.109  1.00  0.00     0.335 C
HETATM   14  F1  UNL     1      29.416  32.634  20.973  1.00  0.00    -0.218 F
HETATM   15  O1  UNL     1      27.292  32.165  20.481  1.00  0.00    -0.353 OA
HETATM   16  C14 UNL     1      25.962  32.549  20.436  1.00  0.00     0.201 C
HETATM   17  C13 UNL     1      25.777  33.992  20.863  1.00  0.00     0.298 C
ENDBRANCH  10  11
ENDBRANCH   9  10
ENDBRANCH   7   9
ENDBRANCH   1   7
BRANCH   4  18
HETATM   18  C7  UNL     1      20.833  34.339  21.732  1.00  0.00     0.036 C
HETATM   19  C8  UNL     1      21.848  33.272  21.541  1.00  0.00     0.011 C
HETATM   20  C9  UNL     1      21.691  32.298  22.705  1.00  0.00     0.001 C
HETATM   21  C10 UNL     1      20.397  32.744  23.400  1.00  0.00     0.001 C
HETATM   22  C11 UNL     1      20.518  34.247  23.222  1.00  0.00     0.011 C
ENDBRANCH   4  18
TORSDOF 5
ENDMDL