MODEL 1
REMARK VINA RESULT: -5.963181569      0.000      0.000
REMARK  6 active torsions:
REMARK  status: ('A' for Active; 'I' for Inactive)
REMARK    1  A    between atoms: O1_2  and  C2_3
REMARK    2  A    between atoms: C2_3  and  N1_5
REMARK    3  A    between atoms: C3_7  and  C5_9
REMARK    4  A    between atoms: C5_9  and  C6_11
REMARK    5  A    between atoms: C6_11  and  N2_12
REMARK    6  A    between atoms: C11_17  and  C12_18
ROOT
HETATM    1  C5  UNL     1      21.911  36.832  22.689  1.00  0.00     0.155 C
HETATM    2 CL1  UNL     1      20.926  37.957  21.681  1.00  0.00    -0.117 Cl
ENDROOT
BRANCH   1   3
HETATM    3  C3  UNL     1      21.701  35.492  22.112  1.00  0.00     0.006 C
HETATM    4  N1  UNL     1      22.532  34.900  21.347  1.00  0.00    -0.334 N
ATOM      5  H1  UNL     1      23.392  35.406  21.136  1.00  0.00     0.168 HD
HETATM    6  C4  UNL     1      20.432  34.810  22.457  1.00  0.00     0.065 C
BRANCH   4   7
HETATM    7  C2  UNL     1      22.398  33.630  20.763  1.00  0.00     0.213 C
HETATM    8  S1  UNL     1      22.983  32.244  21.450  1.00  0.00    -0.033 SA
BRANCH   7   9
HETATM    9  O1  UNL     1      21.740  33.522  19.544  1.00  0.00    -0.332 OA
HETATM   10  C1  UNL     1      20.658  32.605  19.363  1.00  0.00     0.212 C
ENDBRANCH   7   9
ENDBRANCH   4   7
ENDBRANCH   1   3
BRANCH   1  11
HETATM   11  C6  UNL     1      21.489  37.009  24.077  1.00  0.00     0.299 C
BRANCH  11  12
HETATM   12  N2  UNL     1      21.293  38.343  24.600  1.00  0.00     0.105 N
HETATM   13  C7  UNL     1      22.617  38.717  25.207  1.00  0.00     0.273 C
HETATM   14  C8  UNL     1      22.958  37.791  26.316  1.00  0.00     0.030 C
HETATM   15  C9  UNL     1      21.921  37.533  27.341  1.00  0.00     0.004 C
HETATM   16  C10 UNL     1      20.560  37.334  26.737  1.00  0.00     0.047 C
HETATM   17  C11 UNL     1      20.375  38.416  25.717  1.00  0.00     0.322 C
BRANCH  17  18
HETATM   18  C12 UNL     1      18.985  38.640  25.434  1.00  0.00     0.207 C
HETATM   19  O2  UNL     1      18.635  38.965  24.231  1.00  0.00    -0.646 OA
HETATM   20  O3  UNL     1      17.926  38.551  26.303  1.00  0.00    -0.646 OA
ENDBRANCH  17  18
ENDBRANCH  11  12
ENDBRANCH   1  11
TORSDOF 6
ENDMDL