MODEL 1
REMARK VINA RESULT: -6.822512749      0.000      0.000
REMARK  4 active torsions:
REMARK  status: ('A' for Active; 'I' for Inactive)
REMARK    1  A    between atoms: C2_2  and  C4_4
REMARK    2  A    between atoms: C4_4  and  C7_7
REMARK    3  A    between atoms: C8_12  and  C9_13
REMARK    4  A    between atoms: C9_13  and  N3_14
ROOT
HETATM    1  C7  UNL     1      19.833  37.543  25.254  1.00  0.00     0.058 A
HETATM    2  N1  UNL     1      19.458  38.725  24.681  1.00  0.00    -0.302 N
ATOM      3  H1  UNL     1      19.315  39.599  25.187  1.00  0.00     0.186 HD
HETATM    4  N2  UNL     1      19.308  38.573  23.377  1.00  0.00    -0.297 N
ATOM      5  H2  UNL     1      19.031  39.311  22.730  1.00  0.00     0.187 HD
HETATM    6  C8  UNL     1      19.572  37.305  23.032  1.00  0.00     0.087 A
HETATM    7  C15 UNL     1      19.902  36.660  24.216  1.00  0.00     0.088 A
HETATM    8 CL1  UNL     1      20.338  34.972  24.330  1.00  0.00    -0.080 Cl
ENDROOT
BRANCH   6   9
HETATM    9  C9  UNL     1      19.530  36.647  21.695  1.00  0.00     0.122 C
BRANCH   9  10
HETATM   10  N3  UNL     1      20.763  36.608  21.015  1.00  0.00    -0.364 N
HETATM   11  C10 UNL     1      21.560  37.772  21.007  1.00  0.00     0.157 C
HETATM   12  C11 UNL     1      22.579  37.687  22.133  1.00  0.00     0.292 C
HETATM   13  N4  UNL     1      23.421  36.546  21.994  1.00  0.00     0.090 N
HETATM   14  C12 UNL     1      24.499  36.691  21.066  1.00  0.00     0.310 C
HETATM   15  C13 UNL     1      22.693  35.307  21.863  1.00  0.00     0.316 C
HETATM   16  C14 UNL     1      21.496  35.412  20.979  1.00  0.00     0.093 C
ENDBRANCH   9  10
ENDBRANCH   6   9
BRANCH   1  17
HETATM   17  C4  UNL     1      20.088  37.328  26.685  1.00  0.00     0.001 C
HETATM   18  C5  UNL     1      19.051  36.363  27.226  1.00  0.00     0.022 C
HETATM   19  C6  UNL     1      19.945  38.604  27.494  1.00  0.00     0.022 C
BRANCH  17  20
HETATM   20  C2  UNL     1      21.457  36.763  26.942  1.00  0.00    -0.009 C
HETATM   21  C1  UNL     1      22.522  37.765  26.556  1.00  0.00     0.011 C
HETATM   22  C3  UNL     1      21.677  36.344  28.358  1.00  0.00     0.011 C
ENDBRANCH  17  20
ENDBRANCH   1  17
TORSDOF 4
ENDMDL