MODEL 4
REMARK VINA RESULT: -7.480631137      3.527      5.958
REMARK  4 active torsions:
REMARK  status: ('A' for Active; 'I' for Inactive)
REMARK    1  A    between atoms: C4_7  and  C5_8
REMARK    2  A    between atoms: C5_8  and  N3_9
REMARK    3  A    between atoms: N3_9  and  C6_12
REMARK    4  A    between atoms: N4_15  and  C9_16
ROOT
HETATM    1  C6  UNL     1      20.933  36.192  21.141  1.00  0.00     0.221 C
HETATM    2  C7  UNL     1      20.315  35.998  22.429  1.00  0.00     0.066 C
HETATM    3  C8  UNL     1      20.062  37.268  23.206  1.00  0.00     0.275 C
HETATM    4  N4  UNL     1      21.204  37.919  23.752  1.00  0.00     0.093 N
HETATM    5  C14 UNL     1      22.458  37.365  23.253  1.00  0.00     0.276 C
HETATM    6  C15 UNL     1      22.767  37.754  21.844  1.00  0.00     0.069 C
HETATM    7  C16 UNL     1      21.730  37.436  20.857  1.00  0.00     0.202 C
HETATM    8  F1  UNL     1      20.959  38.535  20.550  1.00  0.00    -0.247 F
ENDROOT
BRANCH   1   9
HETATM    9  N3  UNL     1      21.558  35.073  20.537  1.00  0.00    -0.063 N
ATOM     10  H32 UNL     1      22.538  35.269  20.335  1.00  0.00     0.278 HD
ATOM     11  H31 UNL     1      21.214  34.935  19.587  1.00  0.00     0.278 HD
BRANCH   9  12
HETATM   12  C5  UNL     1      21.429  33.884  21.297  1.00  0.00     0.291 C
BRANCH  12  13
HETATM   13  C4  UNL     1      22.772  33.209  21.303  1.00  0.00     0.055 A
HETATM   14  N1  UNL     1      23.026  31.928  21.429  1.00  0.00    -0.299 N
HETATM   15  C1  UNL     1      22.066  30.823  21.607  1.00  0.00     0.177 C
HETATM   16  N2  UNL     1      24.322  31.729  21.347  1.00  0.00    -0.310 N
HETATM   17  C2  UNL     1      24.934  32.889  21.172  1.00  0.00     0.109 A
ATOM     18  H2  UNL     1      24.784  30.822  21.409  1.00  0.00     0.186 HD
HETATM   19  C3  UNL     1      23.967  33.853  21.131  1.00  0.00     0.047 A
ENDBRANCH  12  13
ENDBRANCH   9  12
ENDBRANCH   1   9
BRANCH   4  20
HETATM   20  C9  UNL     1      21.186  37.760  25.179  1.00  0.00     0.223 C
HETATM   21  C10 UNL     1      22.492  37.606  25.856  1.00  0.00     0.036 C
HETATM   22  C11 UNL     1      22.104  37.742  27.326  1.00  0.00     0.002 C
HETATM   23  C12 UNL     1      20.671  38.220  27.368  1.00  0.00     0.002 C
HETATM   24  C13 UNL     1      20.472  38.798  25.955  1.00  0.00     0.036 C
ENDBRANCH   4  20
TORSDOF 4
ENDMDL