MODEL 5
REMARK VINA RESULT: -6.968418708      3.628      5.828
REMARK  4 active torsions:
REMARK  status: ('A' for Active; 'I' for Inactive)
REMARK    1  A    between atoms: C2_2  and  N1_3
REMARK    2  A    between atoms: N1_3  and  C3_6
REMARK    3  A    between atoms: C3_6  and  C4_7
REMARK    4  A    between atoms: C4_7  and  C5_8
ROOT
HETATM    1  C5  UNL     1      21.807  31.458  21.498  1.00  0.00     0.165 C
HETATM    2  C6  UNL     1      21.647  32.593  22.465  1.00  0.00     0.079 C
HETATM    3  C7  UNL     1      21.518  33.772  21.491  1.00  0.00     0.131 C
HETATM    4  C8  UNL     1      22.808  34.276  20.992  1.00  0.00     0.070 C
HETATM    5  C9  UNL     1      23.209  35.654  21.441  1.00  0.00     0.171 C
HETATM    6  O1  UNL     1      22.231  36.607  21.348  1.00  0.00    -0.385 OA
HETATM    7  C10 UNL     1      21.664  36.868  22.618  1.00  0.00     0.128 C
HETATM    8  C11 UNL     1      20.607  37.921  22.435  1.00  0.00     0.032 C
HETATM    9  C12 UNL     1      19.424  37.763  23.332  1.00  0.00     0.002 C
HETATM   10  C13 UNL     1      19.915  37.129  24.622  1.00  0.00     0.001 C
HETATM   11  C14 UNL     1      20.237  35.693  24.325  1.00  0.00     0.010 C
HETATM   12  C15 UNL     1      21.151  35.570  23.139  1.00  0.00     0.052 C
HETATM   13  C16 UNL     1      20.568  34.781  22.015  1.00  0.00     0.214 C
HETATM   14  F1  UNL     1      20.100  35.578  20.980  1.00  0.00    -0.246 F
HETATM   15  O2  UNL     1      20.879  33.095  20.422  1.00  0.00    -0.226 OA
HETATM   16  O3  UNL     1      21.622  32.003  20.250  1.00  0.00    -0.234 OA
ENDROOT
BRANCH   1  17
HETATM   17  C4  UNL     1      23.102  30.710  21.622  1.00  0.00     0.062 C
BRANCH  17  18
HETATM   18  C3  UNL     1      23.876  31.351  22.754  1.00  0.00     0.235 C
BRANCH  18  19
HETATM   19  N1  UNL     1      25.307  31.365  22.483  1.00  0.00    -0.075 N
ATOM     20  H12 UNL     1      25.695  30.450  22.254  1.00  0.00     0.277 HD
ATOM     21  H11 UNL     1      25.884  31.533  23.307  1.00  0.00     0.277 HD
BRANCH  19  22
HETATM   22  C2  UNL     1      25.478  32.363  21.426  1.00  0.00     0.228 C
HETATM   23  C1  UNL     1      26.916  32.599  21.089  1.00  0.00     0.034 C
ENDBRANCH  19  22
ENDBRANCH  18  19
ENDBRANCH  17  18
ENDBRANCH   1  17
TORSDOF 4
ENDMDL