MODEL 5
REMARK VINA RESULT: -7.211752420      1.197      1.647
REMARK  10 active torsions:
REMARK  status: ('A' for Active; 'I' for Inactive)
REMARK    1  A    between atoms: C7_9  and  C8_10
REMARK    2  A    between atoms: C8_10  and  C9_11
REMARK    3  A    between atoms: C9_11  and  C10_12
REMARK    4  A    between atoms: C10_12  and  C11_13
REMARK    5  A    between atoms: C11_13  and  N2_14
REMARK       I    between atoms: N2_14  and  C12_16
REMARK    6  A    between atoms: C12_16  and  O2_18
REMARK    7  A    between atoms: O2_18  and  C13_19
REMARK    8  A    between atoms: C19_25  and  C20_26
REMARK    9  A    between atoms: C20_26  and  O3_27
REMARK   10  A    between atoms: C23_31  and  O4_32
ROOT
HETATM    1  C13 UNL     1      37.590 -19.219  22.610  1.00  0.00     0.138 C
HETATM    2  C14 UNL     1      36.075 -19.273  22.352  1.00  0.00     0.035 C
HETATM    3  C15 UNL     1      35.434 -20.494  22.972  1.00  0.00     0.036 C
HETATM    4  C16 UNL     1      35.940 -20.770  24.357  1.00  0.00     0.190 C
HETATM    5  C17 UNL     1      36.598 -19.455  24.805  1.00  0.00     0.041 C
HETATM    6  C18 UNL     1      37.900 -19.302  24.041  1.00  0.00     0.030 C
HETATM    7  C19 UNL     1      38.828 -20.346  24.564  1.00  0.00     0.016 C
HETATM    8  C21 UNL     1      39.467 -19.696  25.830  1.00  0.00     0.017 C
HETATM    9  C22 UNL     1      39.637 -20.646  26.949  1.00  0.00     0.032 C
HETATM   10  C23 UNL     1      39.839 -22.077  26.652  1.00  0.00     0.120 C
HETATM   11  C24 UNL     1      38.952 -22.614  25.549  1.00  0.00     0.066 C
HETATM   12  C25 UNL     1      38.044 -21.501  25.115  1.00  0.00     0.203 C
HETATM   13  N3  UNL     1      36.842 -21.892  24.459  1.00  0.00    -0.065 N
HETATM   14  C26 UNL     1      36.182 -22.797  25.446  1.00  0.00     0.273 C
HETATM   15  C27 UNL     1      36.950 -22.720  23.325  1.00  0.00     0.273 C
ENDROOT
BRANCH   1  16
HETATM   16  O2  UNL     1      38.011 -18.002  22.004  1.00  0.00    -0.298 OA
BRANCH  16  17
HETATM   17  C12 UNL     1      39.053 -17.217  22.394  1.00  0.00     0.360 C
HETATM   18  N2  UNL     1      38.904 -16.066  23.213  1.00  0.00    -0.337 N
ATOM     19  H2  UNL     1      37.965 -15.817  23.525  1.00  0.00     0.164 HD
HETATM   20  O1  UNL     1      40.201 -17.527  22.009  1.00  0.00    -0.239 OA
BRANCH  18  21
HETATM   21  C11 UNL     1      39.987 -15.236  23.626  1.00  0.00     0.125 C
BRANCH  21  22
HETATM   22  C10 UNL     1      40.295 -15.318  25.117  1.00  0.00     0.020 C
BRANCH  22  23
HETATM   23  C9  UNL     1      38.980 -15.681  25.782  1.00  0.00     0.002 C
BRANCH  23  24
HETATM   24  C8  UNL     1      39.095 -15.975  27.238  1.00  0.00     0.010 C
BRANCH  24  25
HETATM   25  C7  UNL     1      37.962 -15.350  28.005  1.00  0.00     0.030 C
HETATM   26  C2  UNL     1      36.947 -16.377  28.389  1.00  0.00    -0.018 C
HETATM   27  C1  UNL     1      37.256 -17.805  28.117  1.00  0.00     0.063 C
HETATM   28  N1  UNL     1      35.868 -15.959  28.932  1.00  0.00    -0.392 N
HETATM   29  C3  UNL     1      35.751 -14.517  29.114  1.00  0.00     0.077 C
ATOM     30  H1  UNL     1      35.129 -16.599  29.221  1.00  0.00     0.159 HD
HETATM   31  C4  UNL     1      34.375 -14.212  29.609  1.00  0.00     0.032 C
HETATM   32  C5  UNL     1      35.929 -13.940  27.704  1.00  0.00     0.025 C
HETATM   33  C6  UNL     1      37.233 -14.360  27.096  1.00  0.00     0.012 C
ENDBRANCH  24  25
ENDBRANCH  23  24
ENDBRANCH  22  23
ENDBRANCH  21  22
ENDBRANCH  18  21
ENDBRANCH  16  17
ENDBRANCH   1  16
BRANCH   7  34
HETATM   34  C20 UNL     1      40.007 -20.673  23.755  1.00  0.00     0.176 C
BRANCH  34  35
HETATM   35  O3  UNL     1      41.042 -19.831  23.614  1.00  0.00    -0.400 OA
ATOM     36  H3  UNL     1      41.500 -19.718  22.790  1.00  0.00     0.209 HD
ENDBRANCH  34  35
ENDBRANCH   7  34
BRANCH  10  37
HETATM   37  O4  UNL     1      39.528 -22.812  27.810  1.00  0.00    -0.396 OA
ATOM     38  H4  UNL     1      40.329 -23.204  28.135  1.00  0.00     0.210 HD
ENDBRANCH  10  37
TORSDOF 10
ENDMDL