MODEL 3
REMARK VINA RESULT: -8.034594863      1.447      2.318
REMARK  8 active torsions:
REMARK  status: ('A' for Active; 'I' for Inactive)
REMARK    1  A    between atoms: C7_10  and  C8_11
REMARK       I    between atoms: C8_11  and  N2_13
REMARK    2  A    between atoms: N2_13  and  C9_15
REMARK    3  A    between atoms: C9_15  and  N3_16
REMARK    4  A    between atoms: C9_15  and  C23_34
REMARK       I    between atoms: N3_16  and  C10_18
REMARK    5  A    between atoms: C10_18  and  C11_20
REMARK    6  A    between atoms: C11_20  and  C12_21
REMARK    7  A    between atoms: C18_27  and  C19_28
REMARK    8  A    between atoms: C19_28  and  O3_29
ROOT
HETATM    1  C9  UNL     1      38.727 -17.900  27.779  1.00  0.00     0.190 C
ENDROOT
BRANCH   1   2
HETATM    2  N2  UNL     1      39.577 -18.683  28.629  1.00  0.00    -0.339 N
HETATM    3  C8  UNL     1      40.573 -19.555  28.084  1.00  0.00     0.228 C
HETATM    4  O1  UNL     1      40.639 -19.559  26.836  1.00  0.00    -0.273 OA
ATOM      5  H2  UNL     1      39.470 -18.617  29.641  1.00  0.00     0.164 HD
BRANCH   3   6
HETATM    6  C7  UNL     1      41.452 -20.386  28.864  1.00  0.00     0.148 C
HETATM    7  C2  UNL     1      41.048 -21.802  29.036  1.00  0.00     0.134 C
HETATM    8  C1  UNL     1      41.230 -22.341  30.463  1.00  0.00     0.047 C
HETATM    9  C3  UNL     1      39.758 -22.322  28.484  1.00  0.00     0.047 C
HETATM   10  N1  UNL     1      42.140 -22.274  28.169  1.00  0.00    -0.057 N
HETATM   11  C4  UNL     1      42.715 -20.934  28.328  1.00  0.00     0.134 C
ATOM     12  H12 UNL     1      42.674 -23.114  28.389  1.00  0.00     0.279 HD
ATOM     13  H11 UNL     1      41.959 -22.672  27.248  1.00  0.00     0.279 HD
HETATM   14  C5  UNL     1      43.282 -20.482  27.043  1.00  0.00     0.047 C
HETATM   15  C6  UNL     1      43.793 -21.004  29.405  1.00  0.00     0.047 C
ENDBRANCH   3   6
ENDBRANCH   1   2
BRANCH   1  16
HETATM   16  N3  UNL     1      37.699 -18.786  27.267  1.00  0.00    -0.340 N
HETATM   17  C10 UNL     1      37.423 -18.916  25.857  1.00  0.00     0.220 C
HETATM   18  O2  UNL     1      38.139 -18.229  25.106  1.00  0.00    -0.274 OA
ATOM     19  H3  UNL     1      37.152 -19.338  27.928  1.00  0.00     0.164 HD
BRANCH  17  20
HETATM   20  C11 UNL     1      36.385 -19.786  25.344  1.00  0.00     0.112 C
BRANCH  20  21
HETATM   21  C12 UNL     1      36.776 -21.102  24.776  1.00  0.00    -0.031 C
HETATM   22  C13 UNL     1      36.039 -22.139  25.670  1.00  0.00     0.014 C
HETATM   23  C14 UNL     1      36.329 -23.539  25.262  1.00  0.00    -0.013 C
HETATM   24  C15 UNL     1      35.972 -23.745  23.807  1.00  0.00     0.009 C
HETATM   25  C20 UNL     1      37.815 -23.799  25.472  1.00  0.00     0.016 C
HETATM   26  C16 UNL     1      36.746 -22.773  22.967  1.00  0.00    -0.013 C
HETATM   27  C17 UNL     1      38.220 -23.058  23.173  1.00  0.00     0.016 C
HETATM   28  C22 UNL     1      36.387 -21.351  23.367  1.00  0.00     0.014 C
HETATM   29  C18 UNL     1      38.567 -22.801  24.628  1.00  0.00    -0.018 C
HETATM   30  C21 UNL     1      38.257 -21.386  24.974  1.00  0.00     0.021 C
BRANCH  29  31
HETATM   31  C19 UNL     1      40.048 -23.081  24.807  1.00  0.00     0.173 C
BRANCH  31  32
HETATM   32  O3  UNL     1      40.717 -21.927  25.240  1.00  0.00    -0.400 OA
ATOM     33  H3  UNL     1      41.211 -21.541  24.526  1.00  0.00     0.209 HD
ENDBRANCH  31  32
ENDBRANCH  29  31
ENDBRANCH  20  21
ENDBRANCH  17  20
ENDBRANCH   1  16
BRANCH   1  34
HETATM   34  C23 UNL     1      38.173 -16.656  28.364  1.00  0.00     0.028 C
HETATM   35  C24 UNL     1      38.509 -15.424  27.560  1.00  0.00     0.008 C
HETATM   36  C25 UNL     1      37.289 -14.858  26.856  1.00  0.00     0.001 C
HETATM   37  C26 UNL     1      36.235 -14.424  27.862  1.00  0.00     0.000 C
HETATM   38  C27 UNL     1      36.297 -15.323  29.096  1.00  0.00     0.001 C
HETATM   39  C28 UNL     1      36.687 -16.732  28.601  1.00  0.00     0.008 C
ENDBRANCH   1  34
TORSDOF 8
ENDMDL