MODEL 5
REMARK VINA RESULT: -6.991628978      1.798      2.329
REMARK  11 active torsions:
REMARK  status: ('A' for Active; 'I' for Inactive)
REMARK    1  A    between atoms: C2_2  and  N1_3
REMARK    2  A    between atoms: C2_2  and  C20_23
REMARK    3  A    between atoms: C10_11  and  O1_12
REMARK    4  A    between atoms: C20_23  and  O2_24
REMARK    5  A    between atoms: C20_23  and  C21_26
REMARK    6  A    between atoms: C20_23  and  C26_35
REMARK    7  A    between atoms: C21_26  and  C22_27
REMARK    8  A    between atoms: C22_27  and  C23_28
REMARK    9  A    between atoms: C23_28  and  C24_29
REMARK   10  A    between atoms: C24_29  and  C25_30
REMARK   11  A    between atoms: C25_30  and  N2_31
ROOT
HETATM    1  C1  UNL     1      44.435 -21.510  25.578  1.00  0.00     0.066 C
HETATM    2  C2  UNL     1      43.271 -21.348  26.523  1.00  0.00     0.016 C
ENDROOT
BRANCH   2   3
HETATM    3  N1  UNL     1      42.049 -21.811  26.108  1.00  0.00    -0.380 N
HETATM    4  C3  UNL     1      41.810 -22.834  25.192  1.00  0.00     0.123 C
HETATM    5  C4  UNL     1      40.501 -22.472  24.439  1.00  0.00     0.027 C
HETATM    6  C5  UNL     1      40.400 -21.048  24.782  1.00  0.00     0.014 C
HETATM    7  C6  UNL     1      39.091 -20.395  24.952  1.00  0.00    -0.004 C
HETATM    8  C19 UNL     1      40.863 -21.147  26.257  1.00  0.00     0.089 C
HETATM    9  C7  UNL     1      38.816 -19.579  23.738  1.00  0.00     0.006 C
HETATM   10  C17 UNL     1      39.220 -19.632  26.244  1.00  0.00     0.001 C
HETATM   11  C8  UNL     1      39.184 -18.129  23.885  1.00  0.00     0.008 C
HETATM   12  C9  UNL     1      38.300 -17.642  25.042  1.00  0.00     0.023 C
HETATM   13  C10 UNL     1      38.259 -16.167  24.995  1.00  0.00     0.123 C
HETATM   14  C15 UNL     1      38.640 -18.290  26.335  1.00  0.00    -0.031 C
HETATM   15  C11 UNL     1      39.412 -15.522  25.759  1.00  0.00     0.032 C
HETATM   16  C12 UNL     1      39.220 -15.976  27.181  1.00  0.00     0.007 C
HETATM   17  C13 UNL     1      39.511 -17.449  27.255  1.00  0.00    -0.010 C
HETATM   18  C14 UNL     1      39.186 -17.847  28.706  1.00  0.00     0.011 C
HETATM   19  C16 UNL     1      37.306 -18.406  27.106  1.00  0.00     0.016 C
HETATM   20  C18 UNL     1      40.724 -19.722  26.585  1.00  0.00     0.031 C
BRANCH  13  21
HETATM   21  O1  UNL     1      37.090 -15.749  25.672  1.00  0.00    -0.395 OA
ATOM     22  H1  UNL     1      36.533 -16.510  25.785  1.00  0.00     0.210 HD
ENDBRANCH  13  21
ENDBRANCH   2   3
BRANCH   2  23
HETATM   23  C20 UNL     1      43.584 -21.665  27.960  1.00  0.00     0.101 C
BRANCH  23  24
HETATM   24  O2  UNL     1      44.789 -22.411  27.953  1.00  0.00    -0.383 OA
ATOM     25  H2  UNL     1      44.538 -23.328  27.943  1.00  0.00     0.211 HD
ENDBRANCH  23  24
BRANCH  23  26
HETATM   26  C21 UNL     1      43.767 -20.553  28.899  1.00  0.00     0.044 C
BRANCH  26  27
HETATM   27  C22 UNL     1      45.197 -20.137  29.180  1.00  0.00     0.003 C
BRANCH  27  28
HETATM   28  C23 UNL     1      45.329 -20.150  30.684  1.00  0.00     0.002 C
BRANCH  28  29
HETATM   29  C24 UNL     1      46.236 -21.210  31.191  1.00  0.00     0.027 C
BRANCH  29  30
HETATM   30  C25 UNL     1      45.483 -22.406  31.658  1.00  0.00     0.229 C
BRANCH  30  31
HETATM   31  N2  UNL     1      44.604 -22.042  32.782  1.00  0.00    -0.079 N
ATOM     32  H23 UNL     1      44.501 -21.031  32.875  1.00  0.00     0.274 HD
ATOM     33  H22 UNL     1      43.628 -22.274  32.595  1.00  0.00     0.274 HD
ATOM     34  H21 UNL     1      44.941 -22.473  33.643  1.00  0.00     0.274 HD
ENDBRANCH  30  31
ENDBRANCH  29  30
ENDBRANCH  28  29
ENDBRANCH  27  28
ENDBRANCH  26  27
ENDBRANCH  23  26
BRANCH  23  35
HETATM   35  C26 UNL     1      42.567 -22.652  28.534  1.00  0.00     0.053 C
HETATM   36  C27 UNL     1      43.261 -23.887  29.028  1.00  0.00     0.037 C
HETATM   37  C28 UNL     1      42.549 -24.277  30.287  1.00  0.00     0.233 C
HETATM   38  N3  UNL     1      41.784 -23.150  30.723  1.00  0.00    -0.075 N
HETATM   39  C29 UNL     1      42.063 -22.042  29.826  1.00  0.00     0.240 C
ATOM     40  H32 UNL     1      40.788 -23.355  30.798  1.00  0.00     0.277 HD
ATOM     41  H31 UNL     1      41.950 -22.916  31.702  1.00  0.00     0.277 HD
ENDBRANCH  23  35
ENDBRANCH   2  23
TORSDOF 11
ENDMDL