MODEL 5
REMARK VINA RESULT: -7.419508223      4.097     10.127
REMARK  9 active torsions:
REMARK  status: ('A' for Active; 'I' for Inactive)
REMARK    1  A    between atoms: C2_2  and  C3_3
REMARK    2  A    between atoms: C3_3  and  C5_5
REMARK    3  A    between atoms: C5_5  and  N1_6
REMARK       I    between atoms: N1_6  and  C6_8
REMARK       I    between atoms: C6_8  and  N2_10
REMARK    4  A    between atoms: N2_10  and  C7_12
REMARK    5  A    between atoms: C10_15  and  O2_16
REMARK    6  A    between atoms: C17_24  and  C18_25
REMARK    7  A    between atoms: C18_25  and  C19_26
REMARK    8  A    between atoms: C19_26  and  C20_27
REMARK    9  A    between atoms: C20_27  and  O3_28
ROOT
HETATM    1  C7  UNL     1      36.476 -22.969  24.987  1.00  0.00     0.087 C
HETATM    2  C8  UNL     1      36.778 -22.182  23.705  1.00  0.00     0.033 C
HETATM    3  C9  UNL     1      37.315 -20.878  24.253  1.00  0.00     0.021 C
HETATM    4  C10 UNL     1      38.213 -20.126  23.319  1.00  0.00     0.123 C
HETATM    5  C11 UNL     1      39.420 -19.556  23.976  1.00  0.00     0.042 C
HETATM    6  C12 UNL     1      39.365 -19.255  25.431  1.00  0.00    -0.034 C
HETATM    7  C13 UNL     1      40.848 -19.378  25.883  1.00  0.00     0.016 C
HETATM    8  C14 UNL     1      39.041 -17.838  25.681  1.00  0.00    -0.002 C
HETATM    9  C15 UNL     1      37.913 -17.218  24.960  1.00  0.00     0.006 C
HETATM   10  C16 UNL     1      37.491 -16.029  25.858  1.00  0.00     0.005 C
HETATM   11  C17 UNL     1      38.459 -16.041  26.974  1.00  0.00    -0.010 C
HETATM   12  C21 UNL     1      38.717 -17.524  27.154  1.00  0.00    -0.006 C
HETATM   13  C22 UNL     1      37.520 -18.308  27.513  1.00  0.00     0.006 C
HETATM   14  C23 UNL     1      37.456 -19.718  27.023  1.00  0.00     0.006 C
HETATM   15  C24 UNL     1      38.623 -20.240  26.288  1.00  0.00    -0.001 C
HETATM   16  C25 UNL     1      38.166 -21.358  25.362  1.00  0.00    -0.001 C
HETATM   17  C26 UNL     1      37.469 -22.470  26.003  1.00  0.00     0.031 C
ENDROOT
BRANCH   1  18
HETATM   18  N2  UNL     1      36.578 -24.377  24.702  1.00  0.00    -0.339 N
HETATM   19  C6  UNL     1      35.520 -25.222  24.306  1.00  0.00     0.316 C
HETATM   20  N1  UNL     1      35.711 -26.602  24.046  1.00  0.00    -0.343 N
HETATM   21  O1  UNL     1      34.356 -24.779  24.168  1.00  0.00    -0.247 OA
ATOM     22  H1  UNL     1      36.651 -26.982  24.155  1.00  0.00     0.164 HD
ATOM     23  H2  UNL     1      37.500 -24.803  24.794  1.00  0.00     0.164 HD
BRANCH  20  24
HETATM   24  C5  UNL     1      34.671 -27.497  23.642  1.00  0.00     0.128 C
BRANCH  24  25
HETATM   25  C3  UNL     1      34.980 -28.373  22.473  1.00  0.00    -0.001 C
HETATM   26  C4  UNL     1      36.438 -28.355  22.076  1.00  0.00     0.011 C
BRANCH  25  27
HETATM   27  C2  UNL     1      34.659 -29.801  22.876  1.00  0.00     0.001 C
HETATM   28  C1  UNL     1      34.338 -29.870  24.371  1.00  0.00     0.005 C
ENDBRANCH  25  27
ENDBRANCH  24  25
ENDBRANCH  20  24
ENDBRANCH   1  18
BRANCH   4  29
HETATM   29  O2  UNL     1      38.590 -21.015  22.310  1.00  0.00    -0.395 OA
ATOM     30  H2  UNL     1      39.498 -21.246  22.468  1.00  0.00     0.210 HD
ENDBRANCH   4  29
BRANCH  11  31
HETATM   31  C18 UNL     1      38.284 -15.216  28.144  1.00  0.00     0.012 C
BRANCH  31  32
HETATM   32  C19 UNL     1      37.197 -15.404  29.109  1.00  0.00     0.077 C
BRANCH  32  33
HETATM   33  C20 UNL     1      35.895 -14.795  28.784  1.00  0.00     0.110 C
HETATM   34  S1  UNL     1      35.799 -13.370  27.968  1.00  0.00    -0.058 SA
BRANCH  33  35
HETATM   35  O3  UNL     1      34.693 -15.388  29.150  1.00  0.00    -0.354 OA
ATOM     36  H3  UNL     1      34.361 -16.164  28.714  1.00  0.00     0.218 HD
ENDBRANCH  33  35
ENDBRANCH  32  33
ENDBRANCH  31  32
ENDBRANCH  11  31
TORSDOF 9
ENDMDL