MODEL 4
REMARK VINA RESULT: -7.646786314      2.037      3.352
REMARK  9 active torsions:
REMARK  status: ('A' for Active; 'I' for Inactive)
REMARK    1  A    between atoms: N2_4  and  C3_6
REMARK    2  A    between atoms: C3_6  and  C4_7
REMARK    3  A    between atoms: C4_7  and  C5_8
REMARK    4  A    between atoms: C5_8  and  C6_9
REMARK    5  A    between atoms: C6_9  and  C7_10
REMARK    6  A    between atoms: C7_10  and  C8_11
REMARK       I    between atoms: C8_11  and  N3_13
REMARK    7  A    between atoms: N3_13  and  C9_15
REMARK    8  A    between atoms: C24_30  and  O2_31
REMARK    9  A    between atoms: C25_33  and  O3_34
ROOT
HETATM    1  C9  UNL     1      38.344 -22.950  26.217  1.00  0.00     0.088 C
HETATM    2  C10 UNL     1      37.120 -22.951  25.352  1.00  0.00     0.026 C
HETATM    3  C11 UNL     1      36.771 -21.547  24.890  1.00  0.00     0.002 C
HETATM    4  C12 UNL     1      36.818 -20.671  26.142  1.00  0.00     0.005 C
HETATM    5  C13 UNL     1      38.218 -20.436  26.534  1.00  0.00    -0.004 C
HETATM    6  C14 UNL     1      39.053 -21.657  26.291  1.00  0.00     0.013 C
HETATM    7  C15 UNL     1      40.149 -21.722  27.316  1.00  0.00     0.007 C
HETATM    8  C16 UNL     1      41.005 -20.471  27.294  1.00  0.00     0.001 C
HETATM    9  C17 UNL     1      40.339 -19.311  27.976  1.00  0.00     0.005 C
HETATM   10  C18 UNL     1      39.623 -18.410  26.992  1.00  0.00    -0.002 C
HETATM   11  C19 UNL     1      38.881 -19.205  25.970  1.00  0.00    -0.005 C
HETATM   12  C20 UNL     1      38.003 -18.367  25.098  1.00  0.00     0.006 C
HETATM   13  C21 UNL     1      37.362 -17.198  25.785  1.00  0.00     0.013 C
HETATM   14  C22 UNL     1      38.319 -16.397  26.605  1.00  0.00    -0.008 C
HETATM   15  C23 UNL     1      39.453 -15.821  25.784  1.00  0.00     0.018 C
HETATM   16  C24 UNL     1      37.604 -15.264  27.259  1.00  0.00     0.159 C
HETATM   17  C25 UNL     1      36.545 -15.665  28.230  1.00  0.00     0.170 C
HETATM   18  C26 UNL     1      36.871 -16.918  28.944  1.00  0.00     0.003 C
HETATM   19  C27 UNL     1      37.928 -17.675  28.698  1.00  0.00    -0.022 C
HETATM   20  C28 UNL     1      38.885 -17.317  27.666  1.00  0.00     0.023 C
ENDROOT
BRANCH   1  21
HETATM   21  N3  UNL     1      39.283 -23.896  25.592  1.00  0.00    -0.356 N
HETATM   22  C8  UNL     1      39.710 -25.068  26.230  1.00  0.00     0.217 C
HETATM   23  O1  UNL     1      39.288 -25.335  27.368  1.00  0.00    -0.274 OA
ATOM     24  H3  UNL     1      39.637 -23.690  24.659  1.00  0.00     0.162 HD
BRANCH  22  25
HETATM   25  C7  UNL     1      40.648 -25.959  25.539  1.00  0.00     0.103 C
BRANCH  25  26
HETATM   26  C6  UNL     1      40.548 -26.032  24.063  1.00  0.00     0.009 C
BRANCH  26  27
HETATM   27  C5  UNL     1      39.765 -27.225  23.628  1.00  0.00     0.002 C
BRANCH  27  28
HETATM   28  C4  UNL     1      38.387 -26.723  23.200  1.00  0.00     0.020 C
BRANCH  28  29
HETATM   29  C3  UNL     1      37.408 -27.233  24.243  1.00  0.00     0.120 C
BRANCH  29  30
HETATM   30  N2  UNL     1      36.365 -26.282  24.492  1.00  0.00    -0.382 N
HETATM   31  C2  UNL     1      35.200 -26.375  24.028  1.00  0.00     0.085 C
HETATM   32  C1  UNL     1      34.776 -27.486  23.169  1.00  0.00     0.085 C
HETATM   33  N1  UNL     1      34.245 -25.355  24.353  1.00  0.00    -0.088 NA
ATOM     34  H2  UNL     1      36.581 -25.479  25.084  1.00  0.00     0.160 HD
ENDBRANCH  29  30
ENDBRANCH  28  29
ENDBRANCH  27  28
ENDBRANCH  26  27
ENDBRANCH  25  26
ENDBRANCH  22  25
ENDBRANCH   1  21
BRANCH  16  35
HETATM   35  O2  UNL     1      37.039 -14.481  26.226  1.00  0.00    -0.392 OA
ATOM     36  H2  UNL     1      36.899 -13.611  26.581  1.00  0.00     0.210 HD
ENDBRANCH  16  35
BRANCH  17  37
HETATM   37  O3  UNL     1      36.475 -14.645  29.207  1.00  0.00    -0.389 OA
ATOM     38  H3  UNL     1      35.611 -14.256  29.138  1.00  0.00     0.210 HD
ENDBRANCH  17  37
TORSDOF 9
ENDMDL