MODEL 4
REMARK VINA RESULT: -7.291798014      2.109      9.572
REMARK  8 active torsions:
REMARK  status: ('A' for Active; 'I' for Inactive)
REMARK    1  A    between atoms: C2_2  and  C3_3
REMARK    2  A    between atoms: C3_3  and  N1_4
REMARK    3  A    between atoms: N1_4  and  C4_7
REMARK    4  A    between atoms: C4_7  and  C5_8
REMARK       I    between atoms: C5_8  and  N2_10
REMARK    5  A    between atoms: N2_10  and  C6_12
REMARK    6  A    between atoms: C8_14  and  C9_15
REMARK    7  A    between atoms: C9_15  and  C10_16
REMARK    8  A    between atoms: C25_33  and  O4_34
ROOT
HETATM    1  C5  UNL     1      37.525 -21.542  26.277  1.00  0.00     0.243 C
HETATM    2  O1  UNL     1      36.295 -21.408  26.029  1.00  0.00    -0.272 OA
HETATM    3  N2  UNL     1      38.347 -22.565  25.766  1.00  0.00    -0.354 N
ATOM      4  H2  UNL     1      39.324 -22.548  26.056  1.00  0.00     0.162 HD
ENDROOT
BRANCH   1   5
HETATM    5  C4  UNL     1      38.067 -20.498  27.182  1.00  0.00     0.335 C
BRANCH   5   6
HETATM    6  N1  UNL     1      37.151 -19.411  27.399  1.00  0.00    -0.054 N
ATOM      7  H12 UNL     1      36.862 -19.368  28.377  1.00  0.00     0.279 HD
ATOM      8  H11 UNL     1      36.248 -19.605  26.967  1.00  0.00     0.279 HD
BRANCH   6   9
HETATM    9  C3  UNL     1      37.672 -18.131  26.956  1.00  0.00     0.147 C
HETATM   10  C20 UNL     1      39.084 -18.061  27.593  1.00  0.00     0.043 C
HETATM   11  C21 UNL     1      39.726 -16.854  26.947  1.00  0.00     0.004 C
HETATM   12  C22 UNL     1      39.020 -15.641  27.448  1.00  0.00     0.012 C
HETATM   13  C23 UNL     1      37.549 -15.681  27.528  1.00  0.00    -0.012 C
HETATM   14  C24 UNL     1      36.990 -14.632  26.549  1.00  0.00     0.018 C
HETATM   15  C25 UNL     1      37.163 -15.118  28.910  1.00  0.00     0.126 C
HETATM   16  C28 UNL     1      36.859 -16.983  27.413  1.00  0.00     0.036 C
HETATM   17  C26 UNL     1      35.912 -15.906  29.282  1.00  0.00     0.033 C
HETATM   18  C27 UNL     1      36.368 -17.294  28.811  1.00  0.00     0.011 C
BRANCH   9  19
HETATM   19  C2  UNL     1      37.924 -18.243  25.509  1.00  0.00     0.002 C
HETATM   20  C1  UNL     1      37.049 -18.120  24.545  1.00  0.00     0.009 C
ENDBRANCH   9  19
BRANCH  15  21
HETATM   21  O4  UNL     1      38.107 -15.384  29.869  1.00  0.00    -0.395 OA
ATOM     22  H4  UNL     1      38.893 -15.776  29.509  1.00  0.00     0.210 HD
ENDBRANCH  15  21
ENDBRANCH   6   9
ENDBRANCH   5   6
ENDBRANCH   1   5
BRANCH   3  23
HETATM   23  C6  UNL     1      37.965 -23.620  24.892  1.00  0.00     0.093 C
HETATM   24  C7  UNL     1      37.157 -24.738  25.479  1.00  0.00     0.031 C
HETATM   25  C8  UNL     1      37.297 -25.833  24.419  1.00  0.00     0.003 C
HETATM   26  C11 UNL     1      38.733 -25.717  24.079  1.00  0.00     0.008 C
HETATM   27  C12 UNL     1      39.291 -26.492  22.959  1.00  0.00    -0.043 C
HETATM   28  C18 UNL     1      39.117 -24.261  24.136  1.00  0.00    -0.019 C
HETATM   29  C13 UNL     1      40.715 -26.926  23.363  1.00  0.00     0.015 C
HETATM   30  C14 UNL     1      38.526 -27.778  22.748  1.00  0.00     0.015 C
HETATM   31  C15 UNL     1      39.407 -25.806  21.636  1.00  0.00     0.009 C
HETATM   32  C16 UNL     1      39.044 -24.358  21.613  1.00  0.00     0.002 C
HETATM   33  C17 UNL     1      39.379 -23.599  22.836  1.00  0.00     0.011 C
HETATM   34  C19 UNL     1      40.400 -24.071  24.973  1.00  0.00     0.018 C
BRANCH  25  35
HETATM   35  C9  UNL     1      36.254 -25.689  23.425  1.00  0.00     0.118 C
BRANCH  35  36
HETATM   36  C10 UNL     1      34.928 -26.057  23.959  1.00  0.00     0.172 C
HETATM   37  O2  UNL     1      34.068 -25.291  24.433  1.00  0.00    -0.648 OA
HETATM   38  O3  UNL     1      34.572 -27.423  23.938  1.00  0.00    -0.648 OA
ENDBRANCH  35  36
ENDBRANCH  25  35
ENDBRANCH   3  23
TORSDOF 8
ENDMDL