MODEL 1
REMARK VINA RESULT: -8.177283141      0.000      0.000
REMARK  9 active torsions:
REMARK  status: ('A' for Active; 'I' for Inactive)
REMARK    1  A    between atoms: C3_3  and  O1_4
REMARK    2  A    between atoms: C14_16  and  O2_17
REMARK    3  A    between atoms: C18_22  and  C19_23
REMARK    4  A    between atoms: C20_24  and  C21_25
REMARK    5  A    between atoms: C21_25  and  C22_26
REMARK    6  A    between atoms: C22_26  and  N1_27
REMARK    7  A    between atoms: N1_27  and  C23_30
REMARK    8  A    between atoms: C23_30  and  C24_31
REMARK    9  A    between atoms: C24_31  and  C25_32
ROOT
HETATM    1  C1  UNL     1      43.340 -28.388  28.478  1.00  0.00     0.100 C
HETATM    2  C2  UNL     1      42.237 -27.870  28.561  1.00  0.00    -0.150 C
HETATM    3  C3  UNL     1      40.907 -27.274  28.673  1.00  0.00     0.112 C
HETATM    4  C4  UNL     1      40.556 -26.561  27.368  1.00  0.00     0.052 C
HETATM    5  C5  UNL     1      41.654 -25.546  27.168  1.00  0.00     0.018 C
HETATM    6  C6  UNL     1      41.630 -24.478  28.203  1.00  0.00    -0.017 C
HETATM    7  C7  UNL     1      43.091 -24.156  28.587  1.00  0.00     0.020 C
HETATM    8  C8  UNL     1      40.964 -24.897  29.437  1.00  0.00    -0.071 C
HETATM    9  C9  UNL     1      40.539 -23.926  30.264  1.00  0.00    -0.023 C
HETATM   10  C10 UNL     1      40.706 -22.489  30.002  1.00  0.00     0.033 C
HETATM   11  C11 UNL     1      40.808 -22.107  28.556  1.00  0.00    -0.000 C
HETATM   12  C12 UNL     1      41.091 -23.200  27.601  1.00  0.00     0.005 C
HETATM   13  C13 UNL     1      39.894 -23.383  26.720  1.00  0.00     0.039 C
HETATM   14  C14 UNL     1      39.846 -22.106  25.861  1.00  0.00     0.140 C
HETATM   15  C15 UNL     1      39.371 -21.018  26.779  1.00  0.00     0.059 C
HETATM   16  C16 UNL     1      37.935 -20.832  26.499  1.00  0.00    -0.103 C
HETATM   17  C17 UNL     1      36.756 -20.705  26.275  1.00  0.00     0.013 C
HETATM   18  C18 UNL     1      40.080 -19.698  26.500  1.00  0.00     0.031 C
HETATM   19  C26 UNL     1      40.478 -19.132  27.841  1.00  0.00     0.011 C
HETATM   20  C27 UNL     1      39.721 -19.939  28.838  1.00  0.00     0.007 C
HETATM   21  C28 UNL     1      39.565 -21.309  28.221  1.00  0.00     0.014 C
HETATM   22  C29 UNL     1      40.780 -26.312  29.798  1.00  0.00     0.085 C
ENDROOT
BRANCH   3  23
HETATM   23  O1  UNL     1      40.030 -28.355  28.889  1.00  0.00    -0.378 OA
ATOM     24  H1  UNL     1      39.720 -28.254  29.781  1.00  0.00     0.211 HD
ENDBRANCH   3  23
BRANCH  14  25
HETATM   25  O2  UNL     1      39.089 -22.275  24.735  1.00  0.00    -0.394 OA
ATOM     26  H2  UNL     1      38.325 -21.709  24.731  1.00  0.00     0.210 HD
ENDBRANCH  14  25
BRANCH  18  27
HETATM   27  C19 UNL     1      39.194 -18.716  25.828  1.00  0.00    -0.024 C
HETATM   28  C20 UNL     1      39.434 -17.413  25.851  1.00  0.00    -0.029 C
BRANCH  28  29
HETATM   29  C21 UNL     1      38.594 -16.391  25.204  1.00  0.00     0.054 C
BRANCH  29  30
HETATM   30  C22 UNL     1      37.405 -15.968  26.000  1.00  0.00     0.236 C
BRANCH  30  31
HETATM   31  N1  UNL     1      37.629 -14.698  26.687  1.00  0.00    -0.074 N
ATOM     32  H12 UNL     1      38.444 -14.214  26.308  1.00  0.00     0.277 HD
ATOM     33  H11 UNL     1      36.908 -14.017  26.446  1.00  0.00     0.277 HD
BRANCH  31  34
HETATM   34  C23 UNL     1      37.738 -14.856  28.113  1.00  0.00     0.242 C
BRANCH  34  35
HETATM   35  C24 UNL     1      36.608 -15.800  28.520  1.00  0.00     0.140 C
BRANCH  35  36
HETATM   36  C25 UNL     1      35.454 -14.987  28.968  1.00  0.00     0.174 C
HETATM   37  O3  UNL     1      35.473 -13.754  28.756  1.00  0.00    -0.648 OA
HETATM   38  O4  UNL     1      34.405 -15.606  29.597  1.00  0.00    -0.648 OA
ENDBRANCH  35  36
ENDBRANCH  34  35
ENDBRANCH  31  34
ENDBRANCH  30  31
ENDBRANCH  29  30
ENDBRANCH  28  29
ENDBRANCH  18  27
TORSDOF 9
ENDMDL