MODEL 2
REMARK VINA RESULT: -7.558733904      2.802      7.420
REMARK  9 active torsions:
REMARK  status: ('A' for Active; 'I' for Inactive)
REMARK    1  A    between atoms: C2_2  and  N1_4
REMARK    2  A    between atoms: C2_2  and  C4_8
REMARK       I    between atoms: C4_8  and  N2_10
REMARK    3  A    between atoms: N2_10  and  C5_12
REMARK    4  A    between atoms: C5_12  and  C6_13
REMARK    5  A    between atoms: C6_13  and  C7_14
REMARK    6  A    between atoms: C7_14  and  C8_15
REMARK    7  A    between atoms: C8_15  and  N3_16
REMARK       I    between atoms: N3_16  and  C9_18
REMARK    8  A    between atoms: C9_18  and  C10_20
REMARK    9  A    between atoms: C20_30  and  O3_31
ROOT
HETATM    1  C10 UNL     1      40.300 -23.446  26.656  1.00  0.00     0.086 C
HETATM    2  C11 UNL     1      39.988 -24.595  27.591  1.00  0.00     0.015 C
HETATM    3  C12 UNL     1      41.212 -24.525  28.513  1.00  0.00     0.011 C
HETATM    4  C13 UNL     1      41.343 -23.038  28.733  1.00  0.00    -0.032 C
HETATM    5  C14 UNL     1      40.532 -22.758  29.990  1.00  0.00     0.016 C
HETATM    6  C15 UNL     1      42.751 -22.598  29.014  1.00  0.00    -0.001 C
HETATM    7  C16 UNL     1      43.800 -23.229  28.172  1.00  0.00     0.007 C
HETATM    8  C17 UNL     1      44.918 -22.383  27.731  1.00  0.00     0.012 C
HETATM    9  C18 UNL     1      45.272 -21.208  28.548  1.00  0.00    -0.014 C
HETATM   10  C19 UNL     1      45.795 -20.085  27.638  1.00  0.00     0.018 C
HETATM   11  C20 UNL     1      46.437 -21.530  29.494  1.00  0.00     0.126 C
HETATM   12  C21 UNL     1      46.106 -20.724  30.761  1.00  0.00     0.033 C
HETATM   13  C22 UNL     1      44.592 -20.983  30.795  1.00  0.00     0.008 C
HETATM   14  C23 UNL     1      44.207 -20.629  29.388  1.00  0.00     0.001 C
HETATM   15  C24 UNL     1      42.809 -21.104  29.078  1.00  0.00    -0.005 C
HETATM   16  C25 UNL     1      42.186 -20.414  27.904  1.00  0.00     0.006 C
HETATM   17  C26 UNL     1      41.559 -21.321  26.909  1.00  0.00     0.011 C
HETATM   18  C27 UNL     1      40.671 -22.343  27.586  1.00  0.00    -0.024 C
HETATM   19  C28 UNL     1      39.438 -21.592  28.025  1.00  0.00     0.017 C
ENDROOT
BRANCH   1  20
HETATM   20  C9  UNL     1      39.303 -23.184  25.641  1.00  0.00     0.222 C
HETATM   21  N3  UNL     1      37.936 -23.600  25.653  1.00  0.00    -0.361 N
ATOM     22  H3  UNL     1      37.606 -24.142  26.452  1.00  0.00     0.162 HD
HETATM   23  O2  UNL     1      39.618 -22.512  24.592  1.00  0.00    -0.273 OA
BRANCH  21  24
HETATM   24  C8  UNL     1      36.997 -23.298  24.604  1.00  0.00     0.122 C
BRANCH  24  25
HETATM   25  C7  UNL     1      35.865 -22.493  25.158  1.00  0.00     0.021 C
BRANCH  25  26
HETATM   26  C6  UNL     1      36.257 -21.511  26.217  1.00  0.00     0.021 C
BRANCH  26  27
HETATM   27  C5  UNL     1      36.698 -20.194  25.651  1.00  0.00     0.122 C
BRANCH  27  28
HETATM   28  N2  UNL     1      36.992 -19.190  26.650  1.00  0.00    -0.359 N
HETATM   29  C4  UNL     1      37.093 -17.809  26.379  1.00  0.00     0.253 C
HETATM   30  O1  UNL     1      36.923 -17.381  25.217  1.00  0.00    -0.271 OA
ATOM     31  H2  UNL     1      37.136 -19.500  27.611  1.00  0.00     0.162 HD
BRANCH  29  32
HETATM   32  C2  UNL     1      37.397 -16.848  27.444  1.00  0.00     0.196 C
HETATM   33  C1  UNL     1      38.874 -16.990  27.816  1.00  0.00     0.056 C
HETATM   34  C3  UNL     1      37.142 -15.414  27.008  1.00  0.00     0.056 C
BRANCH  32  35
HETATM   35  N1  UNL     1      36.656 -17.135  28.667  1.00  0.00    -0.062 N
ATOM     36  H13 UNL     1      35.735 -16.698  28.700  1.00  0.00     0.275 HD
ATOM     37  H12 UNL     1      36.334 -18.101  28.734  1.00  0.00     0.275 HD
ATOM     38  H11 UNL     1      37.269 -16.854  29.431  1.00  0.00     0.275 HD
ENDBRANCH  32  35
ENDBRANCH  29  32
ENDBRANCH  27  28
ENDBRANCH  26  27
ENDBRANCH  25  26
ENDBRANCH  24  25
ENDBRANCH  21  24
ENDBRANCH   1  20
BRANCH  11  39
HETATM   39  O3  UNL     1      47.645 -21.074  29.040  1.00  0.00    -0.395 OA
ATOM     40  H3  UNL     1      48.365 -21.268  29.628  1.00  0.00     0.210 HD
ENDBRANCH  11  39
TORSDOF 9
ENDMDL