MODEL 1
REMARK VINA RESULT: -7.244369243      0.000      0.000
REMARK  9 active torsions:
REMARK  status: ('A' for Active; 'I' for Inactive)
REMARK    1  A    between atoms: C2_2  and  C3_3
REMARK    2  A    between atoms: C2_2  and  C15_20
REMARK    3  A    between atoms: C4_4  and  C5_5
REMARK       I    between atoms: C5_5  and  N1_7
REMARK    4  A    between atoms: N1_7  and  C6_9
REMARK    5  A    between atoms: C13_16  and  O2_18
REMARK    6  A    between atoms: C15_20  and  C16_21
REMARK    7  A    between atoms: C16_21  and  N2_22
REMARK    8  A    between atoms: C16_21  and  C17_26
REMARK       I    between atoms: C17_26  and  N3_28
REMARK    9  A    between atoms: N3_28  and  C18_30
ROOT
HETATM    1  C15 UNL     1      41.734 -23.074  29.457  1.00  0.00     0.051 C
ENDROOT
BRANCH   1   2
HETATM    2  C2  UNL     1      41.229 -24.226  28.703  1.00  0.00     0.006 C
HETATM    3  C1  UNL     1      40.102 -24.843  29.666  1.00  0.00     0.014 C
BRANCH   2   4
HETATM    4  C3  UNL     1      40.459 -24.043  27.471  1.00  0.00    -0.017 C
HETATM    5  C4  UNL     1      39.540 -24.742  26.897  1.00  0.00     0.070 C
BRANCH   5   6
HETATM    6  C5  UNL     1      38.882 -24.375  25.653  1.00  0.00     0.241 C
HETATM    7  O1  UNL     1      38.928 -25.137  24.633  1.00  0.00    -0.269 OA
HETATM    8  N1  UNL     1      38.172 -23.171  25.528  1.00  0.00    -0.350 N
ATOM      9  H1  UNL     1      38.107 -22.530  26.319  1.00  0.00     0.163 HD
BRANCH   8  10
HETATM   10  C6  UNL     1      37.525 -22.837  24.259  1.00  0.00     0.122 C
HETATM   11  C7  UNL     1      38.045 -21.480  23.777  1.00  0.00     0.007 C
HETATM   12  C8  UNL     1      39.531 -21.375  24.036  1.00  0.00     0.012 C
HETATM   13  C9  UNL     1      37.715 -21.391  22.314  1.00  0.00     0.007 C
HETATM   14  C10 UNL     1      36.494 -22.198  21.956  1.00  0.00     0.007 C
HETATM   15  C11 UNL     1      35.488 -22.253  23.069  1.00  0.00     0.018 C
HETATM   16  C12 UNL     1      34.802 -20.918  23.238  1.00  0.00     0.013 C
HETATM   17  C13 UNL     1      36.038 -22.754  24.364  1.00  0.00     0.078 C
HETATM   18  C14 UNL     1      35.458 -24.084  24.788  1.00  0.00     0.048 C
BRANCH  17  19
HETATM   19  O2  UNL     1      35.735 -21.842  25.389  1.00  0.00    -0.388 OA
ATOM     20  H2  UNL     1      34.856 -21.516  25.233  1.00  0.00     0.210 HD
ENDBRANCH  17  19
ENDBRANCH   8  10
ENDBRANCH   5   6
ENDBRANCH   2   4
ENDBRANCH   1   2
BRANCH   1  21
HETATM   21  C16 UNL     1      40.798 -22.173  30.159  1.00  0.00     0.275 C
BRANCH  21  22
HETATM   22  N2  UNL     1      41.181 -21.789  31.461  1.00  0.00    -0.066 N
ATOM     23  H23 UNL     1      40.829 -22.463  32.141  1.00  0.00     0.275 HD
ATOM     24  H22 UNL     1      42.186 -21.919  31.581  1.00  0.00     0.275 HD
ATOM     25  H21 UNL     1      40.917 -20.844  31.739  1.00  0.00     0.275 HD
ENDBRANCH  21  22
BRANCH  21  26
HETATM   26  C17 UNL     1      40.534 -20.918  29.360  1.00  0.00     0.248 C
HETATM   27  O3  UNL     1      41.499 -20.131  29.235  1.00  0.00    -0.271 OA
HETATM   28  N3  UNL     1      39.302 -20.601  28.775  1.00  0.00    -0.350 N
ATOM     29  H3  UNL     1      38.537 -21.265  28.898  1.00  0.00     0.163 HD
BRANCH  28  30
HETATM   30  C18 UNL     1      39.031 -19.412  28.015  1.00  0.00     0.034 C
HETATM   31  C19 UNL     1      38.976 -18.167  28.871  1.00  0.00     0.035 C
HETATM   32  C20 UNL     1      38.475 -17.004  28.061  1.00  0.00    -0.012 C
HETATM   33  C21 UNL     1      39.548 -16.708  27.013  1.00  0.00     0.009 C
HETATM   34  C25 UNL     1      37.147 -17.278  27.428  1.00  0.00     0.009 C
HETATM   35  C22 UNL     1      39.682 -17.937  26.158  1.00  0.00    -0.012 C
HETATM   36  C23 UNL     1      38.396 -18.148  25.428  1.00  0.00     0.009 C
HETATM   37  C27 UNL     1      40.101 -19.161  26.966  1.00  0.00     0.035 C
HETATM   38  C24 UNL     1      37.312 -18.422  26.454  1.00  0.00    -0.012 C
HETATM   39  C26 UNL     1      37.744 -19.626  27.250  1.00  0.00     0.035 C
ENDBRANCH  28  30
ENDBRANCH  21  26
ENDBRANCH   1  21
TORSDOF 9
ENDMDL