MODEL 1
REMARK VINA RESULT: -8.532200412      0.000      0.000
REMARK  7 active torsions:
REMARK  status: ('A' for Active; 'I' for Inactive)
REMARK    1  A    between atoms: C2_2  and  C3_3
REMARK       I    between atoms: C3_3  and  N1_5
REMARK    2  A    between atoms: N1_5  and  C4_7
REMARK    3  A    between atoms: C4_7  and  C5_8
REMARK    4  A    between atoms: C4_7  and  C12_15
REMARK    5  A    between atoms: C5_8  and  C6_9
REMARK       I    between atoms: C12_15  and  N2_17
REMARK    6  A    between atoms: N2_17  and  C13_19
REMARK    7  A    between atoms: C13_19  and  C14_20
ROOT
HETATM    1  C4  UNL     1      39.420 -19.722  27.434  1.00  0.00     0.177 C
ENDROOT
BRANCH   1   2
HETATM    2  N1  UNL     1      39.161 -20.437  26.206  1.00  0.00    -0.347 N
HETATM    3  C3  UNL     1      37.982 -21.193  26.010  1.00  0.00     0.227 C
HETATM    4  O1  UNL     1      37.142 -21.223  26.953  1.00  0.00    -0.273 OA
ATOM      5  H1  UNL     1      39.851 -20.396  25.455  1.00  0.00     0.163 HD
BRANCH   3   6
HETATM    6  C2  UNL     1      37.761 -21.915  24.746  1.00  0.00     0.048 C
HETATM    7  C1  UNL     1      39.112 -22.191  24.125  1.00  0.00     0.026 C
HETATM    8  C19 UNL     1      37.069 -23.231  25.046  1.00  0.00     0.047 C
HETATM    9  C20 UNL     1      36.749 -23.996  23.810  1.00  0.00     0.233 C
HETATM   10  N3  UNL     1      36.125 -23.180  22.786  1.00  0.00    -0.074 N
HETATM   11  C21 UNL     1      36.921 -22.028  22.473  1.00  0.00     0.243 C
ATOM     12  H32 UNL     1      35.916 -23.726  21.950  1.00  0.00     0.277 HD
ATOM     13  H31 UNL     1      35.174 -22.917  23.046  1.00  0.00     0.277 HD
HETATM   14  C22 UNL     1      36.960 -21.154  23.736  1.00  0.00    -0.001 C
HETATM   15  C23 UNL     1      37.612 -19.861  23.311  1.00  0.00     0.012 C
HETATM   16  C27 UNL     1      35.534 -20.922  24.136  1.00  0.00     0.012 C
HETATM   17  C24 UNL     1      36.648 -18.711  23.225  1.00  0.00     0.001 C
HETATM   18  C25 UNL     1      35.404 -19.083  22.428  1.00  0.00     0.000 C
HETATM   19  C26 UNL     1      34.789 -20.366  22.925  1.00  0.00     0.001 C
ENDBRANCH   3   6
ENDBRANCH   1   2
BRANCH   1  20
HETATM   20  C5  UNL     1      39.638 -18.305  27.197  1.00  0.00     0.039 C
BRANCH  20  21
HETATM   21  C6  UNL     1      38.755 -17.255  27.686  1.00  0.00    -0.012 C
HETATM   22  C7  UNL     1      39.114 -15.843  27.213  1.00  0.00     0.005 C
HETATM   23  C8  UNL     1      38.092 -14.868  27.773  1.00  0.00     0.000 C
HETATM   24  C9  UNL     1      37.393 -15.398  28.984  1.00  0.00     0.000 C
HETATM   25  C10 UNL     1      36.637 -16.672  28.771  1.00  0.00     0.000 C
HETATM   26  C11 UNL     1      37.288 -17.413  27.590  1.00  0.00     0.005 C
ENDBRANCH  20  21
ENDBRANCH   1  20
BRANCH   1  27
HETATM   27  C12 UNL     1      40.364 -20.423  28.313  1.00  0.00     0.241 C
HETATM   28  O2  UNL     1      41.408 -19.845  28.662  1.00  0.00    -0.271 OA
HETATM   29  N2  UNL     1      40.153 -21.730  28.789  1.00  0.00    -0.340 N
ATOM     30  H2  UNL     1      39.292 -22.198  28.506  1.00  0.00     0.163 HD
BRANCH  29  31
HETATM   31  C13 UNL     1      41.058 -22.463  29.646  1.00  0.00     0.121 C
HETATM   32  C15 UNL     1      42.246 -22.990  28.879  1.00  0.00     0.042 C
HETATM   33  C16 UNL     1      42.316 -24.472  29.091  1.00  0.00     0.003 C
HETATM   34  C17 UNL     1      41.509 -24.705  30.344  1.00  0.00     0.003 C
HETATM   35  C18 UNL     1      40.375 -23.705  30.168  1.00  0.00     0.042 C
BRANCH  31  36
HETATM   36  C14 UNL     1      41.533 -21.682  30.803  1.00  0.00     0.202 C
HETATM   37  O3  UNL     1      40.690 -21.194  31.595  1.00  0.00    -0.646 OA
HETATM   38  O4  UNL     1      42.857 -21.446  31.082  1.00  0.00    -0.646 OA
ENDBRANCH  31  36
ENDBRANCH  29  31
ENDBRANCH   1  27
TORSDOF 7
ENDMDL