MODEL 4
REMARK VINA RESULT: -7.394797402      3.943      9.252
REMARK  10 active torsions:
REMARK  status: ('A' for Active; 'I' for Inactive)
REMARK       I    between atoms: N1_6  and  C6_7
REMARK    1  A    between atoms: C6_7  and  C7_9
REMARK    2  A    between atoms: C7_9  and  C8_10
REMARK    3  A    between atoms: C8_10  and  C9_11
REMARK    4  A    between atoms: C11_16  and  C12_17
REMARK    5  A    between atoms: C12_17  and  C13_18
REMARK    6  A    between atoms: C13_18  and  C14_19
REMARK    7  A    between atoms: C14_19  and  N4_23
REMARK    8  A    between atoms: N4_23  and  C16_25
REMARK    9  A    between atoms: C24_33  and  C25_34
REMARK   10  A    between atoms: C25_34  and  C26_35
ROOT
HETATM    1  C9  UNL     1      37.973 -18.416  27.909  1.00  0.00     0.107 C
HETATM    2  C10 UNL     1      37.669 -19.679  27.283  1.00  0.00     0.226 C
HETATM    3  O2  UNL     1      37.572 -20.790  27.910  1.00  0.00    -0.273 OA
HETATM    4  N2  UNL     1      37.453 -19.763  25.895  1.00  0.00    -0.353 N
ATOM      5  H2  UNL     1      37.695 -20.619  25.395  1.00  0.00     0.163 HD
HETATM    6  C11 UNL     1      36.878 -18.622  25.160  1.00  0.00     0.108 C
HETATM    7  C23 UNL     1      37.526 -17.396  25.745  1.00  0.00     0.002 C
HETATM    8  C24 UNL     1      38.014 -17.298  26.963  1.00  0.00    -0.059 C
ENDROOT
BRANCH   6   9
HETATM    9  C12 UNL     1      37.234 -18.650  23.709  1.00  0.00     0.036 C
BRANCH   9  10
HETATM   10  C13 UNL     1      36.152 -19.052  22.778  1.00  0.00     0.078 C
BRANCH  10  11
HETATM   11  C14 UNL     1      36.238 -20.390  22.201  1.00  0.00     0.076 C
HETATM   12  N3  UNL     1      36.030 -20.572  20.915  1.00  0.00    -0.389 N
ATOM     13  H32 UNL     1      35.813 -19.713  20.409  1.00  0.00     0.157 HD
ATOM     14  H31 UNL     1      36.090 -21.507  20.512  1.00  0.00     0.157 HD
BRANCH  11  15
HETATM   15  N4  UNL     1      36.540 -21.585  22.905  1.00  0.00    -0.345 N
HETATM   16  C15 UNL     1      37.746 -22.284  22.627  1.00  0.00     0.157 C
BRANCH  15  17
HETATM   17  C16 UNL     1      35.578 -22.015  23.860  1.00  0.00     0.012 C
HETATM   18  C17 UNL     1      34.198 -22.265  23.413  1.00  0.00     0.021 C
HETATM   19  C18 UNL     1      33.863 -23.259  22.415  1.00  0.00    -0.025 C
HETATM   20  C19 UNL     1      34.705 -24.431  22.148  1.00  0.00     0.027 C
HETATM   21  C20 UNL     1      35.747 -24.802  23.118  1.00  0.00     0.004 C
HETATM   22  C21 UNL     1      35.445 -24.439  24.546  1.00  0.00     0.006 C
HETATM   23  C22 UNL     1      36.045 -23.095  24.803  1.00  0.00     0.057 C
ENDBRANCH  15  17
ENDBRANCH  11  15
ENDBRANCH  10  11
ENDBRANCH   9  10
ENDBRANCH   6   9
BRANCH   8  24
HETATM   24  C25 UNL     1      38.634 -15.973  27.330  1.00  0.00     0.148 C
BRANCH  24  25
HETATM   25  C26 UNL     1      37.718 -15.121  28.102  1.00  0.00     0.176 C
HETATM   26  O3  UNL     1      37.805 -14.993  29.335  1.00  0.00    -0.648 OA
HETATM   27  O4  UNL     1      36.714 -14.429  27.433  1.00  0.00    -0.648 OA
ENDBRANCH  24  25
ENDBRANCH   8  24
BRANCH   1  28
HETATM   28  C8  UNL     1      39.145 -18.452  28.850  1.00  0.00     0.028 C
BRANCH  28  29
HETATM   29  C7  UNL     1      40.340 -19.164  28.327  1.00  0.00     0.104 C
BRANCH  29  30
HETATM   30  C6  UNL     1      40.652 -20.296  29.240  1.00  0.00     0.219 C
HETATM   31  N1  UNL     1      41.101 -21.561  28.743  1.00  0.00    -0.352 N
HETATM   32  C5  UNL     1      41.402 -22.662  29.633  1.00  0.00     0.125 C
HETATM   33  C27 UNL     1      41.264 -21.760  27.323  1.00  0.00     0.130 C
HETATM   34  C4  UNL     1      41.037 -24.003  29.044  1.00  0.00     0.020 C
HETATM   35  C3  UNL     1      39.951 -23.764  28.004  1.00  0.00     0.007 C
HETATM   36  C2  UNL     1      40.633 -23.046  26.854  1.00  0.00    -0.001 C
HETATM   37  C1  UNL     1      39.656 -22.790  25.748  1.00  0.00     0.011 C
HETATM   38  O1  UNL     1      40.527 -20.171  30.479  1.00  0.00    -0.273 OA
ENDBRANCH  29  30
ENDBRANCH  28  29
ENDBRANCH   1  28
TORSDOF 10
ENDMDL