MODEL 2
REMARK VINA RESULT: -5.893476326      1.995      2.762
REMARK  14 active torsions:
REMARK  status: ('A' for Active; 'I' for Inactive)
REMARK       I    between atoms: C2_2  and  N1_4
REMARK    1  A    between atoms: C3_6  and  N2_7
REMARK    2  A    between atoms: C3_6  and  C11_16
REMARK    3  A    between atoms: N2_7  and  C4_9
REMARK    4  A    between atoms: C4_9  and  C5_10
REMARK    5  A    between atoms: C4_9  and  C8_13
REMARK    6  A    between atoms: N3_21  and  C16_22
REMARK    7  A    between atoms: C16_22  and  N4_23
REMARK    8  A    between atoms: C16_22  and  C21_28
REMARK    9  A    between atoms: N4_23  and  C17_24
REMARK   10  A    between atoms: C21_28  and  C22_29
REMARK   11  A    between atoms: C21_28  and  C26_33
REMARK   12  A    between atoms: C22_29  and  C23_30
REMARK   13  A    between atoms: C26_33  and  O2_34
REMARK   14  A    between atoms: N5_36  and  O3_38
ROOT
HETATM    1  C11 UNL     1      41.651 -20.682  28.203  1.00  0.00     0.154 C
HETATM    2  C12 UNL     1      43.142 -20.274  28.296  1.00  0.00     0.033 C
HETATM    3  C13 UNL     1      43.950 -20.731  27.153  1.00  0.00     0.004 C
HETATM    4  C14 UNL     1      43.153 -20.548  25.908  1.00  0.00     0.020 C
HETATM    5  C15 UNL     1      41.917 -19.792  26.005  1.00  0.00     0.126 C
HETATM    6  N3  UNL     1      41.078 -19.914  27.214  1.00  0.00    -0.348 N
ENDROOT
BRANCH   6   7
HETATM    7  C16 UNL     1      39.831 -19.176  27.069  1.00  0.00     0.160 C
BRANCH   7   8
HETATM    8  N4  UNL     1      38.834 -19.777  26.602  1.00  0.00    -0.424 NA
BRANCH   8   9
HETATM    9  C17 UNL     1      37.871 -20.350  25.890  1.00  0.00     0.084 C
HETATM   10  C18 UNL     1      36.824 -19.380  25.238  1.00  0.00     0.053 C
HETATM   11  C19 UNL     1      38.342 -21.132  24.632  1.00  0.00     0.053 C
HETATM   12  C20 UNL     1      36.885 -21.306  26.605  1.00  0.00     0.053 C
ENDBRANCH   8   9
ENDBRANCH   7   8
BRANCH   7  13
HETATM   13  C21 UNL     1      39.632 -17.772  27.466  1.00  0.00     0.144 C
BRANCH  13  14
HETATM   14  C22 UNL     1      39.236 -16.792  26.414  1.00  0.00     0.025 C
BRANCH  14  15
HETATM   15  C23 UNL     1      40.150 -16.765  25.208  1.00  0.00    -0.021 C
HETATM   16  C24 UNL     1      40.424 -15.293  24.931  1.00  0.00     0.009 C
HETATM   17  C25 UNL     1      39.397 -17.245  23.957  1.00  0.00     0.009 C
ENDBRANCH  14  15
ENDBRANCH  13  14
BRANCH  13  18
HETATM   18  C26 UNL     1      38.513 -17.619  28.461  1.00  0.00     0.148 C
HETATM   19  N5  UNL     1      38.613 -17.725  29.720  1.00  0.00    -0.250 N
ATOM     20  H5  UNL     1      37.743 -17.588  30.234  1.00  0.00     0.196 HD
BRANCH  18  21
HETATM   21  O2  UNL     1      37.263 -17.332  27.913  1.00  0.00    -0.347 OA
ATOM     22  H2  UNL     1      36.518 -17.626  28.425  1.00  0.00     0.219 HD
ENDBRANCH  18  21
BRANCH  19  23
HETATM   23  O3  UNL     1      39.686 -17.988  30.483  1.00  0.00    -0.288 OA
ATOM     24  H3  UNL     1      39.740 -18.369  31.351  1.00  0.00     0.244 HD
ENDBRANCH  19  23
ENDBRANCH  13  18
ENDBRANCH   7  13
ENDBRANCH   6   7
BRANCH   1  25
HETATM   25  C3  UNL     1      41.562 -22.174  27.897  1.00  0.00     0.103 C
HETATM   26  N1  UNL     1      40.773 -22.511  27.004  1.00  0.00    -0.315 N
HETATM   27  C2  UNL     1      40.367 -23.674  26.403  1.00  0.00     0.219 C
ATOM     28  H1  UNL     1      40.295 -21.701  26.607  1.00  0.00     0.170 HD
HETATM   29  C1  UNL     1      38.984 -24.205  26.671  1.00  0.00     0.117 C
HETATM   30  O1  UNL     1      41.053 -24.395  25.604  1.00  0.00    -0.274 OA
BRANCH  25  31
HETATM   31  N2  UNL     1      42.361 -23.087  28.625  1.00  0.00    -0.373 N
ATOM     32  H2  UNL     1      43.047 -23.637  28.109  1.00  0.00     0.161 HD
BRANCH  31  33
HETATM   33  C4  UNL     1      42.267 -23.295  30.076  1.00  0.00     0.089 C
BRANCH  33  34
HETATM   34  C5  UNL     1      43.693 -23.278  30.564  1.00  0.00     0.000 C
HETATM   35  C6  UNL     1      44.722 -23.428  29.482  1.00  0.00     0.011 C
HETATM   36  C7  UNL     1      44.013 -21.974  31.281  1.00  0.00     0.011 C
ENDBRANCH  33  34
BRANCH  33  37
HETATM   37  C8  UNL     1      41.578 -24.631  30.275  1.00  0.00     0.000 C
HETATM   38  C9  UNL     1      42.038 -25.521  29.099  1.00  0.00     0.011 C
HETATM   39  C10 UNL     1      40.088 -24.587  30.154  1.00  0.00     0.011 C
ENDBRANCH  33  37
ENDBRANCH  31  33
ENDBRANCH  25  31
ENDBRANCH   1  25
TORSDOF 14
ENDMDL