MODEL 4
REMARK VINA RESULT: -8.356435746      2.418      3.709
REMARK  9 active torsions:
REMARK  status: ('A' for Active; 'I' for Inactive)
REMARK    1  A    between atoms: C4_7  and  C5_8
REMARK    2  A    between atoms: C5_8  and  C6_9
REMARK    3  A    between atoms: C6_9  and  C7_10
REMARK    4  A    between atoms: C7_10  and  C8_11
REMARK    5  A    between atoms: C8_11  and  N2_12
REMARK    6  A    between atoms: N4_22  and  C15_23
REMARK    7  A    between atoms: C15_23  and  C16_24
REMARK    8  A    between atoms: C16_24  and  C17_25
REMARK    9  A    between atoms: C22_30  and  O2_31
ROOT
HETATM    1  C1  UNL     1      41.099 -21.266  30.037  1.00  0.00     0.070 C
HETATM    2  C2  UNL     1      40.526 -20.386  28.914  1.00  0.00     0.192 C
HETATM    3  C3  UNL     1      40.044 -19.137  29.609  1.00  0.00     0.070 C
HETATM    4  N1  UNL     1      41.646 -19.956  28.078  1.00  0.00    -0.045 N
ATOM      5  H11 UNL     1      42.459 -19.739  28.655  1.00  0.00     0.280 HD
ATOM      6  H12 UNL     1      41.463 -19.034  27.683  1.00  0.00     0.280 HD
HETATM    7  C4  UNL     1      41.997 -20.882  27.046  1.00  0.00     0.190 C
HETATM    8  C13 UNL     1      41.385 -22.228  27.138  1.00  0.00     0.053 C
HETATM    9  C14 UNL     1      39.881 -22.079  27.295  1.00  0.00     0.126 C
HETATM   10  N4  UNL     1      39.531 -21.025  28.189  1.00  0.00    -0.362 N
ENDROOT
BRANCH  10  11
HETATM   11  C15 UNL     1      38.255 -20.508  27.953  1.00  0.00     0.061 C
BRANCH  11  12
HETATM   12  C16 UNL     1      38.135 -19.908  26.573  1.00  0.00     0.050 C
BRANCH  12  13
HETATM   13  C17 UNL     1      37.465 -18.564  26.674  1.00  0.00     0.007 C
HETATM   14  C18 UNL     1      37.116 -18.256  28.118  1.00  0.00     0.045 C
HETATM   15  C19 UNL     1      37.005 -16.773  28.091  1.00  0.00    -0.051 A
HETATM   16  C20 UNL     1      36.382 -15.941  29.027  1.00  0.00     0.010 A
HETATM   17  C24 UNL     1      37.622 -16.277  26.980  1.00  0.00    -0.040 A
HETATM   18  C21 UNL     1      36.414 -14.590  28.780  1.00  0.00     0.037 A
HETATM   19  C22 UNL     1      37.028 -14.061  27.670  1.00  0.00     0.066 A
HETATM   20  C23 UNL     1      37.634 -14.909  26.767  1.00  0.00     0.045 A
HETATM   21  C25 UNL     1      38.204 -17.403  26.148  1.00  0.00    -0.008 C
HETATM   22  C26 UNL     1      37.854 -17.043  24.721  1.00  0.00     0.015 C
HETATM   23  C30 UNL     1      39.683 -17.397  26.290  1.00  0.00     0.015 C
HETATM   24  C27 UNL     1      39.050 -16.581  23.936  1.00  0.00     0.001 C
HETATM   25  C28 UNL     1      40.082 -17.691  23.827  1.00  0.00     0.000 C
HETATM   26  C29 UNL     1      40.455 -18.100  25.217  1.00  0.00     0.001 C
BRANCH  19  27
HETATM   27  O2  UNL     1      37.056 -12.713  27.432  1.00  0.00    -0.361 OA
ATOM     28  H2  UNL     1      37.665 -12.325  26.816  1.00  0.00     0.217 HD
ENDBRANCH  19  27
ENDBRANCH  12  13
ENDBRANCH  11  12
ENDBRANCH  10  11
BRANCH   7  29
HETATM   29  C5  UNL     1      43.423 -20.844  26.652  1.00  0.00     0.033 C
BRANCH  29  30
HETATM   30  C6  UNL     1      44.439 -20.380  27.605  1.00  0.00     0.004 C
BRANCH  30  31
HETATM   31  C7  UNL     1      44.979 -21.364  28.570  1.00  0.00     0.030 C
BRANCH  31  32
HETATM   32  C8  UNL     1      46.287 -20.949  29.212  1.00  0.00     0.273 C
BRANCH  32  33
HETATM   33  N2  UNL     1      46.511 -21.802  30.355  1.00  0.00     0.098 N
HETATM   34  C9  UNL     1      46.108 -21.263  31.608  1.00  0.00     0.292 C
HETATM   35  C10 UNL     1      44.832 -21.793  32.181  1.00  0.00     0.152 C
HETATM   36  N3  UNL     1      44.988 -23.218  32.346  1.00  0.00    -0.358 N
HETATM   37  C11 UNL     1      45.755 -23.882  31.347  1.00  0.00     0.246 C
ATOM     38  H3  UNL     1      44.573 -23.719  33.131  1.00  0.00     0.162 HD
HETATM   39  O1  UNL     1      46.145 -25.044  31.492  1.00  0.00    -0.272 OA
HETATM   40  C12 UNL     1      46.100 -23.149  30.087  1.00  0.00     0.374 C
ENDBRANCH  32  33
ENDBRANCH  31  32
ENDBRANCH  30  31
ENDBRANCH  29  30
ENDBRANCH   7  29
TORSDOF 9
ENDMDL