MODEL 5
REMARK VINA RESULT: -7.378416033      5.915      7.242
REMARK  10 active torsions:
REMARK  status: ('A' for Active; 'I' for Inactive)
REMARK    1  A    between atoms: C2_2  and  C3_3
REMARK       I    between atoms: C3_3  and  N1_5
REMARK    2  A    between atoms: N1_5  and  C4_7
REMARK    3  A    between atoms: C4_7  and  C5_8
REMARK    4  A    between atoms: C5_8  and  C6_9
REMARK    5  A    between atoms: C6_9  and  C7_10
REMARK    6  A    between atoms: C7_10  and  N2_11
REMARK    7  A    between atoms: N3_27  and  C20_28
REMARK    8  A    between atoms: C20_28  and  C21_29
REMARK    9  A    between atoms: C21_29  and  C22_30
REMARK   10  A    between atoms: C22_30  and  N4_31
ROOT
HETATM    1  C1  UNL     1      43.962 -24.384  27.509  1.00  0.00     0.030 C
HETATM    2  C2  UNL     1      43.912 -23.455  28.712  1.00  0.00     0.056 C
HETATM    3  C8  UNL     1      42.576 -22.857  28.890  1.00  0.00     0.000 C
HETATM    4  C9  UNL     1      42.237 -21.773  28.217  1.00  0.00    -0.049 C
HETATM    5  C10 UNL     1      43.183 -21.163  27.295  1.00  0.00    -0.055 C
HETATM    6  C11 UNL     1      42.569 -20.291  26.515  1.00  0.00    -0.009 C
HETATM    7  C12 UNL     1      41.113 -20.215  26.829  1.00  0.00    -0.014 C
HETATM    8  C13 UNL     1      40.419 -21.099  25.797  1.00  0.00     0.021 C
HETATM    9  C14 UNL     1      41.019 -20.927  28.145  1.00  0.00     0.031 C
HETATM   10  C15 UNL     1      40.908 -19.932  29.260  1.00  0.00     0.011 C
HETATM   11  C16 UNL     1      39.576 -19.231  29.057  1.00  0.00     0.006 C
HETATM   12  C17 UNL     1      39.676 -18.363  27.820  1.00  0.00    -0.003 C
HETATM   13  C18 UNL     1      38.264 -18.182  27.321  1.00  0.00     0.028 C
HETATM   14  C19 UNL     1      37.477 -17.440  28.368  1.00  0.00     0.278 C
HETATM   15  N3  UNL     1      36.932 -16.272  27.781  1.00  0.00     0.089 N
HETATM   16  C23 UNL     1      37.498 -16.088  26.481  1.00  0.00     0.282 C
HETATM   17  C24 UNL     1      38.149 -17.389  26.072  1.00  0.00    -0.012 C
HETATM   18  C25 UNL     1      37.166 -18.077  25.127  1.00  0.00     0.017 C
HETATM   19  C26 UNL     1      39.476 -17.193  25.420  1.00  0.00     0.012 C
HETATM   20  C27 UNL     1      40.147 -18.548  25.369  1.00  0.00     0.007 C
HETATM   21  C28 UNL     1      40.648 -18.813  26.801  1.00  0.00     0.002 C
HETATM   22  C29 UNL     1      44.628 -21.523  27.295  1.00  0.00     0.040 C
HETATM   23  C30 UNL     1      44.945 -22.368  28.493  1.00  0.00     0.027 C
ENDROOT
BRANCH   2  24
HETATM   24  C3  UNL     1      44.266 -24.214  29.922  1.00  0.00     0.229 C
HETATM   25  O1  UNL     1      43.497 -24.162  30.915  1.00  0.00    -0.272 OA
HETATM   26  N1  UNL     1      45.450 -25.008  30.012  1.00  0.00    -0.360 N
ATOM     27  H1  UNL     1      46.086 -25.061  29.218  1.00  0.00     0.162 HD
BRANCH  26  28
HETATM   28  C4  UNL     1      45.748 -25.728  31.211  1.00  0.00     0.122 C
BRANCH  28  29
HETATM   29  C5  UNL     1      46.293 -27.091  30.964  1.00  0.00     0.021 C
BRANCH  29  30
HETATM   30  C6  UNL     1      45.381 -28.083  30.348  1.00  0.00     0.029 C
BRANCH  30  31
HETATM   31  C7  UNL     1      45.373 -29.453  30.929  1.00  0.00     0.229 C
BRANCH  31  32
HETATM   32  N2  UNL     1      46.651 -29.980  31.305  1.00  0.00    -0.079 N
ATOM     33  H23 UNL     1      46.527 -30.813  31.881  1.00  0.00     0.274 HD
ATOM     34  H22 UNL     1      47.110 -30.389  30.491  1.00  0.00     0.274 HD
ATOM     35  H21 UNL     1      47.283 -29.328  31.769  1.00  0.00     0.274 HD
ENDBRANCH  31  32
ENDBRANCH  30  31
ENDBRANCH  29  30
ENDBRANCH  28  29
ENDBRANCH  26  28
ENDBRANCH   2  24
BRANCH  15  36
HETATM   36  C20 UNL     1      37.153 -15.069  28.558  1.00  0.00     0.274 C
BRANCH  36  37
HETATM   37  C21 UNL     1      35.807 -14.354  28.745  1.00  0.00     0.057 C
BRANCH  37  38
HETATM   38  C22 UNL     1      35.780 -13.105  27.877  1.00  0.00     0.231 C
BRANCH  38  39
HETATM   39  N4  UNL     1      37.122 -12.710  27.555  1.00  0.00    -0.079 N
ATOM     40  H43 UNL     1      37.808 -13.130  28.183  1.00  0.00     0.274 HD
ATOM     41  H42 UNL     1      37.447 -13.127  26.682  1.00  0.00     0.274 HD
ATOM     42  H41 UNL     1      37.188 -11.692  27.541  1.00  0.00     0.274 HD
ENDBRANCH  38  39
ENDBRANCH  37  38
ENDBRANCH  36  37
ENDBRANCH  15  36
TORSDOF 10
ENDMDL