MODEL 2
REMARK VINA RESULT: -7.691611274      3.625      7.030
REMARK  10 active torsions:
REMARK  status: ('A' for Active; 'I' for Inactive)
REMARK    1  A    between atoms: C13_13  and  N1_14
REMARK       I    between atoms: N1_14  and  C14_16
REMARK    2  A    between atoms: C14_16  and  C15_18
REMARK    3  A    between atoms: C15_18  and  C16_19
REMARK    4  A    between atoms: C16_19  and  C17_20
REMARK    5  A    between atoms: C18_21  and  C19_22
REMARK    6  A    between atoms: C19_22  and  C20_23
REMARK    7  A    between atoms: C20_23  and  O2_24
REMARK    8  A    between atoms: O2_24  and  C21_25
REMARK    9  A    between atoms: N2_31  and  N3_33
REMARK   10  A    between atoms: N3_33  and  C27_35
ROOT
HETATM    1  C15 UNL     1      38.997 -16.999  28.684  1.00  0.00     0.104 C
HETATM    2  N2  UNL     1      38.260 -16.201  29.391  1.00  0.00    -0.297 N
ATOM      3  H2  UNL     1      38.043 -16.458  30.354  1.00  0.00     0.187 HD
ENDROOT
BRANCH   1   4
HETATM    4  C14 UNL     1      39.474 -18.213  29.293  1.00  0.00     0.266 C
HETATM    5  N1  UNL     1      40.016 -19.248  28.524  1.00  0.00    -0.351 N
ATOM      6  H1  UNL     1      40.068 -19.131  27.512  1.00  0.00     0.163 HD
HETATM    7  O1  UNL     1      39.405 -18.344  30.539  1.00  0.00    -0.266 OA
BRANCH   5   8
HETATM    8  C13 UNL     1      40.513 -20.497  29.114  1.00  0.00     0.089 C
HETATM    9  C2  UNL     1      39.607 -21.576  28.638  1.00  0.00     0.008 C
HETATM   10  C1  UNL     1      38.754 -21.245  27.450  1.00  0.00     0.012 C
HETATM   11  C3  UNL     1      40.125 -23.022  28.636  1.00  0.00    -0.008 C
HETATM   12  C4  UNL     1      40.353 -23.602  27.283  1.00  0.00     0.010 C
HETATM   13  C11 UNL     1      41.496 -22.781  29.245  1.00  0.00     0.010 C
HETATM   14  C5  UNL     1      41.580 -24.087  26.743  1.00  0.00    -0.014 C
HETATM   15  C6  UNL     1      42.550 -24.927  27.462  1.00  0.00     0.005 C
HETATM   16  C9  UNL     1      42.599 -23.115  26.113  1.00  0.00     0.009 C
HETATM   17  C7  UNL     1      43.625 -23.951  27.939  1.00  0.00     0.005 C
HETATM   18  C8  UNL     1      43.183 -22.558  27.451  1.00  0.00    -0.010 C
HETATM   19  C10 UNL     1      42.075 -21.961  28.150  1.00  0.00    -0.008 C
HETATM   20  C12 UNL     1      42.005 -20.573  28.713  1.00  0.00     0.030 C
ENDBRANCH   5   8
ENDBRANCH   1   4
BRANCH   1  21
HETATM   21  C16 UNL     1      39.304 -16.609  27.286  1.00  0.00     0.158 C
BRANCH  21  22
HETATM   22  C17 UNL     1      38.394 -17.305  26.376  1.00  0.00    -0.100 C
HETATM   23  C18 UNL     1      37.632 -17.866  25.608  1.00  0.00    -0.104 C
BRANCH  23  24
HETATM   24  C19 UNL     1      36.709 -18.519  24.667  1.00  0.00     0.120 C
BRANCH  24  25
HETATM   25  C20 UNL     1      37.448 -19.515  23.805  1.00  0.00     0.180 C
BRANCH  25  26
HETATM   26  O2  UNL     1      37.314 -20.818  24.201  1.00  0.00    -0.385 OA
BRANCH  26  27
HETATM   27  C21 UNL     1      36.014 -21.256  24.330  1.00  0.00     0.121 C
HETATM   28  C22 UNL     1      35.363 -21.558  23.017  1.00  0.00     0.032 C
HETATM   29  C23 UNL     1      34.410 -22.714  23.055  1.00  0.00     0.002 C
HETATM   30  C24 UNL     1      34.987 -23.952  23.683  1.00  0.00     0.000 C
HETATM   31  C25 UNL     1      36.234 -23.666  24.488  1.00  0.00     0.002 C
HETATM   32  C26 UNL     1      35.936 -22.428  25.311  1.00  0.00     0.032 C
ENDBRANCH  26  27
ENDBRANCH  25  26
ENDBRANCH  24  25
ENDBRANCH  23  24
ENDBRANCH  21  22
ENDBRANCH   1  21
BRANCH   2  33
HETATM   33  N3  UNL     1      37.749 -14.997  28.886  1.00  0.00    -0.278 N
ATOM     34  H3  UNL     1      38.404 -14.253  28.645  1.00  0.00     0.189 HD
BRANCH  33  35
HETATM   35  C27 UNL     1      36.374 -14.768  28.694  1.00  0.00     0.199 C
HETATM   36  N4  UNL     1      35.427 -15.725  29.110  1.00  0.00    -0.068 NA
HETATM   37  S1  UNL     1      35.874 -13.397  27.991  1.00  0.00    -0.043 SA
ENDBRANCH  33  35
ENDBRANCH   2  33
TORSDOF 10
ENDMDL