MODEL 2
REMARK VINA RESULT: -6.593070983      3.354      7.354
REMARK  9 active torsions:
REMARK  status: ('A' for Active; 'I' for Inactive)
REMARK    1  A    between atoms: C2_2  and  C3_3
REMARK    2  A    between atoms: C3_3  and  C4_4
REMARK    3  A    between atoms: C4_4  and  C5_5
REMARK    4  A    between atoms: C5_5  and  C6_6
REMARK       I    between atoms: C6_6  and  N1_8
REMARK    5  A    between atoms: N1_8  and  C7_9
REMARK    6  A    between atoms: N1_8  and  C10_12
REMARK    7  A    between atoms: C14_16  and  O2_17
REMARK    8  A    between atoms: C18_22  and  O3_23
REMARK    9  A    between atoms: C26_33  and  O5_34
ROOT
HETATM    1  C10 UNL     1      41.054 -22.725  27.443  1.00  0.00     0.108 C
HETATM    2  C11 UNL     1      40.568 -24.000  26.845  1.00  0.00     0.013 C
HETATM    3  C12 UNL     1      41.593 -24.659  25.940  1.00  0.00     0.012 C
HETATM    4  C13 UNL     1      39.315 -23.633  26.094  1.00  0.00     0.025 C
HETATM    5  C14 UNL     1      38.228 -24.678  26.310  1.00  0.00     0.123 C
HETATM    6  C15 UNL     1      37.360 -24.612  25.082  1.00  0.00     0.037 C
HETATM    7  C16 UNL     1      36.307 -23.538  25.237  1.00  0.00    -0.001 C
HETATM    8  C17 UNL     1      35.266 -23.801  24.201  1.00  0.00     0.037 C
HETATM    9  C18 UNL     1      35.711 -23.332  22.852  1.00  0.00     0.118 C
HETATM   10  C19 UNL     1      36.319 -21.976  22.809  1.00  0.00     0.032 C
HETATM   11  C20 UNL     1      37.473 -21.855  23.825  1.00  0.00     0.012 C
HETATM   12  C21 UNL     1      36.899 -22.145  25.152  1.00  0.00    -0.036 C
HETATM   13  C22 UNL     1      35.655 -21.219  25.235  1.00  0.00     0.016 C
HETATM   14  C23 UNL     1      37.658 -21.741  26.373  1.00  0.00     0.006 C
HETATM   15  C24 UNL     1      37.768 -20.221  26.436  1.00  0.00     0.087 C
HETATM   16  C25 UNL     1      38.699 -19.827  27.506  1.00  0.00     0.156 C
HETATM   17  O4  UNL     1      38.399 -19.030  28.408  1.00  0.00    -0.295 OA
HETATM   18  C26 UNL     1      40.101 -20.364  27.591  1.00  0.00     0.198 C
HETATM   19  C27 UNL     1      40.170 -21.635  26.879  1.00  0.00     0.015 C
HETATM   20  C28 UNL     1      40.758 -21.325  25.499  1.00  0.00     0.021 C
HETATM   21  C29 UNL     1      38.877 -22.372  26.800  1.00  0.00     0.011 C
ENDROOT
BRANCH   1  22
HETATM   22  N1  UNL     1      41.394 -22.782  28.809  1.00  0.00    -0.322 N
HETATM   23  C6  UNL     1      42.805 -22.555  29.186  1.00  0.00     0.224 C
HETATM   24  O1  UNL     1      43.119 -22.796  30.363  1.00  0.00    -0.273 OA
BRANCH  23  25
HETATM   25  C5  UNL     1      43.809 -22.073  28.245  1.00  0.00     0.103 C
BRANCH  25  26
HETATM   26  C4  UNL     1      43.947 -20.555  28.286  1.00  0.00     0.009 C
BRANCH  26  27
HETATM   27  C3  UNL     1      45.357 -20.210  28.761  1.00  0.00     0.000 C
BRANCH  27  28
HETATM   28  C2  UNL     1      45.382 -19.831  30.204  1.00  0.00    -0.005 C
HETATM   29  C1  UNL     1      46.558 -20.568  30.840  1.00  0.00     0.005 C
ENDBRANCH  27  28
ENDBRANCH  26  27
ENDBRANCH  25  26
ENDBRANCH  23  25
BRANCH  22  30
HETATM   30  C7  UNL     1      40.600 -23.257  29.877  1.00  0.00     0.090 C
HETATM   31  C8  UNL     1      40.015 -24.571  30.024  1.00  0.00    -0.014 C
HETATM   32  C9  UNL     1      40.763 -25.820  30.163  1.00  0.00     0.037 C
ENDBRANCH  22  30
ENDBRANCH   1  22
BRANCH  18  33
HETATM   33  O5  UNL     1      40.863 -19.354  26.920  1.00  0.00    -0.387 OA
ATOM     34  H5  UNL     1      41.243 -18.868  27.643  1.00  0.00     0.210 HD
ENDBRANCH  18  33
BRANCH   5  35
HETATM   35  O2  UNL     1      38.771 -25.953  26.500  1.00  0.00    -0.395 OA
ATOM     36  H2  UNL     1      39.362 -26.188  25.794  1.00  0.00     0.210 HD
ENDBRANCH   5  35
BRANCH   9  37
HETATM   37  O3  UNL     1      34.708 -23.392  21.897  1.00  0.00    -0.396 OA
ATOM     38  H3  UNL     1      34.460 -24.281  21.672  1.00  0.00     0.210 HD
ENDBRANCH   9  37
TORSDOF 9
ENDMDL