MODEL 2
REMARK VINA RESULT: -7.920167063      7.462      8.422
REMARK  10 active torsions:
REMARK  status: ('A' for Active; 'I' for Inactive)
REMARK    1  A    between atoms: C2_2  and  C3_3
REMARK    2  A    between atoms: C2_2  and  C9_13
REMARK       I    between atoms: C3_3  and  N1_5
REMARK    3  A    between atoms: N1_5  and  C4_7
REMARK    4  A    between atoms: C4_7  and  C5_8
REMARK    5  A    between atoms: C5_8  and  O2_9
REMARK    6  A    between atoms: O2_9  and  C6_10
REMARK    7  A    between atoms: C6_10  and  C7_11
REMARK    8  A    between atoms: C19_23  and  C20_24
REMARK    9  A    between atoms: C20_24  and  N2_25
REMARK   10  A    between atoms: C21_29  and  O3_30
ROOT
HETATM    1  C9  UNL     1      37.725 -17.420  25.210  1.00  0.00     0.032 C
HETATM    2  C10 UNL     1      37.517 -18.251  26.492  1.00  0.00     0.011 C
HETATM    3  C11 UNL     1      38.523 -19.362  26.282  1.00  0.00     0.006 C
HETATM    4  C12 UNL     1      38.542 -19.631  24.784  1.00  0.00    -0.001 C
HETATM    5  C13 UNL     1      37.999 -20.993  24.468  1.00  0.00    -0.005 C
HETATM    6  C14 UNL     1      37.072 -21.562  25.494  1.00  0.00     0.006 C
HETATM    7  C15 UNL     1      36.191 -22.665  24.922  1.00  0.00     0.006 C
HETATM    8  C16 UNL     1      36.903 -23.340  23.762  1.00  0.00     0.002 C
HETATM    9  C17 UNL     1      36.363 -24.659  23.467  1.00  0.00     0.022 C
HETATM   10  C18 UNL     1      35.282 -25.205  24.348  1.00  0.00     0.018 C
HETATM   11  C19 UNL     1      34.702 -26.375  23.539  1.00  0.00     0.045 C
HETATM   12  C21 UNL     1      35.296 -26.237  22.135  1.00  0.00     0.153 C
HETATM   13  C22 UNL     1      35.709 -24.804  22.136  1.00  0.00    -0.050 C
HETATM   14  C23 UNL     1      35.597 -23.801  21.296  1.00  0.00    -0.020 C
HETATM   15  C24 UNL     1      36.085 -22.424  21.536  1.00  0.00     0.037 C
HETATM   16  C25 UNL     1      37.109 -22.413  22.602  1.00  0.00    -0.033 C
HETATM   17  C26 UNL     1      38.399 -22.921  21.912  1.00  0.00     0.016 C
HETATM   18  C27 UNL     1      37.402 -20.998  23.050  1.00  0.00    -0.001 C
HETATM   19  C28 UNL     1      36.254 -20.049  22.951  1.00  0.00     0.006 C
HETATM   20  C29 UNL     1      36.360 -18.868  23.868  1.00  0.00     0.010 C
HETATM   21  C30 UNL     1      37.829 -18.482  24.170  1.00  0.00    -0.032 C
HETATM   22  C31 UNL     1      38.359 -18.012  22.842  1.00  0.00     0.016 C
ENDROOT
BRANCH   1  23
HETATM   23  C2  UNL     1      38.858 -16.568  25.483  1.00  0.00     0.005 C
HETATM   24  C1  UNL     1      40.063 -16.569  24.976  1.00  0.00     0.025 C
BRANCH  23  25
HETATM   25  C3  UNL     1      38.607 -15.481  26.471  1.00  0.00     0.247 C
HETATM   26  O1  UNL     1      39.426 -15.344  27.434  1.00  0.00    -0.268 OA
HETATM   27  N1  UNL     1      37.525 -14.595  26.400  1.00  0.00    -0.355 N
ATOM     28  H1  UNL     1      36.843 -14.661  25.644  1.00  0.00     0.162 HD
BRANCH  27  29
HETATM   29  C4  UNL     1      37.394 -13.555  27.453  1.00  0.00     0.149 C
BRANCH  29  30
HETATM   30  C5  UNL     1      35.992 -13.471  27.943  1.00  0.00     0.187 C
BRANCH  30  31
HETATM   31  O2  UNL     1      35.722 -14.085  29.066  1.00  0.00    -0.390 OA
BRANCH  31  32
HETATM   32  C6  UNL     1      35.352 -15.316  29.332  1.00  0.00     0.167 C
BRANCH  32  33
HETATM   33  C7  UNL     1      36.262 -16.482  29.175  1.00  0.00     0.022 C
HETATM   34  C8  UNL     1      37.522 -16.265  29.981  1.00  0.00     0.007 C
ENDBRANCH  32  33
ENDBRANCH  31  32
ENDBRANCH  30  31
ENDBRANCH  29  30
ENDBRANCH  27  29
ENDBRANCH  23  25
ENDBRANCH   1  23
BRANCH  11  35
HETATM   35  C20 UNL     1      35.035 -27.691  24.174  1.00  0.00     0.237 C
BRANCH  35  36
HETATM   36  N2  UNL     1      34.133 -28.749  23.813  1.00  0.00    -0.079 N
ATOM     37  H23 UNL     1      33.191 -28.386  23.666  1.00  0.00     0.274 HD
ATOM     38  H22 UNL     1      34.334 -29.088  22.872  1.00  0.00     0.274 HD
ATOM     39  H21 UNL     1      34.121 -29.521  24.480  1.00  0.00     0.274 HD
ENDBRANCH  35  36
ENDBRANCH  11  35
BRANCH  12  40
HETATM   40  O3  UNL     1      36.393 -27.048  21.974  1.00  0.00    -0.391 OA
ATOM     41  H3  UNL     1      36.145 -27.906  21.648  1.00  0.00     0.210 HD
ENDBRANCH  12  40
TORSDOF 10
ENDMDL