MODEL 3
REMARK VINA RESULT: -7.350883607      2.833     10.294
REMARK  11 active torsions:
REMARK  status: ('A' for Active; 'I' for Inactive)
REMARK    1  A    between atoms: C2_2  and  C3_3
REMARK    2  A    between atoms: C3_3  and  N1_4
REMARK    3  A    between atoms: N1_4  and  C5_6
REMARK    4  A    between atoms: C5_6  and  C6_7
REMARK    5  A    between atoms: C6_7  and  C7_8
REMARK    6  A    between atoms: C8_9  and  C9_10
REMARK    7  A    between atoms: C20_21  and  C21_22
REMARK    8  A    between atoms: C21_22  and  C23_24
REMARK    9  A    between atoms: C23_24  and  C24_25
REMARK   10  A    between atoms: C24_25  and  C25_26
REMARK   11  A    between atoms: C30_34  and  O3_35
ROOT
HETATM    1  C9  UNL     1      38.529 -19.248  26.520  1.00  0.00     0.094 C
HETATM    2  C10 UNL     1      37.682 -19.016  25.310  1.00  0.00     0.025 C
HETATM    3  C11 UNL     1      37.528 -20.196  24.408  1.00  0.00    -0.005 C
HETATM    4  C12 UNL     1      36.214 -20.024  23.660  1.00  0.00     0.006 C
HETATM    5  C13 UNL     1      35.961 -21.122  22.680  1.00  0.00     0.008 C
HETATM    6  C14 UNL     1      36.811 -22.327  22.930  1.00  0.00     0.020 C
HETATM    7  C15 UNL     1      36.963 -22.642  24.384  1.00  0.00     0.001 C
HETATM    8  C16 UNL     1      35.611 -23.015  24.930  1.00  0.00     0.007 C
HETATM    9  C17 UNL     1      35.267 -24.362  24.268  1.00  0.00     0.015 C
HETATM   10  C18 UNL     1      35.167 -24.244  22.790  1.00  0.00     0.009 C
HETATM   11  C19 UNL     1      33.791 -23.945  22.243  1.00  0.00     0.020 C
HETATM   12  C20 UNL     1      35.828 -25.338  21.969  1.00  0.00     0.136 C
HETATM   13  O2  UNL     1      37.042 -24.642  22.174  1.00  0.00    -0.378 OA
HETATM   14  C26 UNL     1      36.270 -23.481  22.141  1.00  0.00     0.137 C
HETATM   15  C27 UNL     1      37.641 -21.525  25.087  1.00  0.00    -0.034 C
HETATM   16  C28 UNL     1      39.139 -21.865  25.129  1.00  0.00     0.016 C
HETATM   17  C29 UNL     1      37.175 -21.373  26.520  1.00  0.00     0.042 C
HETATM   18  C30 UNL     1      37.994 -20.405  27.298  1.00  0.00     0.134 C
ENDROOT
BRANCH   1  19
HETATM   19  C8  UNL     1      38.450 -18.011  27.335  1.00  0.00    -0.099 C
HETATM   20  C7  UNL     1      38.365 -17.012  27.991  1.00  0.00    -0.104 C
BRANCH  20  21
HETATM   21  C6  UNL     1      38.247 -15.765  28.783  1.00  0.00     0.113 C
BRANCH  21  22
HETATM   22  C5  UNL     1      37.886 -14.682  27.811  1.00  0.00     0.128 C
BRANCH  22  23
HETATM   23  N1  UNL     1      36.756 -13.960  28.274  1.00  0.00    -0.416 N
HETATM   24  C4  UNL     1      36.139 -13.068  27.349  1.00  0.00     0.143 C
BRANCH  23  25
HETATM   25  C3  UNL     1      35.840 -14.683  29.102  1.00  0.00     0.116 C
BRANCH  25  26
HETATM   26  C2  UNL     1      34.679 -13.760  29.494  1.00  0.00     0.015 C
HETATM   27  C1  UNL     1      33.612 -14.571  30.226  1.00  0.00     0.006 C
ENDBRANCH  25  26
ENDBRANCH  23  25
ENDBRANCH  22  23
ENDBRANCH  21  22
ENDBRANCH  20  21
ENDBRANCH   1  19
BRANCH  18  28
HETATM   28  O3  UNL     1      37.153 -19.871  28.304  1.00  0.00    -0.394 OA
ATOM     29  H3  UNL     1      37.504 -20.159  29.138  1.00  0.00     0.210 HD
ENDBRANCH  18  28
BRANCH  12  30
HETATM   30  C21 UNL     1      35.798 -26.702  22.544  1.00  0.00     0.012 C
HETATM   31  C22 UNL     1      35.339 -27.735  21.551  1.00  0.00     0.012 C
BRANCH  30  32
HETATM   32  C23 UNL     1      37.179 -27.094  23.002  1.00  0.00     0.015 C
BRANCH  32  33
HETATM   33  C24 UNL     1      37.302 -27.313  24.474  1.00  0.00     0.100 C
BRANCH  33  34
HETATM   34  C25 UNL     1      38.439 -26.537  25.029  1.00  0.00     0.231 C
HETATM   35  N2  UNL     1      38.198 -25.559  26.019  1.00  0.00    -0.062 NA
HETATM   36  O1  UNL     1      39.605 -26.743  24.629  1.00  0.00    -0.277 OA
ENDBRANCH  33  34
ENDBRANCH  32  33
ENDBRANCH  30  32
ENDBRANCH  12  30
TORSDOF 11
ENDMDL