MODEL 5
REMARK VINA RESULT: -6.784901298      4.268      8.006
REMARK  10 active torsions:
REMARK  status: ('A' for Active; 'I' for Inactive)
REMARK    1  A    between atoms: C3_3  and  C4_4
REMARK    2  A    between atoms: C4_4  and  O1_5
REMARK    3  A    between atoms: C4_4  and  C5_7
REMARK    4  A    between atoms: C4_4  and  S1_10
REMARK    5  A    between atoms: S1_10  and  C6_13
REMARK    6  A    between atoms: C7_14  and  C8_15
REMARK    7  A    between atoms: C8_15  and  C9_16
REMARK    8  A    between atoms: C12_19  and  C13_20
REMARK       I    between atoms: C13_20  and  N1_22
REMARK    9  A    between atoms: N1_22  and  C14_24
REMARK   10  A    between atoms: C20_30  and  C21_31
ROOT
HETATM    1  C1  UNL     1      42.603 -20.245  26.240  1.00  0.00     0.097 C
HETATM    2  C2  UNL     1      42.964 -21.057  27.078  1.00  0.00    -0.183 C
HETATM    3  C3  UNL     1      43.379 -22.055  28.085  1.00  0.00     0.146 C
ENDROOT
BRANCH   3   4
HETATM    4  C4  UNL     1      42.920 -21.661  29.471  1.00  0.00     0.264 C
BRANCH   4   5
HETATM    5  O1  UNL     1      42.937 -20.273  29.440  1.00  0.00    -0.365 OA
ATOM      6  H1  UNL     1      43.803 -20.052  29.765  1.00  0.00     0.212 HD
ENDBRANCH   4   5
BRANCH   4   7
HETATM    7  C5  UNL     1      44.004 -22.142  30.399  1.00  0.00     0.226 C
HETATM    8  O2  UNL     1      44.840 -22.941  29.901  1.00  0.00    -0.645 OA
HETATM    9  O3  UNL     1      44.116 -21.764  31.708  1.00  0.00    -0.645 OA
ENDBRANCH   4   7
BRANCH   4  10
HETATM   10  S1  UNL     1      41.381 -22.410  29.914  1.00  0.00     0.221 S
HETATM   11  O4  UNL     1      40.794 -21.804  31.170  1.00  0.00    -0.219 OA
HETATM   12  O5  UNL     1      41.898 -23.730  30.548  1.00  0.00    -0.219 OA
BRANCH  10  13
HETATM   13  C6  UNL     1      40.330 -22.684  28.628  1.00  0.00     0.084 A
HETATM   14  C7  UNL     1      40.213 -23.879  27.981  1.00  0.00    -0.016 A
HETATM   15  C11 UNL     1      39.385 -23.944  26.829  1.00  0.00     0.030 A
HETATM   16  C12 UNL     1      38.688 -22.859  26.336  1.00  0.00     0.043 A
HETATM   17  C18 UNL     1      38.795 -21.661  26.982  1.00  0.00    -0.008 A
HETATM   18  C19 UNL     1      38.100 -20.552  26.548  1.00  0.00     0.021 A
HETATM   19  C26 UNL     1      39.612 -21.594  28.120  1.00  0.00    -0.002 A
HETATM   20  C20 UNL     1      38.161 -19.335  27.203  1.00  0.00    -0.052 A
HETATM   21  C23 UNL     1      38.937 -19.254  28.310  1.00  0.00    -0.055 A
HETATM   22  C24 UNL     1      39.054 -18.001  29.081  1.00  0.00     0.049 C
HETATM   23  C25 UNL     1      39.647 -20.382  28.749  1.00  0.00     0.021 A
BRANCH  14  24
HETATM   24  C8  UNL     1      40.782 -25.123  28.443  1.00  0.00    -0.014 C
BRANCH  24  25
HETATM   25  C9  UNL     1      40.544 -26.420  27.816  1.00  0.00     0.023 C
HETATM   26  C10 UNL     1      40.807 -27.485  28.897  1.00  0.00     0.009 C
ENDBRANCH  24  25
ENDBRANCH  14  24
BRANCH  16  27
HETATM   27  C13 UNL     1      37.813 -23.074  25.214  1.00  0.00     0.253 C
HETATM   28  O6  UNL     1      38.241 -22.594  24.101  1.00  0.00    -0.268 OA
HETATM   29  N1  UNL     1      36.582 -23.730  25.139  1.00  0.00    -0.349 N
ATOM     30  H1  UNL     1      36.202 -24.143  25.991  1.00  0.00     0.163 HD
BRANCH  29  31
HETATM   31  C14 UNL     1      35.814 -23.856  23.911  1.00  0.00     0.022 C
HETATM   32  C15 UNL     1      34.704 -24.847  24.152  1.00  0.00     0.037 C
HETATM   33  C16 UNL     1      36.714 -24.341  22.820  1.00  0.00     0.037 C
HETATM   34  C17 UNL     1      35.205 -22.522  23.517  1.00  0.00     0.037 C
ENDBRANCH  29  31
ENDBRANCH  16  27
BRANCH  20  35
HETATM   35  C21 UNL     1      37.391 -18.189  26.666  1.00  0.00     0.034 C
HETATM   36  C22 UNL     1      37.135 -18.263  25.188  1.00  0.00     0.010 C
ENDBRANCH  20  35
ENDBRANCH  10  13
ENDBRANCH   4  10
ENDBRANCH   3   4
TORSDOF 10
ENDMDL