MODEL 1
REMARK VINA RESULT: -7.056451631      0.000      0.000
REMARK  9 active torsions:
REMARK  status: ('A' for Active; 'I' for Inactive)
REMARK    1  A    between atoms: C2_2  and  C4_4
REMARK    2  A    between atoms: C4_4  and  N1_5
REMARK    3  A    between atoms: C4_4  and  C18_27
REMARK       I    between atoms: N1_5  and  C5_7
REMARK       I    between atoms: C5_7  and  N3_11
REMARK    4  A    between atoms: C10_16  and  C11_17
REMARK    5  A    between atoms: C11_17  and  O1_18
REMARK    6  A    between atoms: O1_18  and  C12_19
REMARK    7  A    between atoms: C15_22  and  O2_23
REMARK    8  A    between atoms: C18_27  and  C19_28
REMARK    9  A    between atoms: C18_27  and  C26_37
REMARK       I    between atoms: C19_28  and  N4_30
ROOT
HETATM    1  N1  UNL     1      39.892 -22.985  27.531  1.00  0.00    -0.221 N
ATOM      2  H1  UNL     1      40.488 -23.509  26.890  1.00  0.00     0.178 HD
HETATM    3  C5  UNL     1      40.207 -23.114  28.876  1.00  0.00     0.670 C
HETATM    4  N2  UNL     1      39.898 -22.338  29.850  1.00  0.00    -0.235 N
ATOM      5  H21 UNL     1      40.130 -22.433  30.839  1.00  0.00     0.174 HD
ATOM      6  H22 UNL     1      39.337 -21.547  29.533  1.00  0.00     0.174 HD
HETATM    7  N3  UNL     1      41.008 -24.244  29.329  1.00  0.00    -0.212 N
HETATM    8  C6  UNL     1      40.354 -25.353  29.986  1.00  0.00     0.141 C
HETATM    9  C7  UNL     1      40.656 -26.595  29.181  1.00  0.00     0.020 C
HETATM   10  C8  UNL     1      42.159 -26.774  29.191  1.00  0.00     0.004 C
HETATM   11  C9  UNL     1      42.867 -25.582  28.605  1.00  0.00     0.028 C
HETATM   12  C10 UNL     1      42.420 -24.275  29.152  1.00  0.00     0.126 C
ENDROOT
BRANCH   1  13
HETATM   13  C4  UNL     1      38.831 -22.209  26.904  1.00  0.00     0.116 C
BRANCH  13  14
HETATM   14  C2  UNL     1      37.950 -23.090  26.065  1.00  0.00     0.002 C
HETATM   15  C1  UNL     1      38.546 -24.431  25.733  1.00  0.00     0.011 C
HETATM   16  C3  UNL     1      37.739 -22.412  24.679  1.00  0.00     0.011 C
ENDBRANCH  13  14
BRANCH  13  17
HETATM   17  C18 UNL     1      39.336 -20.937  26.329  1.00  0.00     0.105 C
BRANCH  17  18
HETATM   18  C19 UNL     1      38.982 -19.865  27.321  1.00  0.00     0.230 C
HETATM   19  O3  UNL     1      39.655 -19.876  28.420  1.00  0.00    -0.273 OA
HETATM   20  N4  UNL     1      38.016 -18.847  27.232  1.00  0.00    -0.331 N
HETATM   21  C20 UNL     1      37.914 -18.035  28.409  1.00  0.00     0.068 C
HETATM   22  C25 UNL     1      37.335 -18.849  25.938  1.00  0.00     0.142 C
HETATM   23  C21 UNL     1      38.588 -16.720  28.559  1.00  0.00     0.056 C
HETATM   24  C22 UNL     1      38.242 -15.736  27.383  1.00  0.00     0.085 C
HETATM   25  C23 UNL     1      37.776 -16.554  26.342  1.00  0.00    -0.181 C
HETATM   26  C24 UNL     1      37.292 -17.392  25.331  1.00  0.00     0.100 C
ENDBRANCH  17  18
BRANCH  17  27
HETATM   27  C26 UNL     1      40.792 -20.781  26.048  1.00  0.00    -0.008 C
HETATM   28  C27 UNL     1      40.914 -19.350  25.438  1.00  0.00     0.010 C
HETATM   29  C28 UNL     1      41.423 -21.635  25.010  1.00  0.00     0.010 C
ENDBRANCH  17  27
ENDBRANCH  13  17
ENDBRANCH   1  13
BRANCH  12  30
HETATM   30  C11 UNL     1      43.154 -23.933  30.456  1.00  0.00     0.194 C
BRANCH  30  31
HETATM   31  O1  UNL     1      43.081 -22.563  30.702  1.00  0.00    -0.384 OA
BRANCH  31  32
HETATM   32  C12 UNL     1      43.894 -21.825  29.882  1.00  0.00     0.121 C
HETATM   33  C13 UNL     1      43.117 -20.911  28.985  1.00  0.00     0.034 C
HETATM   34  C14 UNL     1      44.002 -20.489  27.807  1.00  0.00     0.034 C
HETATM   35  C15 UNL     1      45.418 -20.392  28.272  1.00  0.00     0.118 C
HETATM   36  C16 UNL     1      45.544 -20.006  29.731  1.00  0.00     0.034 C
HETATM   37  C17 UNL     1      44.929 -21.022  30.637  1.00  0.00     0.034 C
BRANCH  35  38
HETATM   38  O2  UNL     1      46.102 -19.421  27.525  1.00  0.00    -0.396 OA
ATOM     39  H2  UNL     1      46.774 -19.016  28.059  1.00  0.00     0.210 HD
ENDBRANCH  35  38
ENDBRANCH  31  32
ENDBRANCH  30  31
ENDBRANCH  12  30
TORSDOF 9
ENDMDL