MODEL 5
REMARK VINA RESULT: -8.014061543      3.287      8.647
REMARK  11 active torsions:
REMARK  status: ('A' for Active; 'I' for Inactive)
REMARK    1  A    between atoms: C2_2  and  C3_3
REMARK    2  A    between atoms: C3_3  and  C4_4
REMARK    3  A    between atoms: C5_5  and  O1_6
REMARK    4  A    between atoms: O1_6  and  C6_7
REMARK    5  A    between atoms: C6_7  and  C7_8
REMARK    6  A    between atoms: C7_8  and  C8_9
REMARK    7  A    between atoms: C8_9  and  N1_10
REMARK    8  A    between atoms: C14_16  and  C15_17
REMARK       I    between atoms: C15_17  and  N2_19
REMARK    9  A    between atoms: N2_19  and  C16_21
REMARK   10  A    between atoms: C22_33  and  N5_34
REMARK   11  A    between atoms: N5_34  and  C23_36
ROOT
HETATM    1  C4  UNL     1      -1.422   8.689 -21.984  1.00  0.00     0.004 A
HETATM    2  C5  UNL     1      -0.636   7.540 -21.793  1.00  0.00     0.093 A
HETATM    3  C14 UNL     1      -0.411   7.105 -20.515  1.00  0.00     0.067 A
HETATM    4  C19 UNL     1      -0.960   7.783 -19.414  1.00  0.00     0.035 A
HETATM    5  C20 UNL     1      -1.732   8.904 -19.624  1.00  0.00     0.009 A
HETATM    6  C21 UNL     1      -2.288   9.594 -18.567  1.00  0.00     0.120 A
HETATM    7  N4  UNL     1      -3.027  10.667 -18.809  1.00  0.00    -0.201 N
ATOM      8  H4  UNL     1      -3.438  11.173 -18.024  1.00  0.00     0.183 HD
HETATM    9  C22 UNL     1      -3.253  11.112 -20.072  1.00  0.00     0.684 A
HETATM   10  N7  UNL     1      -2.716  10.446 -21.083  1.00  0.00    -0.190 N
ATOM     11  H7  UNL     1      -2.883  10.777 -22.033  1.00  0.00     0.184 HD
HETATM   12  C27 UNL     1      -1.953   9.343 -20.900  1.00  0.00     0.070 A
ENDROOT
BRANCH   3  13
HETATM   13  C15 UNL     1       0.504   6.024 -20.180  1.00  0.00     0.260 C
HETATM   14  O2  UNL     1       0.124   4.827 -20.384  1.00  0.00    -0.267 OA
HETATM   15  N2  UNL     1       1.787   6.280 -19.629  1.00  0.00    -0.303 N
ATOM     16  H2  UNL     1       2.578   6.587 -20.195  1.00  0.00     0.171 HD
BRANCH  15  17
HETATM   17  C16 UNL     1       1.873   6.087 -18.328  1.00  0.00     0.152 A
HETATM   18  N3  UNL     1       1.265   5.142 -17.610  1.00  0.00    -0.344 N
HETATM   19  C17 UNL     1       1.466   5.104 -16.326  1.00  0.00     0.121 A
ATOM     20  H3  UNL     1       0.654   4.461 -18.061  1.00  0.00     0.167 HD
HETATM   21  C18 UNL     1       2.298   6.047 -15.781  1.00  0.00     0.093 A
HETATM   22 CL1  UNL     1       2.756   6.244 -14.079  1.00  0.00    -0.075 Cl
HETATM   23  S1  UNL     1       2.757   6.952 -17.153  1.00  0.00    -0.040 SA
ENDBRANCH  15  17
ENDBRANCH   3  13
BRANCH   2  24
HETATM   24  O1  UNL     1      -0.107   6.858 -22.873  1.00  0.00    -0.349 OA
BRANCH  24  25
HETATM   25  C6  UNL     1      -0.653   5.779 -23.550  1.00  0.00     0.177 C
BRANCH  25  26
HETATM   26  C7  UNL     1       0.432   4.900 -24.197  1.00  0.00     0.057 C
BRANCH  26  27
HETATM   27  C8  UNL     1       0.177   3.520 -23.714  1.00  0.00     0.274 C
BRANCH  27  28
HETATM   28  N1  UNL     1       1.310   2.810 -23.194  1.00  0.00     0.088 N
HETATM   29  C9  UNL     1       0.953   1.961 -22.073  1.00  0.00     0.272 C
HETATM   30  C10 UNL     1       2.053   1.038 -21.666  1.00  0.00     0.030 C
HETATM   31  C11 UNL     1       3.265   1.877 -21.313  1.00  0.00     0.003 C
HETATM   32  C12 UNL     1       3.039   3.336 -21.598  1.00  0.00     0.030 C
HETATM   33  C13 UNL     1       2.471   3.585 -22.983  1.00  0.00     0.272 C
ENDBRANCH  27  28
ENDBRANCH  26  27
ENDBRANCH  25  26
ENDBRANCH  24  25
ENDBRANCH   2  24
BRANCH   1  34
HETATM   34  C3  UNL     1      -1.560   9.136 -23.375  1.00  0.00     0.043 C
BRANCH  34  35
HETATM   35  C2  UNL     1      -0.352  10.070 -23.628  1.00  0.00     0.000 C
HETATM   36  C1  UNL     1       0.294   9.757 -24.927  1.00  0.00     0.005 C
ENDBRANCH  34  35
ENDBRANCH   1  34
BRANCH   9  37
HETATM   37  N5  UNL     1      -3.948  12.142 -20.204  1.00  0.00    -0.170 N
ATOM     38  H5  UNL     1      -3.734  12.911 -19.569  1.00  0.00     0.186 HD
BRANCH  37  39
HETATM   39  C23 UNL     1      -5.009  12.376 -21.141  1.00  0.00     0.164 A
HETATM   40  N6  UNL     1      -6.207  11.787 -21.152  1.00  0.00    -0.340 N
HETATM   41  C24 UNL     1      -7.064  12.096 -22.062  1.00  0.00     0.014 A
ATOM     42  H6  UNL     1      -6.444  11.094 -20.442  1.00  0.00     0.168 HD
HETATM   43  C25 UNL     1      -8.442  11.458 -22.131  1.00  0.00     0.068 C
HETATM   44  C26 UNL     1      -6.700  13.035 -22.999  1.00  0.00     0.077 A
HETATM   45  S2  UNL     1      -5.114  13.414 -22.492  1.00  0.00    -0.063 SA
ENDBRANCH  37  39
ENDBRANCH   9  37
TORSDOF 11
ENDMDL