MODEL 1
REMARK VINA RESULT: -6.818997699      0.000      0.000
REMARK  14 active torsions:
REMARK  status: ('A' for Active; 'I' for Inactive)
REMARK    1  A    between atoms: C3_3  and  C4_4
REMARK    2  A    between atoms: C4_4  and  C7_7
REMARK    3  A    between atoms: C8_8  and  C9_9
REMARK    4  A    between atoms: N1_14  and  C12_15
REMARK    5  A    between atoms: C12_15  and  C13_16
REMARK    6  A    between atoms: C13_16  and  C14_17
REMARK    7  A    between atoms: C14_17  and  C15_18
REMARK    8  A    between atoms: C15_18  and  C16_19
REMARK    9  A    between atoms: C16_19  and  O3_21
REMARK   10  A    between atoms: O3_21  and  C17_22
REMARK   11  A    between atoms: C17_22  and  C19_24
REMARK   12  A    between atoms: C22_27  and  C23_28
REMARK   13  A    between atoms: C26_35  and  O8_36
REMARK   14  A    between atoms: C27_38  and  C28_39
ROOT
HETATM    1  C1  UNL     1       3.294   6.833 -20.549  1.00  0.00     0.112 C
HETATM    2  C2  UNL     1       1.965   6.855 -21.199  1.00  0.00    -0.110 C
HETATM    3  C3  UNL     1       0.879   6.854 -21.740  1.00  0.00    -0.093 C
ENDROOT
BRANCH   3   4
HETATM    4  C4  UNL     1      -0.383   6.916 -22.408  1.00  0.00     0.048 C
HETATM    5  C5  UNL     1      -0.241   6.487 -23.878  1.00  0.00     0.034 C
HETATM    6  C6  UNL     1      -1.333   5.830 -21.801  1.00  0.00     0.034 C
BRANCH   4   7
HETATM    7  C7  UNL     1      -1.127   8.154 -22.284  1.00  0.00     0.019 A
HETATM    8  C8  UNL     1      -1.650   8.562 -21.030  1.00  0.00     0.089 A
HETATM    9  O7  UNL     1      -2.258   9.699 -21.223  1.00  0.00    -0.286 OA
HETATM   10  C26 UNL     1      -2.190  10.073 -22.461  1.00  0.00     0.203 A
HETATM   11  C27 UNL     1      -1.472   9.116 -23.198  1.00  0.00     0.087 A
BRANCH   8  12
HETATM   12  C9  UNL     1      -1.554   7.880 -19.755  1.00  0.00     0.062 C
HETATM   13  C10 UNL     1      -0.682   8.229 -18.841  1.00  0.00     0.081 C
HETATM   14  S1  UNL     1       0.544   9.564 -18.940  1.00  0.00    -0.023 SA
HETATM   15  C25 UNL     1      -0.432   7.682 -17.519  1.00  0.00     0.268 C
HETATM   16  C11 UNL     1       1.681   8.767 -17.766  1.00  0.00     0.293 C
HETATM   17  O1  UNL     1       2.906   8.943 -17.755  1.00  0.00    -0.259 OA
HETATM   18  N1  UNL     1       0.820   7.977 -16.968  1.00  0.00    -0.274 N
HETATM   19  O6  UNL     1      -1.354   6.979 -16.950  1.00  0.00    -0.266 OA
BRANCH  18  20
HETATM   20  C12 UNL     1       1.226   7.470 -15.646  1.00  0.00     0.136 C
BRANCH  20  21
HETATM   21  C13 UNL     1       2.193   6.352 -15.697  1.00  0.00     0.021 C
BRANCH  21  22
HETATM   22  C14 UNL     1       1.784   5.111 -14.969  1.00  0.00     0.011 C
BRANCH  22  23
HETATM   23  C15 UNL     1       3.021   4.285 -14.646  1.00  0.00     0.111 C
BRANCH  23  24
HETATM   24  C16 UNL     1       3.092   3.091 -15.528  1.00  0.00     0.259 C
HETATM   25  O2  UNL     1       2.400   2.081 -15.261  1.00  0.00    -0.265 OA
BRANCH  24  26
HETATM   26  O3  UNL     1       3.893   3.036 -16.648  1.00  0.00    -0.316 OA
BRANCH  26  27
HETATM   27  C17 UNL     1       3.731   3.787 -17.816  1.00  0.00     0.132 C
HETATM   28  C18 UNL     1       5.048   4.139 -18.470  1.00  0.00     0.040 C
BRANCH  27  29
HETATM   29  C19 UNL     1       2.807   3.061 -18.736  1.00  0.00     0.016 C
HETATM   30  C20 UNL     1       1.534   3.896 -18.906  1.00  0.00     0.008 C
HETATM   31  C21 UNL     1       0.932   3.436 -20.208  1.00  0.00     0.016 C
HETATM   32  C22 UNL     1       2.069   2.883 -21.025  1.00  0.00     0.087 C
HETATM   33  C24 UNL     1       3.312   2.923 -20.154  1.00  0.00     0.022 C
BRANCH  32  34
HETATM   34  C23 UNL     1       1.738   1.468 -21.421  1.00  0.00     0.177 C
HETATM   35  O4  UNL     1       0.677   0.919 -21.072  1.00  0.00    -0.648 OA
HETATM   36  O5  UNL     1       2.698   0.813 -22.202  1.00  0.00    -0.648 OA
ENDBRANCH  32  34
ENDBRANCH  27  29
ENDBRANCH  26  27
ENDBRANCH  24  26
ENDBRANCH  23  24
ENDBRANCH  22  23
ENDBRANCH  21  22
ENDBRANCH  20  21
ENDBRANCH  18  20
ENDBRANCH   8  12
BRANCH  10  37
HETATM   37  O8  UNL     1      -2.720  11.222 -23.028  1.00  0.00    -0.340 OA
ATOM     38  H8  UNL     1      -2.434  12.118 -22.898  1.00  0.00     0.220 HD
ENDBRANCH  10  37
BRANCH  11  39
HETATM   39  C28 UNL     1      -1.218   9.198 -24.607  1.00  0.00    -0.044 C
HETATM   40  C29 UNL     1      -1.022   9.301 -25.779  1.00  0.00     0.010 C
HETATM   41 CL1  UNL     1      -0.748   9.449 -27.499  1.00  0.00    -0.023 Cl
ENDBRANCH  11  39
ENDBRANCH   4   7
ENDBRANCH   3   4
TORSDOF 14
ENDMDL