MODEL 1
REMARK VINA RESULT: -8.770485993      0.000      0.000
REMARK  10 active torsions:
REMARK  status: ('A' for Active; 'I' for Inactive)
REMARK    1  A    between atoms: C2_2  and  N1_3
REMARK    2  A    between atoms: N1_3  and  C4_5
REMARK    3  A    between atoms: C7_9  and  C8_10
REMARK    4  A    between atoms: C11_13  and  O1_14
REMARK    5  A    between atoms: C13_16  and  C14_17
REMARK    6  A    between atoms: C14_17  and  C15_18
REMARK    7  A    between atoms: C15_18  and  O2_19
REMARK    8  A    between atoms: O2_19  and  C16_20
REMARK    9  A    between atoms: C19_23  and  C20_24
REMARK   10  A    between atoms: C22_27  and  N3_28
ROOT
HETATM    1  C8  UNL     1      -0.760   8.207 -19.394  1.00  0.00     0.016 A
HETATM    2  C9  UNL     1      -0.410   8.101 -18.046  1.00  0.00    -0.014 A
HETATM    3  C10 UNL     1      -1.023   9.172 -17.190  1.00  0.00     0.052 C
HETATM    4  C11 UNL     1       0.213   7.038 -17.435  1.00  0.00     0.082 A
HETATM    5  C13 UNL     1       0.512   5.974 -18.221  1.00  0.00    -0.003 A
HETATM    6  C25 UNL     1       0.155   6.045 -19.612  1.00  0.00     0.043 A
HETATM    7  S2  UNL     1       0.341   4.956 -20.907  1.00  0.00    -0.074 SA
HETATM    8  C26 UNL     1      -0.370   5.897 -22.162  1.00  0.00     0.048 A
HETATM    9  C27 UNL     1      -0.556   5.518 -23.594  1.00  0.00     0.076 C
HETATM   10  N5  UNL     1      -0.711   6.994 -21.511  1.00  0.00    -0.352 N
ATOM     11  H5  UNL     1      -1.172   7.756 -22.009  1.00  0.00     0.166 HD
HETATM   12  C28 UNL     1      -0.461   7.111 -20.219  1.00  0.00     0.063 A
ENDROOT
BRANCH   5  13
HETATM   13  C14 UNL     1       1.195   4.722 -17.943  1.00  0.00     0.070 C
BRANCH  13  14
HETATM   14  C15 UNL     1       2.725   4.726 -17.902  1.00  0.00     0.180 C
BRANCH  14  15
HETATM   15  O2  UNL     1       3.157   3.479 -17.456  1.00  0.00    -0.348 OA
BRANCH  15  16
HETATM   16  C16 UNL     1       3.810   3.327 -16.228  1.00  0.00     0.107 A
HETATM   17  C17 UNL     1       5.139   3.476 -15.988  1.00  0.00     0.041 A
HETATM   18  C18 UNL     1       5.661   3.283 -14.697  1.00  0.00     0.017 A
HETATM   19  C19 UNL     1       4.828   2.935 -13.680  1.00  0.00    -0.006 A
HETATM   20  C23 UNL     1       3.478   2.781 -13.884  1.00  0.00     0.059 A
HETATM   21  C24 UNL     1       2.992   2.986 -15.150  1.00  0.00     0.150 A
HETATM   22  F1  UNL     1       1.667   2.832 -15.381  1.00  0.00    -0.203 F
BRANCH  19  23
HETATM   23  C20 UNL     1       5.331   2.807 -12.276  1.00  0.00     0.051 A
HETATM   24  C21 UNL     1       6.355   3.624 -11.848  1.00  0.00     0.083 A
HETATM   25  S1  UNL     1       6.478   3.187 -10.207  1.00  0.00    -0.064 SA
HETATM   26  C22 UNL     1       5.253   2.013 -10.155  1.00  0.00     0.142 A
HETATM   27  N4  UNL     1       4.793   2.007 -11.407  1.00  0.00    -0.336 N
ATOM     28  H4  UNL     1       4.031   1.385 -11.677  1.00  0.00     0.168 HD
BRANCH  26  29
HETATM   29  N3  UNL     1       4.841   1.224  -9.176  1.00  0.00    -0.380 N
ATOM     30  H32 UNL     1       3.870   1.075  -8.900  1.00  0.00     0.158 HD
ATOM     31  H31 UNL     1       5.353   0.598  -8.554  1.00  0.00     0.158 HD
ENDBRANCH  26  29
ENDBRANCH  19  23
ENDBRANCH  15  16
ENDBRANCH  14  15
ENDBRANCH  13  14
ENDBRANCH   5  13
BRANCH   4  32
HETATM   32  O1  UNL     1       0.469   7.110 -16.076  1.00  0.00    -0.355 OA
HETATM   33  C12 UNL     1       1.685   7.432 -15.477  1.00  0.00     0.210 C
ENDBRANCH   4  32
BRANCH   1  34
HETATM   34  C7  UNL     1      -1.055   9.586 -19.764  1.00  0.00     0.100 C
HETATM   35  N2  UNL     1      -2.123  10.154 -20.308  1.00  0.00    -0.389 N
HETATM   36  C6  UNL     1      -1.976  11.618 -20.202  1.00  0.00     0.124 C
HETATM   37  C29 UNL     1      -3.157   9.760 -21.067  1.00  0.00     0.124 C
HETATM   38  C5  UNL     1      -3.080  12.352 -20.872  1.00  0.00     0.055 C
HETATM   39  C4  UNL     1      -4.431  11.842 -20.422  1.00  0.00     0.225 C
HETATM   40  C30 UNL     1      -4.483  10.370 -20.548  1.00  0.00     0.055 C
BRANCH  39  41
HETATM   41  N1  UNL     1      -5.407  12.567 -21.242  1.00  0.00     0.088 N
HETATM   42  C3  UNL     1      -4.713  13.234 -22.328  1.00  0.00     0.310 C
BRANCH  41  43
HETATM   43  C2  UNL     1      -6.518  11.769 -21.636  1.00  0.00     0.268 C
HETATM   44  C1  UNL     1      -7.542  12.563 -22.400  1.00  0.00     0.037 C
ENDBRANCH  41  43
ENDBRANCH  39  41
ENDBRANCH   1  34
TORSDOF 10
ENDMDL