MODEL 5
REMARK VINA RESULT: -8.301137956      2.267      5.470
REMARK  12 active torsions:
REMARK  status: ('A' for Active; 'I' for Inactive)
REMARK    1  A    between atoms: C3_4  and  C4_5
REMARK    2  A    between atoms: C4_5  and  O2_6
REMARK    3  A    between atoms: O2_6  and  C5_7
REMARK    4  A    between atoms: C5_7  and  C6_9
REMARK    5  A    between atoms: C6_9  and  C7_10
REMARK    6  A    between atoms: C13_16  and  O4_17
REMARK    7  A    between atoms: C14_19  and  O5_20
REMARK    8  A    between atoms: C15_22  and  O6_23
REMARK    9  A    between atoms: O6_23  and  C16_24
REMARK   10  A    between atoms: C17_25  and  C18_26
REMARK   11  A    between atoms: C18_26  and  N1_27
REMARK   12  A    between atoms: C25_35  and  C26_36
ROOT
HETATM    1  C1  UNL     1      -2.186   8.059 -19.669  1.00  0.00     0.042 C
HETATM    2  C2  UNL     1      -0.825   7.906 -20.186  1.00  0.00     0.150 C
HETATM    3  O1  UNL     1      -0.612   8.806 -21.277  1.00  0.00    -0.373 OA
HETATM    4  C3  UNL     1      -1.388   8.499 -22.363  1.00  0.00     0.177 C
HETATM    5  C13 UNL     1      -0.842   7.183 -22.961  1.00  0.00     0.180 C
HETATM    6  C14 UNL     1      -1.156   6.125 -21.885  1.00  0.00     0.181 C
HETATM    7  C15 UNL     1      -0.380   6.571 -20.678  1.00  0.00     0.189 C
ENDROOT
BRANCH   7   8
HETATM    8  O6  UNL     1      -0.009   5.580 -19.763  1.00  0.00    -0.339 OA
BRANCH   8   9
HETATM    9  C16 UNL     1       1.322   5.426 -19.287  1.00  0.00     0.096 A
HETATM   10  C17 UNL     1       2.225   4.626 -19.914  1.00  0.00     0.011 A
HETATM   11  C24 UNL     1       3.469   4.528 -19.335  1.00  0.00     0.062 A
HETATM   12  S1  UNL     1       3.366   5.527 -17.974  1.00  0.00    -0.098 SA
HETATM   13  C25 UNL     1       1.721   6.064 -18.164  1.00  0.00     0.052 A
BRANCH  10  14
HETATM   14  C18 UNL     1       1.979   3.905 -21.237  1.00  0.00     0.314 C
BRANCH  14  15
HETATM   15  N1  UNL     1       0.879   2.982 -21.120  1.00  0.00     0.092 N
HETATM   16  C19 UNL     1       0.465   2.688 -22.487  1.00  0.00     0.272 C
HETATM   17  C20 UNL     1       1.597   2.265 -23.372  1.00  0.00     0.030 C
HETATM   18  C21 UNL     1       2.230   1.026 -22.791  1.00  0.00     0.003 C
HETATM   19  C22 UNL     1       1.426   0.612 -21.582  1.00  0.00     0.030 C
HETATM   20  C23 UNL     1       1.330   1.701 -20.560  1.00  0.00     0.272 C
ENDBRANCH  14  15
ENDBRANCH  10  14
BRANCH  13  21
HETATM   21  C26 UNL     1       1.045   6.960 -17.213  1.00  0.00     0.022 A
HETATM   22  C27 UNL     1       1.329   8.306 -17.267  1.00  0.00     0.016 A
HETATM   23  C28 UNL     1       0.635   9.196 -16.464  1.00  0.00     0.001 A
HETATM   24  C29 UNL     1      -0.348   8.758 -15.602  1.00  0.00     0.003 A
HETATM   25  C30 UNL     1      -0.635   7.425 -15.546  1.00  0.00     0.043 A
HETATM   26  C31 UNL     1       0.075   6.538 -16.365  1.00  0.00     0.128 A
HETATM   27  F1  UNL     1      -0.353   5.255 -16.296  1.00  0.00    -0.205 F
ENDBRANCH  13  21
ENDBRANCH   8   9
ENDBRANCH   7   8
BRANCH   6  28
HETATM   28  O5  UNL     1      -2.536   6.181 -21.736  1.00  0.00    -0.390 OA
ATOM     29  H5  UNL     1      -2.710   7.075 -21.466  1.00  0.00     0.210 HD
ENDBRANCH   6  28
BRANCH   5  30
HETATM   30  O4  UNL     1      -1.403   6.885 -24.171  1.00  0.00    -0.390 OA
ATOM     31  H4  UNL     1      -0.772   6.905 -24.880  1.00  0.00     0.210 HD
ENDBRANCH   5  30
BRANCH   4  32
HETATM   32  C4  UNL     1      -1.243   9.519 -23.439  1.00  0.00     0.213 C
BRANCH  32  33
HETATM   33  O2  UNL     1      -2.076  10.625 -23.363  1.00  0.00    -0.319 OA
BRANCH  33  34
HETATM   34  C5  UNL     1      -1.557  11.796 -22.792  1.00  0.00     0.259 C
HETATM   35  O3  UNL     1      -0.809  12.471 -23.537  1.00  0.00    -0.265 OA
BRANCH  34  36
HETATM   36  C6  UNL     1      -1.855  12.211 -21.431  1.00  0.00     0.115 C
BRANCH  36  37
HETATM   37  C7  UNL     1      -3.282  12.559 -21.133  1.00  0.00    -0.005 C
HETATM   38  C8  UNL     1      -3.941  11.384 -20.460  1.00  0.00     0.005 C
HETATM   39  C9  UNL     1      -5.370  11.819 -20.126  1.00  0.00     0.000 C
HETATM   40  C10 UNL     1      -6.075  11.878 -21.472  1.00  0.00     0.000 C
HETATM   41  C11 UNL     1      -5.499  12.991 -22.275  1.00  0.00     0.000 C
HETATM   42  C12 UNL     1      -4.011  13.061 -22.336  1.00  0.00     0.005 C
ENDBRANCH  36  37
ENDBRANCH  34  36
ENDBRANCH  33  34
ENDBRANCH  32  33
ENDBRANCH   4  32
TORSDOF 12
ENDMDL