MODEL 4
REMARK VINA RESULT: -7.307657193      3.045      7.412
REMARK  11 active torsions:
REMARK  status: ('A' for Active; 'I' for Inactive)
REMARK    1  A    between atoms: O1_2  and  C2_3
REMARK    2  A    between atoms: C14_16  and  O2_17
REMARK    3  A    between atoms: C16_21  and  O3_22
REMARK    4  A    between atoms: C23_31  and  O4_32
REMARK    5  A    between atoms: O4_32  and  C24_33
REMARK    6  A    between atoms: C24_33  and  C25_34
REMARK    7  A    between atoms: C25_34  and  C26_35
REMARK    8  A    between atoms: C26_35  and  C27_36
REMARK    9  A    between atoms: C27_36  and  C28_37
REMARK   10  A    between atoms: C28_37  and  N3_38
REMARK   11  A    between atoms: C33_43  and  O5_44
ROOT
HETATM    1  C2  UNL     1      -2.765   9.514 -19.564  1.00  0.00     0.104 A
HETATM    2  C3  UNL     1      -1.953   8.656 -20.272  1.00  0.00     0.053 A
HETATM    3  C4  UNL     1      -0.831   8.059 -19.716  1.00  0.00    -0.003 A
HETATM    4  C5  UNL     1      -0.047   7.166 -20.493  1.00  0.00     0.056 C
HETATM    5  C6  UNL     1       0.910   7.740 -21.471  1.00  0.00     0.006 A
HETATM    6  C7  UNL     1       1.317   9.010 -21.298  1.00  0.00     0.057 A
HETATM    7  C8  UNL     1       2.244   9.535 -22.178  1.00  0.00     0.117 A
HETATM    8  F1  UNL     1       2.655  10.837 -21.988  1.00  0.00    -0.206 F
HETATM    9  C9  UNL     1       2.754   8.784 -23.224  1.00  0.00     0.043 A
HETATM   10  C10 UNL     1       2.338   7.459 -23.416  1.00  0.00     0.016 A
HETATM   11  C11 UNL     1       1.428   6.980 -22.536  1.00  0.00    -0.008 A
HETATM   12  C12 UNL     1       1.070   5.589 -22.890  1.00  0.00     0.039 A
HETATM   13  C13 UNL     1       0.614   4.653 -21.946  1.00  0.00     0.031 A
HETATM   14  C14 UNL     1       0.408   3.522 -22.699  1.00  0.00     0.153 A
HETATM   15  N1  UNL     1       0.720   3.778 -23.991  1.00  0.00    -0.312 N
HETATM   16  C15 UNL     1       0.599   2.760 -25.031  1.00  0.00     0.160 C
HETATM   17  C16 UNL     1       1.130   5.056 -24.121  1.00  0.00     0.155 A
HETATM   18  C17 UNL     1       0.359   4.785 -20.493  1.00  0.00     0.127 C
HETATM   19  C18 UNL     1       1.275   3.786 -19.785  1.00  0.00     0.031 C
HETATM   20  C19 UNL     1       2.703   4.152 -20.218  1.00  0.00     0.007 C
HETATM   21  C20 UNL     1       3.004   5.545 -19.738  1.00  0.00     0.045 C
HETATM   22  C21 UNL     1       1.799   6.270 -19.214  1.00  0.00     0.065 C
HETATM   23  N2  UNL     1       0.622   6.046 -19.920  1.00  0.00    -0.350 N
HETATM   24  C22 UNL     1      -0.560   8.362 -18.412  1.00  0.00     0.053 A
HETATM   25  C23 UNL     1      -1.363   9.228 -17.663  1.00  0.00     0.105 A
HETATM   26  C33 UNL     1      -2.488   9.811 -18.265  1.00  0.00     0.133 A
ENDROOT
BRANCH   1  27
HETATM   27  O1  UNL     1      -3.896  10.105 -20.153  1.00  0.00    -0.353 OA
HETATM   28  C1  UNL     1      -3.667  10.952 -21.262  1.00  0.00     0.210 C
ENDBRANCH   1  27
BRANCH  25  29
HETATM   29  O4  UNL     1      -1.117   9.543 -16.367  1.00  0.00    -0.348 OA
BRANCH  29  30
HETATM   30  C24 UNL     1      -0.619   8.905 -15.282  1.00  0.00     0.176 C
BRANCH  30  31
HETATM   31  C25 UNL     1       0.782   9.151 -14.855  1.00  0.00     0.027 C
BRANCH  31  32
HETATM   32  C26 UNL     1       1.812   8.304 -15.502  1.00  0.00     0.004 C
BRANCH  32  33
HETATM   33  C27 UNL     1       1.551   6.852 -15.595  1.00  0.00     0.030 C
BRANCH  33  34
HETATM   34  C28 UNL     1       2.347   6.155 -14.489  1.00  0.00     0.272 C
BRANCH  34  35
HETATM   35  N3  UNL     1       2.691   4.852 -14.946  1.00  0.00     0.088 N
HETATM   36  C29 UNL     1       1.538   4.085 -15.282  1.00  0.00     0.272 C
HETATM   37  C30 UNL     1       2.182   2.824 -15.868  1.00  0.00     0.032 C
HETATM   38  C31 UNL     1       3.517   3.316 -16.438  1.00  0.00     0.032 C
HETATM   39  C32 UNL     1       3.471   4.819 -16.150  1.00  0.00     0.272 C
ENDBRANCH  34  35
ENDBRANCH  33  34
ENDBRANCH  32  33
ENDBRANCH  31  32
ENDBRANCH  30  31
ENDBRANCH  29  30
ENDBRANCH  25  29
BRANCH  26  40
HETATM   40  O5  UNL     1      -3.296  10.684 -17.510  1.00  0.00    -0.356 OA
ATOM     41  H5  UNL     1      -2.950  11.183 -16.780  1.00  0.00     0.218 HD
ENDBRANCH  26  40
BRANCH  17  42
HETATM   42  O3  UNL     1       1.508   5.619 -25.306  1.00  0.00    -0.345 OA
ATOM     43  H3  UNL     1       1.473   6.524 -25.593  1.00  0.00     0.219 HD
ENDBRANCH  17  42
BRANCH  14  44
HETATM   44  O2  UNL     1      -0.051   2.319 -22.181  1.00  0.00    -0.345 OA
ATOM     45  H2  UNL     1       0.517   1.605 -21.915  1.00  0.00     0.219 HD
ENDBRANCH  14  44
TORSDOF 11
ENDMDL