MODEL 3
REMARK VINA RESULT: -8.875850654      1.847      2.484
REMARK  9 active torsions:
REMARK  status: ('A' for Active; 'I' for Inactive)
REMARK    1  A    between atoms: C2_2  and  N1_3
REMARK    2  A    between atoms: C5_6  and  O1_7
REMARK    3  A    between atoms: O1_7  and  C6_8
REMARK    4  A    between atoms: C12_15  and  S1_17
REMARK    5  A    between atoms: S1_17  and  C14_18
REMARK    6  A    between atoms: C18_24  and  O2_25
REMARK    7  A    between atoms: O2_25  and  C19_26
REMARK    8  A    between atoms: C19_26  and  C20_27
REMARK    9  A    between atoms: C20_27  and  N3_28
ROOT
HETATM    1  C6  UNL     1       2.359  11.325 -12.169  1.00  0.00     0.110 A
HETATM    2  C7  UNL     1       3.197  11.131 -13.248  1.00  0.00     0.069 A
HETATM    3  C8  UNL     1       2.915  10.183 -14.209  1.00  0.00     0.039 A
HETATM    4  C9  UNL     1       1.785   9.379 -14.146  1.00  0.00    -0.010 A
HETATM    5  C10 UNL     1       0.942   9.557 -13.083  1.00  0.00     0.056 A
HETATM    6  C11 UNL     1       1.222  10.503 -12.122  1.00  0.00     0.150 A
HETATM    7  F1  UNL     1       0.379  10.672 -11.069  1.00  0.00    -0.203 F
HETATM    8  C12 UNL     1       1.504   8.359 -15.177  1.00  0.00     0.043 C
HETATM    9  C13 UNL     1       2.122   7.052 -14.663  1.00  0.00     0.033 C
HETATM   10  C26 UNL     1       2.036   8.695 -16.534  1.00  0.00     0.055 C
HETATM   11  C27 UNL     1       3.322   9.443 -16.577  1.00  0.00     0.025 C
HETATM   12  C28 UNL     1       3.085  10.671 -17.477  1.00  0.00     0.038 C
HETATM   13  C29 UNL     1       4.431   8.664 -17.258  1.00  0.00     0.038 C
HETATM   14  N5  UNL     1       3.763   9.984 -15.309  1.00  0.00    -0.381 N
ATOM     15  H5  UNL     1       4.747  10.234 -15.210  1.00  0.00     0.160 HD
ENDROOT
BRANCH   8  16
HETATM   16  S1  UNL     1      -0.276   8.041 -15.374  1.00  0.00    -0.079 SA
BRANCH  16  17
HETATM   17  C14 UNL     1      -0.836   8.422 -17.039  1.00  0.00     0.146 A
HETATM   18  N2  UNL     1      -1.015   7.600 -18.085  1.00  0.00    -0.335 N
HETATM   19  C15 UNL     1      -1.438   8.281 -19.177  1.00  0.00     0.061 A
ATOM     20  H2  UNL     1      -0.852   6.594 -18.061  1.00  0.00     0.168 HD
HETATM   21  C16 UNL     1      -1.757   7.925 -20.470  1.00  0.00     0.035 A
HETATM   22  C25 UNL     1      -1.530   9.604 -18.791  1.00  0.00     0.063 A
HETATM   23  C17 UNL     1      -2.162   8.891 -21.359  1.00  0.00     0.039 A
HETATM   24  C18 UNL     1      -2.266  10.222 -21.012  1.00  0.00     0.071 A
HETATM   25  C24 UNL     1      -1.945  10.565 -19.717  1.00  0.00     0.068 A
HETATM   26  N4  UNL     1      -1.163   9.659 -17.502  1.00  0.00    -0.335 N
ATOM     27  H4  UNL     1      -1.132  10.513 -16.945  1.00  0.00     0.168 HD
BRANCH  24  28
HETATM   28  O2  UNL     1      -2.680  11.126 -21.970  1.00  0.00    -0.349 OA
BRANCH  28  29
HETATM   29  C19 UNL     1      -3.310  12.352 -21.648  1.00  0.00     0.206 C
BRANCH  29  30
HETATM   30  C20 UNL     1      -4.626  12.552 -22.312  1.00  0.00     0.301 C
BRANCH  30  31
HETATM   31  N3  UNL     1      -5.783  12.430 -21.501  1.00  0.00     0.115 N
HETATM   32  C21 UNL     1      -7.002  12.910 -22.106  1.00  0.00     0.301 C
HETATM   33  C22 UNL     1      -7.769  11.634 -22.305  1.00  0.00     0.200 C
HETATM   34  O3  UNL     1      -7.179  10.640 -21.566  1.00  0.00    -0.361 OA
HETATM   35  C23 UNL     1      -6.046  11.151 -20.942  1.00  0.00     0.440 C
ENDBRANCH  30  31
ENDBRANCH  29  30
ENDBRANCH  28  29
ENDBRANCH  24  28
ENDBRANCH  16  17
ENDBRANCH   8  16
BRANCH   1  36
HETATM   36  O1  UNL     1       2.548  12.240 -11.159  1.00  0.00    -0.343 OA
BRANCH  36  37
HETATM   37  C5  UNL     1       3.509  12.179 -10.175  1.00  0.00     0.132 C
HETATM   38  C4  UNL     1       3.051  11.403  -8.947  1.00  0.00     0.062 C
HETATM   39  C3  UNL     1       2.732  12.321  -7.806  1.00  0.00     0.275 C
HETATM   40  N1  UNL     1       3.878  13.099  -7.381  1.00  0.00     0.088 N
HETATM   41  C31 UNL     1       4.795  13.354  -8.464  1.00  0.00     0.275 C
HETATM   42  C30 UNL     1       3.950  13.576  -9.713  1.00  0.00     0.062 C
BRANCH  40  43
HETATM   43  C2  UNL     1       3.514  14.311  -6.713  1.00  0.00     0.268 C
HETATM   44  C1  UNL     1       2.138  14.230  -6.078  1.00  0.00     0.037 C
ENDBRANCH  40  43
ENDBRANCH  36  37
ENDBRANCH   1  36
TORSDOF 9
ENDMDL