MODEL 5
REMARK VINA RESULT: -7.189518254      3.284      8.025
REMARK  14 active torsions:
REMARK  status: ('A' for Active; 'I' for Inactive)
REMARK    1  A    between atoms: C2_2  and  O1_3
REMARK    2  A    between atoms: O1_3  and  C3_4
REMARK    3  A    between atoms: C3_4  and  C4_6
REMARK    4  A    between atoms: C4_6  and  C5_7
REMARK    5  A    between atoms: C4_6  and  C8_13
REMARK    6  A    between atoms: C5_7  and  O3_8
REMARK    7  A    between atoms: O3_8  and  C6_9
REMARK    8  A    between atoms: C6_9  and  C7_11
REMARK    9  A    between atoms: C8_13  and  C9_14
REMARK   10  A    between atoms: C9_14  and  O5_15
REMARK   11  A    between atoms: C9_14  and  C10_17
REMARK   12  A    between atoms: C15_22  and  C16_23
REMARK   13  A    between atoms: C21_29  and  O7_30
REMARK   14  A    between atoms: C31_41  and  O8_42
ROOT
HETATM    1  C10 UNL     1       2.415   4.335 -17.453  1.00  0.00     0.033 A
HETATM    2  C11 UNL     1       3.510   3.650 -17.935  1.00  0.00    -0.046 A
HETATM    3  C12 UNL     1       4.614   3.143 -17.045  1.00  0.00     0.049 C
HETATM    4  C13 UNL     1       3.698   3.546 -19.293  1.00  0.00     0.009 A
HETATM    5  C14 UNL     1       2.828   4.118 -20.192  1.00  0.00     0.015 A
HETATM    6  C15 UNL     1       1.738   4.819 -19.783  1.00  0.00     0.000 A
HETATM    7  C31 UNL     1       1.528   4.921 -18.381  1.00  0.00     0.089 A
ENDROOT
BRANCH   6   8
HETATM    8  C16 UNL     1       0.965   5.728 -20.647  1.00  0.00    -0.066 C
HETATM    9  C17 UNL     1       1.499   6.988 -21.158  1.00  0.00     0.043 C
HETATM   10  C18 UNL     1       0.739   7.129 -22.481  1.00  0.00     0.027 C
HETATM   11  C19 UNL     1       0.381   8.520 -22.842  1.00  0.00     0.131 C
HETATM   12  C28 UNL     1      -0.483   6.299 -22.367  1.00  0.00    -0.034 C
HETATM   13  O6  UNL     1       1.376   9.326 -23.315  1.00  0.00    -0.383 OA
HETATM   14  C25 UNL     1      -0.365   9.172 -21.705  1.00  0.00     0.025 C
HETATM   15  C20 UNL     1       0.770  10.386 -23.997  1.00  0.00     0.200 C
HETATM   16  C21 UNL     1       0.032  11.254 -23.017  1.00  0.00     0.150 C
HETATM   17  C22 UNL     1      -0.941  10.512 -22.157  1.00  0.00    -0.014 C
HETATM   18  C23 UNL     1      -1.090  11.311 -20.855  1.00  0.00     0.018 C
HETATM   19  C24 UNL     1      -2.308  10.370 -22.739  1.00  0.00     0.018 C
HETATM   20  C26 UNL     1      -1.390   8.293 -21.094  1.00  0.00     0.009 C
HETATM   21  C27 UNL     1      -1.655   6.987 -21.745  1.00  0.00     0.010 C
HETATM   22  C29 UNL     1      -0.906   5.738 -23.700  1.00  0.00     0.016 C
HETATM   23  C30 UNL     1      -0.033   5.096 -21.543  1.00  0.00     0.044 C
BRANCH  16  24
HETATM   24  O7  UNL     1      -0.664  12.244 -23.711  1.00  0.00    -0.393 OA
ATOM     25  H7  UNL     1      -0.178  13.058 -23.667  1.00  0.00     0.210 HD
ENDBRANCH  16  24
ENDBRANCH   6   8
BRANCH   7  26
HETATM   26  O8  UNL     1       0.420   5.617 -18.070  1.00  0.00    -0.359 OA
ATOM     27  H8  UNL     1       0.242   6.024 -17.230  1.00  0.00     0.217 HD
ENDBRANCH   7  26
BRANCH   1  28
HETATM   28  C9  UNL     1       2.053   4.351 -16.077  1.00  0.00     0.057 C
BRANCH  28  29
HETATM   29  C8  UNL     1       2.268   5.068 -14.841  1.00  0.00     0.082 C
BRANCH  29  30
HETATM   30  C4  UNL     1       1.855   6.541 -15.031  1.00  0.00     0.116 C
BRANCH  30  31
HETATM   31  C3  UNL     1       2.387   7.379 -13.942  1.00  0.00     0.265 C
HETATM   32  O2  UNL     1       3.544   7.825 -13.942  1.00  0.00    -0.265 OA
BRANCH  31  33
HETATM   33  O1  UNL     1       1.577   7.705 -12.843  1.00  0.00    -0.321 OA
BRANCH  33  34
HETATM   34  C2  UNL     1       1.621   8.940 -12.195  1.00  0.00     0.174 C
HETATM   35  C1  UNL     1       0.703   9.962 -12.833  1.00  0.00     0.034 C
ENDBRANCH  33  34
ENDBRANCH  31  33
ENDBRANCH  30  31
BRANCH  30  36
HETATM   36  C5  UNL     1       0.306   6.561 -14.749  1.00  0.00     0.193 C
BRANCH  36  37
HETATM   37  O3  UNL     1      -0.291   7.189 -15.855  1.00  0.00    -0.320 OA
BRANCH  37  38
HETATM   38  C6  UNL     1      -0.647   8.510 -15.964  1.00  0.00     0.272 C
HETATM   39  O4  UNL     1      -1.783   8.839 -15.549  1.00  0.00    -0.264 OA
BRANCH  38  40
HETATM   40  C7  UNL     1       0.317   9.513 -16.569  1.00  0.00     0.225 C
HETATM   41 CL1  UNL     1       0.750   9.122 -18.220  1.00  0.00    -0.120 Cl
ENDBRANCH  38  40
ENDBRANCH  37  38
ENDBRANCH  36  37
ENDBRANCH  30  36
ENDBRANCH  29  30
ENDBRANCH  28  29
BRANCH  28  42
HETATM   42  O5  UNL     1       1.197   3.328 -15.810  1.00  0.00    -0.364 OA
ATOM     43  H5  UNL     1       1.697   2.522 -15.851  1.00  0.00     0.217 HD
ENDBRANCH  28  42
ENDBRANCH   1  28
TORSDOF 14
ENDMDL