MODEL 5
REMARK VINA RESULT: -8.695644797      1.691      5.641
REMARK  12 active torsions:
REMARK  status: ('A' for Active; 'I' for Inactive)
REMARK    1  A    between atoms: C3_3  and  C4_4
REMARK    2  A    between atoms: C4_4  and  O1_5
REMARK    3  A    between atoms: O1_5  and  C5_6
REMARK    4  A    between atoms: C8_9  and  N1_10
REMARK    5  A    between atoms: N1_10  and  C9_12
REMARK    6  A    between atoms: C10_15  and  N3_16
REMARK    7  A    between atoms: C13_19  and  C14_20
REMARK    8  A    between atoms: C14_20  and  O2_21
REMARK    9  A    between atoms: C17_25  and  O3_26
REMARK   10  A    between atoms: O3_26  and  C18_27
REMARK   11  A    between atoms: C23_32  and  C24_33
REMARK   12  A    between atoms: C25_35  and  O5_36
ROOT
HETATM    1  C1  UNL     1      -8.504  11.574 -22.245  1.00  0.00     0.112 C
HETATM    2  C2  UNL     1      -7.250  12.313 -22.353  1.00  0.00    -0.109 C
HETATM    3  C3  UNL     1      -6.211  12.916 -22.421  1.00  0.00    -0.080 C
ENDROOT
BRANCH   3   4
HETATM    4  C4  UNL     1      -4.943  13.641 -22.481  1.00  0.00     0.269 C
BRANCH   4   5
HETATM    5  O1  UNL     1      -4.032  13.179 -21.509  1.00  0.00    -0.338 OA
BRANCH   5   6
HETATM    6  C5  UNL     1      -3.637  11.874 -21.371  1.00  0.00     0.091 A
HETATM    7  C6  UNL     1      -2.693  11.273 -22.158  1.00  0.00     0.041 A
HETATM    8  C7  UNL     1      -2.312   9.966 -22.005  1.00  0.00     0.033 A
HETATM    9  C8  UNL     1      -2.908   9.226 -21.011  1.00  0.00     0.051 A
HETATM   10  C30 UNL     1      -3.861   9.811 -20.206  1.00  0.00     0.056 A
HETATM   11  C31 UNL     1      -4.235  11.130 -20.375  1.00  0.00     0.069 A
HETATM   12 CL1  UNL     1      -5.460  11.803 -19.306  1.00  0.00    -0.081 Cl
BRANCH   9  13
HETATM   13  N1  UNL     1      -2.533   7.876 -20.832  1.00  0.00    -0.192 N
ATOM     14  H1  UNL     1      -3.111   7.148 -21.250  1.00  0.00     0.184 HD
BRANCH  13  15
HETATM   15  C9  UNL     1      -1.472   7.521 -20.149  1.00  0.00     0.685 A
HETATM   16  N2  UNL     1      -1.148   8.174 -19.042  1.00  0.00    -0.174 N
HETATM   17  C10 UNL     1      -0.049   7.853 -18.285  1.00  0.00     0.155 A
ATOM     18  H2  UNL     1      -1.740   8.948 -18.740  1.00  0.00     0.186 HD
HETATM   19  C17 UNL     1       0.752   6.821 -18.683  1.00  0.00     0.143 A
HETATM   20  C23 UNL     1       0.408   6.132 -19.844  1.00  0.00     0.120 A
HETATM   21  N4  UNL     1      -0.687   6.491 -20.551  1.00  0.00    -0.186 N
ATOM     22  H4  UNL     1      -0.926   5.979 -21.400  1.00  0.00     0.184 HD
BRANCH  17  23
HETATM   23  N3  UNL     1       0.199   8.574 -17.089  1.00  0.00    -0.364 N
HETATM   24  C11 UNL     1       1.225   9.598 -16.946  1.00  0.00     0.125 C
HETATM   25  C12 UNL     1       2.227   9.196 -15.874  1.00  0.00     0.026 C
HETATM   26  C13 UNL     1       1.550   8.403 -14.777  1.00  0.00     0.012 C
HETATM   27  C15 UNL     1       0.080   8.830 -14.714  1.00  0.00     0.026 C
HETATM   28  C16 UNL     1      -0.600   8.276 -15.923  1.00  0.00     0.125 C
BRANCH  26  29
HETATM   29  C14 UNL     1       2.178   8.613 -13.438  1.00  0.00     0.168 C
BRANCH  29  30
HETATM   30  O2  UNL     1       1.705   7.684 -12.537  1.00  0.00    -0.400 OA
ATOM     31  H2  UNL     1       2.202   6.876 -12.605  1.00  0.00     0.209 HD
ENDBRANCH  29  30
ENDBRANCH  26  29
ENDBRANCH  17  23
BRANCH  19  32
HETATM   32  O3  UNL     1       1.876   6.454 -17.981  1.00  0.00    -0.340 OA
BRANCH  32  33
HETATM   33  C18 UNL     1       1.936   5.284 -17.186  1.00  0.00     0.129 C
HETATM   34  C19 UNL     1       0.737   4.944 -16.385  1.00  0.00     0.032 C
HETATM   35  C20 UNL     1       1.270   4.052 -15.256  1.00  0.00     0.002 C
HETATM   36  C21 UNL     1       2.535   4.788 -14.893  1.00  0.00     0.002 C
HETATM   37  C22 UNL     1       3.099   5.262 -16.219  1.00  0.00     0.032 C
ENDBRANCH  32  33
ENDBRANCH  19  32
BRANCH  20  38
HETATM   38  C24 UNL     1       1.086   4.890 -20.255  1.00  0.00     0.114 A
HETATM   39  O4  UNL     1       0.584   3.688 -20.076  1.00  0.00    -0.285 OA
HETATM   40  C25 UNL     1       1.377   2.783 -20.521  1.00  0.00     0.185 A
HETATM   41  C27 UNL     1       2.486   3.393 -21.034  1.00  0.00     0.073 A
HETATM   42  C28 UNL     1       2.285   4.761 -20.855  1.00  0.00    -0.021 A
HETATM   43  C29 UNL     1       3.298   5.768 -21.254  1.00  0.00     0.051 C
BRANCH  40  44
HETATM   44  O5  UNL     1       1.168   1.389 -20.498  1.00  0.00    -0.335 OA
HETATM   45  C26 UNL     1       1.516   0.597 -21.616  1.00  0.00     0.212 C
ENDBRANCH  40  44
ENDBRANCH  20  38
ENDBRANCH  13  15
ENDBRANCH   9  13
ENDBRANCH   5   6
ENDBRANCH   4   5
ENDBRANCH   3   4
TORSDOF 12
ENDMDL