MODEL 1
REMARK VINA RESULT: -8.255807696      0.000      0.000
REMARK  11 active torsions:
REMARK  status: ('A' for Active; 'I' for Inactive)
REMARK    1  A    between atoms: C2_2  and  C3_3
REMARK    2  A    between atoms: C3_3  and  C4_4
REMARK    3  A    between atoms: N1_6  and  C6_7
REMARK    4  A    between atoms: C9_12  and  N3_13
REMARK    5  A    between atoms: N6_29  and  C21_30
REMARK    6  A    between atoms: C21_30  and  C22_31
REMARK    7  A    between atoms: C24_33  and  O2_34
REMARK    8  A    between atoms: O2_34  and  C25_35
REMARK    9  A    between atoms: C28_38  and  N7_39
REMARK   10  A    between atoms: N7_39  and  N8_41
REMARK   11  A    between atoms: N8_41  and  N9_42
ROOT
HETATM    1  C4  UNL     1       2.144   6.022 -16.945  1.00  0.00     0.127 C
HETATM    2  C5  UNL     1       1.363   7.141 -17.522  1.00  0.00     0.107 C
HETATM    3  N1  UNL     1      -0.029   7.150 -17.570  1.00  0.00    -0.195 N
HETATM    4  C18 UNL     1      -0.907   6.968 -16.421  1.00  0.00     0.151 C
HETATM    5  C19 UNL     1      -0.149   7.148 -15.141  1.00  0.00     0.065 C
HETATM    6  C20 UNL     1       0.896   6.132 -14.841  1.00  0.00     0.066 C
HETATM    7  N6  UNL     1       2.101   6.268 -15.455  1.00  0.00    -0.360 N
ENDROOT
BRANCH   3   8
HETATM    8  C6  UNL     1      -0.644   7.552 -18.782  1.00  0.00     0.685 A
HETATM    9  N2  UNL     1      -1.710   8.451 -18.832  1.00  0.00    -0.190 N
HETATM   10  C7  UNL     1      -2.113   9.039 -19.955  1.00  0.00     0.065 A
ATOM     11  H2  UNL     1      -2.203   8.668 -17.966  1.00  0.00     0.184 HD
HETATM   12  C8  UNL     1      -3.084   9.917 -20.159  1.00  0.00     0.060 A
HETATM   13  C16 UNL     1      -1.406   8.729 -21.147  1.00  0.00     0.033 A
HETATM   14  C9  UNL     1      -3.579  10.604 -21.164  1.00  0.00     0.032 A
HETATM   15  C14 UNL     1      -2.809  10.312 -22.358  1.00  0.00     0.030 A
HETATM   16  C15 UNL     1      -1.701   9.377 -22.373  1.00  0.00     0.019 A
HETATM   17  C17 UNL     1      -0.427   7.854 -21.061  1.00  0.00     0.144 A
HETATM   18  N4  UNL     1       0.092   7.248 -22.256  1.00  0.00    -0.081 NA
HETATM   19  N5  UNL     1      -0.025   7.261 -19.957  1.00  0.00    -0.178 N
ATOM     20  H5  UNL     1       0.743   6.590 -19.983  1.00  0.00     0.185 HD
BRANCH  14  21
HETATM   21  N3  UNL     1      -4.674  11.481 -21.309  1.00  0.00    -0.377 N
HETATM   22  C10 UNL     1      -4.383  12.897 -21.617  1.00  0.00     0.149 C
HETATM   23  C11 UNL     1      -5.340  13.267 -22.762  1.00  0.00     0.187 C
HETATM   24  O1  UNL     1      -6.594  13.290 -22.152  1.00  0.00    -0.388 OA
HETATM   25  C12 UNL     1      -7.046  12.070 -21.717  1.00  0.00     0.187 C
HETATM   26  C13 UNL     1      -6.055  11.071 -21.259  1.00  0.00     0.149 C
ENDBRANCH  14  21
ENDBRANCH   3   8
BRANCH   1  27
HETATM   27  C3  UNL     1       1.731   4.669 -17.288  1.00  0.00     0.031 C
BRANCH  27  28
HETATM   28  C2  UNL     1       2.835   3.635 -17.054  1.00  0.00    -0.002 C
HETATM   29  C1  UNL     1       2.341   2.809 -15.831  1.00  0.00     0.005 C
ENDBRANCH  27  28
ENDBRANCH   1  27
BRANCH   7  30
HETATM   30  C21 UNL     1       3.272   6.835 -15.074  1.00  0.00     0.105 C
BRANCH  30  31
HETATM   31  C22 UNL     1       3.581   8.229 -14.872  1.00  0.00     0.021 A
HETATM   32  C23 UNL     1       3.320   9.097 -13.855  1.00  0.00     0.055 A
HETATM   33  C24 UNL     1       3.888  10.329 -13.742  1.00  0.00     0.099 A
HETATM   34  C28 UNL     1       4.795  10.814 -14.707  1.00  0.00     0.099 A
HETATM   35  C29 UNL     1       5.073   9.980 -15.772  1.00  0.00     0.078 A
HETATM   36  C30 UNL     1       4.504   8.751 -15.846  1.00  0.00     0.130 A
HETATM   37  F1  UNL     1       4.905   7.912 -16.833  1.00  0.00    -0.205 F
BRANCH  33  38
HETATM   38  O2  UNL     1       3.716  11.174 -12.712  1.00  0.00    -0.344 OA
BRANCH  38  39
HETATM   39  C25 UNL     1       2.609  11.891 -12.264  1.00  0.00     0.120 C
HETATM   40  C26 UNL     1       1.971  11.079 -11.170  1.00  0.00     0.040 C
HETATM   41  C27 UNL     1       1.567  11.823 -13.459  1.00  0.00     0.040 C
ENDBRANCH  38  39
ENDBRANCH  33  38
BRANCH  34  42
HETATM   42  N7  UNL     1       5.450  12.046 -14.532  1.00  0.00    -0.214 N
ATOM     43  H7  UNL     1       5.713  12.318 -13.585  1.00  0.00     0.204 HD
BRANCH  42  44
HETATM   44  N8  UNL     1       5.725  12.816 -15.452  1.00  0.00    -0.243 NA
BRANCH  44  45
HETATM   45  N9  UNL     1       5.834  13.629 -16.367  1.00  0.00    -0.260 N
ATOM     46  H92 UNL     1       5.247  12.992 -16.906  1.00  0.00     0.193 HD
ATOM     47  H91 UNL     1       6.004  14.380 -17.035  1.00  0.00     0.193 HD
ENDBRANCH  44  45
ENDBRANCH  42  44
ENDBRANCH  34  42
ENDBRANCH  30  31
ENDBRANCH   7  30
TORSDOF 11
ENDMDL