MODEL 1
REMARK VINA RESULT: -7.671366827      0.000      0.000
REMARK  10 active torsions:
REMARK  status: ('A' for Active; 'I' for Inactive)
REMARK    1  A    between atoms: C2_2  and  C3_3
REMARK    2  A    between atoms: C3_3  and  C4_4
REMARK    3  A    between atoms: C4_4  and  C5_5
REMARK    4  A    between atoms: C5_5  and  N1_6
REMARK    5  A    between atoms: C5_5  and  C11_17
REMARK       I    between atoms: N1_6  and  C6_8
REMARK    6  A    between atoms: C6_8  and  C7_10
REMARK    7  A    between atoms: C14_21  and  O4_22
REMARK    8  A    between atoms: C16_24  and  O5_25
REMARK    9  A    between atoms: C23_36  and  C24_37
REMARK   10  A    between atoms: C24_37  and  C25_38
ROOT
HETATM    1  C11 UNL     1      -1.453   9.316 -21.815  1.00  0.00     0.189 C
HETATM    2  O3  UNL     1      -1.576   9.232 -23.201  1.00  0.00    -0.340 OA
HETATM    3  C12 UNL     1      -0.521   9.099 -24.065  1.00  0.00     0.082 A
HETATM    4  C13 UNL     1      -0.676   9.463 -25.403  1.00  0.00     0.077 A
HETATM    5  C14 UNL     1       0.380   9.334 -26.282  1.00  0.00     0.105 A
HETATM    6  C16 UNL     1       1.560   8.837 -25.758  1.00  0.00     0.117 A
HETATM    7  C17 UNL     1       1.704   8.481 -24.436  1.00  0.00     0.058 A
HETATM    8 BR1  UNL     1       3.347   7.802 -23.761  1.00  0.00    -0.047 Br
HETATM    9  C18 UNL     1       0.640   8.612 -23.557  1.00  0.00     0.028 A
HETATM   10  C19 UNL     1       0.782   8.231 -22.132  1.00  0.00     0.199 C
HETATM   11  O6  UNL     1       1.042   6.863 -22.162  1.00  0.00    -0.343 OA
HETATM   12  C20 UNL     1      -0.145   6.268 -21.888  1.00  0.00     0.159 C
HETATM   13  C21 UNL     1      -0.827   5.853 -23.187  1.00  0.00     0.078 C
HETATM   14  C22 UNL     1       0.162   4.966 -21.160  1.00  0.00     0.078 C
HETATM   15  O7  UNL     1      -0.920   7.115 -21.167  1.00  0.00    -0.339 OA
HETATM   16  C23 UNL     1      -0.358   8.424 -21.236  1.00  0.00     0.123 C
ENDROOT
BRANCH   1  17
HETATM   17  C5  UNL     1      -1.449  10.740 -21.406  1.00  0.00     0.117 C
BRANCH  17  18
HETATM   18  C4  UNL     1      -0.410  11.600 -22.007  1.00  0.00     0.028 C
BRANCH  18  19
HETATM   19  C3  UNL     1      -0.692  13.061 -22.024  1.00  0.00     0.002 C
BRANCH  19  20
HETATM   20  C2  UNL     1      -0.566  13.691 -23.401  1.00  0.00    -0.004 C
HETATM   21  C1  UNL     1       0.358  12.861 -24.266  1.00  0.00     0.005 C
ENDBRANCH  19  20
ENDBRANCH  18  19
ENDBRANCH  17  18
BRANCH  17  22
HETATM   22  N1  UNL     1      -2.759  11.262 -21.812  1.00  0.00    -0.348 N
HETATM   23  C6  UNL     1      -3.826  11.546 -20.970  1.00  0.00     0.277 C
HETATM   24  O1  UNL     1      -3.730  11.361 -19.736  1.00  0.00    -0.265 OA
ATOM     25  H1  UNL     1      -2.898  11.433 -22.808  1.00  0.00     0.163 HD
BRANCH  23  26
HETATM   26  C7  UNL     1      -5.080  12.065 -21.490  1.00  0.00     0.168 A
HETATM   27  C8  UNL     1      -6.327  11.479 -21.481  1.00  0.00     0.071 A
HETATM   28  C9  UNL     1      -7.175  12.368 -22.089  1.00  0.00     0.031 A
HETATM   29  C10 UNL     1      -8.634  12.169 -22.310  1.00  0.00     0.070 C
HETATM   30  N2  UNL     1      -6.456  13.425 -22.438  1.00  0.00    -0.265 N
HETATM   31  O2  UNL     1      -5.240  13.237 -22.084  1.00  0.00    -0.232 OA
ATOM     32  H2  UNL     1      -6.813  14.254 -22.911  1.00  0.00     0.194 HD
ENDBRANCH  23  26
ENDBRANCH  17  22
ENDBRANCH   1  17
BRANCH  16  33
HETATM   33  C24 UNL     1      -0.125   8.763 -19.807  1.00  0.00     0.048 C
BRANCH  33  34
HETATM   34  C25 UNL     1      -0.985   8.248 -18.728  1.00  0.00    -0.020 C
HETATM   35  C26 UNL     1      -0.449   7.263 -17.757  1.00  0.00     0.009 C
HETATM   36  C27 UNL     1      -1.421   9.459 -17.851  1.00  0.00     0.009 C
ENDBRANCH  33  34
ENDBRANCH  16  33
BRANCH   5  37
HETATM   37  O4  UNL     1       0.300   9.675 -27.625  1.00  0.00    -0.353 OA
HETATM   38  C15 UNL     1      -0.983   9.645 -28.224  1.00  0.00     0.210 C
ENDBRANCH   5  37
BRANCH   6  39
HETATM   39  O5  UNL     1       2.640   8.697 -26.620  1.00  0.00    -0.357 OA
ATOM     40  H5  UNL     1       2.968   7.820 -26.778  1.00  0.00     0.218 HD
ENDBRANCH   6  39
TORSDOF 10
ENDMDL