MODEL 2
REMARK VINA RESULT: -6.971878045      4.643      8.654
REMARK  17 active torsions:
REMARK  status: ('A' for Active; 'I' for Inactive)
REMARK    1  A    between atoms: N1_1  and  C1_4
REMARK    2  A    between atoms: C2_7  and  O1_8
REMARK    3  A    between atoms: C3_10  and  C4_11
REMARK    4  A    between atoms: N5_16  and  C5_17
REMARK    5  A    between atoms: C5_17  and  C6_18
REMARK    6  A    between atoms: C6_18  and  O2_19
REMARK    7  A    between atoms: C6_18  and  C7_21
REMARK    8  A    between atoms: C8_30  and  C9_31
REMARK    9  A    between atoms: C10_32  and  O3_33
REMARK   10  A    between atoms: C11_35  and  O4_36
REMARK       I    between atoms: N10_38  and  C12_39
REMARK   11  A    between atoms: C12_39  and  C13_41
REMARK   12  A    between atoms: C13_41  and  O6_42
REMARK   13  A    between atoms: C14_44  and  O7_45
REMARK   14  A    between atoms: N11_47  and  C15_48
REMARK   15  A    between atoms: C15_48  and  C16_49
REMARK   16  A    between atoms: C16_49  and  O8_50
REMARK   17  A    between atoms: C16_49  and  O9_52
ROOT
HETATM    1  C4  UNL     1      21.426 -12.500   0.162  1.00  0.00     0.110 A
HETATM    2  N3  UNL     1      22.751 -12.355   0.266  1.00  0.00    -0.282 N
ATOM      3  H3  UNL     1      23.415 -12.342  -0.509  1.00  0.00     0.188 HD
HETATM    4  N4  UNL     1      23.044 -12.234   1.517  1.00  0.00    -0.239 N
ATOM      5  H4  UNL     1      23.989 -12.110   1.881  1.00  0.00     0.208 HD
HETATM    6  N5  UNL     1      21.940 -12.293   2.275  1.00  0.00    -0.272 N
HETATM    7  C8  UNL     1      20.887 -12.463   1.464  1.00  0.00     0.100 A
ENDROOT
BRANCH   1   8
HETATM    8  C3  UNL     1      20.627 -12.683  -1.039  1.00  0.00     0.133 A
HETATM    9  C2  UNL     1      20.006 -11.627  -1.675  1.00  0.00     0.185 A
HETATM   10  N2  UNL     1      19.408 -12.140  -2.758  1.00  0.00    -0.168 N
HETATM   11  C1  UNL     1      19.652 -13.458  -2.785  1.00  0.00     0.680 A
ATOM     12  H2  UNL     1      18.862 -11.618  -3.444  1.00  0.00     0.186 HD
HETATM   13  N11 UNL     1      20.415 -13.818  -1.713  1.00  0.00    -0.172 N
BRANCH   9  14
HETATM   14  O1  UNL     1      19.995 -10.273  -1.274  1.00  0.00    -0.344 OA
ATOM     15  H1  UNL     1      20.741  -9.767  -0.974  1.00  0.00     0.219 HD
ENDBRANCH   9  14
BRANCH  11  16
HETATM   16  N1  UNL     1      19.248 -14.310  -3.672  1.00  0.00    -0.234 N
ATOM     17  H12 UNL     1      19.891 -14.900  -4.202  1.00  0.00     0.174 HD
ATOM     18  H11 UNL     1      18.285 -14.501  -3.950  1.00  0.00     0.174 HD
ENDBRANCH  11  16
BRANCH  13  19
HETATM   19  C15 UNL     1      20.868 -15.175  -1.494  1.00  0.00     0.208 C
BRANCH  19  20
HETATM   20  C16 UNL     1      22.331 -15.360  -1.770  1.00  0.00     0.272 C
BRANCH  20  21
HETATM   21  O8  UNL     1      22.801 -14.450  -2.718  1.00  0.00    -0.370 OA
ATOM     22  H8  UNL     1      23.567 -13.980  -2.409  1.00  0.00     0.212 HD
ENDBRANCH  20  21
BRANCH  20  23
HETATM   23  O9  UNL     1      23.163 -15.257  -0.677  1.00  0.00    -0.370 OA
ATOM     24  H9  UNL     1      23.021 -14.501  -0.121  1.00  0.00     0.212 HD
ENDBRANCH  20  23
ENDBRANCH  19  20
ENDBRANCH  13  19
ENDBRANCH   1   8
BRANCH   7  25
HETATM   25  C9  UNL     1      19.480 -12.605   1.789  1.00  0.00     0.084 A
HETATM   26  C10 UNL     1      18.532 -11.579   1.923  1.00  0.00     0.134 A
HETATM   27  C11 UNL     1      17.305 -12.114   2.231  1.00  0.00     0.186 A
HETATM   28  N10 UNL     1      17.460 -13.465   2.294  1.00  0.00    -0.236 N
HETATM   29  C12 UNL     1      16.374 -14.335   2.589  1.00  0.00     0.255 C
HETATM   30  C14 UNL     1      18.740 -13.749   2.034  1.00  0.00     0.167 A
HETATM   31  O5  UNL     1      15.204 -13.879   2.804  1.00  0.00    -0.270 OA
BRANCH  26  32
HETATM   32  O3  UNL     1      18.798 -10.221   1.769  1.00  0.00    -0.356 OA
ATOM     33  H3  UNL     1      18.627  -9.719   0.982  1.00  0.00     0.218 HD
ENDBRANCH  26  32
BRANCH  27  34
HETATM   34  O4  UNL     1      16.120 -11.390   2.440  1.00  0.00    -0.344 OA
ATOM     35  H4  UNL     1      15.371 -11.367   1.856  1.00  0.00     0.219 HD
ENDBRANCH  27  34
BRANCH  29  36
HETATM   36  C13 UNL     1      16.545 -15.815   2.660  1.00  0.00     0.267 C
BRANCH  36  37
HETATM   37  O6  UNL     1      17.131 -16.161   3.897  1.00  0.00    -0.392 OA
ATOM     38  H6  UNL     1      17.681 -16.927   3.782  1.00  0.00     0.210 HD
ENDBRANCH  36  37
ENDBRANCH  29  36
BRANCH  30  39
HETATM   39  O7  UNL     1      19.248 -15.035   2.014  1.00  0.00    -0.345 OA
ATOM     40  H7  UNL     1      18.762 -15.812   2.265  1.00  0.00     0.219 HD
ENDBRANCH  30  39
ENDBRANCH   7  25
BRANCH   6  41
HETATM   41  C5  UNL     1      21.893 -12.171   3.718  1.00  0.00     0.190 C
BRANCH  41  42
HETATM   42  C6  UNL     1      22.190 -10.766   4.167  1.00  0.00     0.208 C
BRANCH  42  43
HETATM   43  O2  UNL     1      21.113 -10.072   4.669  1.00  0.00    -0.386 OA
ATOM     44  H2  UNL     1      20.873  -9.293   4.182  1.00  0.00     0.210 HD
ENDBRANCH  42  43
BRANCH  42  45
HETATM   45  C7  UNL     1      23.285 -10.715   5.150  1.00  0.00     0.144 A
HETATM   46  N6  UNL     1      24.585 -10.754   4.830  1.00  0.00    -0.270 N
HETATM   47  N7  UNL     1      25.317 -10.690   5.920  1.00  0.00    -0.227 N
ATOM     48  H6  UNL     1      24.953 -10.824   3.882  1.00  0.00     0.190 HD
HETATM   49  N8  UNL     1      24.489 -10.611   6.943  1.00  0.00    -0.227 N
ATOM     50  H7  UNL     1      26.336 -10.700   5.966  1.00  0.00     0.210 HD
HETATM   51  N9  UNL     1      23.242 -10.624   6.491  1.00  0.00    -0.270 N
ATOM     52  H8  UNL     1      24.764 -10.549   7.923  1.00  0.00     0.210 HD
ATOM     53  H9  UNL     1      22.398 -10.573   7.062  1.00  0.00     0.190 HD
ENDBRANCH  42  45
ENDBRANCH  41  42
ENDBRANCH   6  41
TORSDOF 17
ENDMDL