MODEL 2
REMARK VINA RESULT: -8.559379530      1.616      3.372
REMARK  16 active torsions:
REMARK  status: ('A' for Active; 'I' for Inactive)
REMARK       I    between atoms: C2_2  and  N1_4
REMARK    1  A    between atoms: N1_4  and  C3_5
REMARK    2  A    between atoms: C4_6  and  O2_7
REMARK    3  A    between atoms: C5_9  and  O3_10
REMARK    4  A    between atoms: C6_12  and  N2_13
REMARK    5  A    between atoms: N3_16  and  N4_17
REMARK    6  A    between atoms: C7_20  and  C8_21
REMARK    7  A    between atoms: C9_23  and  C10_24
REMARK    8  A    between atoms: C11_30  and  N7_31
REMARK    9  A    between atoms: C12_36  and  C13_37
REMARK   10  A    between atoms: C13_37  and  N9_38
REMARK   11  A    between atoms: C15_40  and  C16_41
REMARK   12  A    between atoms: C16_41  and  O6_42
REMARK   13  A    between atoms: O6_42  and  C17_43
REMARK   14  A    between atoms: C17_43  and  O7_44
REMARK   15  A    between atoms: C17_43  and  C18_46
REMARK   16  A    between atoms: C18_46  and  O8_47
ROOT
HETATM    1  C8  UNL     1      17.876  -7.589   5.274  1.00  0.00     0.134 A
HETATM    2  O4  UNL     1      18.318  -7.522   6.501  1.00  0.00    -0.287 OA
HETATM    3  C9  UNL     1      19.388  -6.804   6.598  1.00  0.00     0.181 A
HETATM    4  N8  UNL     1      19.671  -6.386   5.398  1.00  0.00    -0.334 N
ATOM      5  H8  UNL     1      20.465  -5.797   5.149  1.00  0.00     0.168 HD
HETATM    6  C12 UNL     1      18.687  -6.887   4.480  1.00  0.00     0.067 A
ENDROOT
BRANCH   1   7
HETATM    7  C7  UNL     1      16.637  -8.369   4.994  1.00  0.00     0.137 A
HETATM    8  C3  UNL     1      16.701  -9.524   4.243  1.00  0.00     0.178 A
HETATM    9  C4  UNL     1      15.504 -10.331   4.177  1.00  0.00     0.146 A
HETATM   10  C5  UNL     1      14.371 -10.007   4.786  1.00  0.00     0.148 A
HETATM   11  C6  UNL     1      14.379  -8.826   5.521  1.00  0.00     0.157 A
HETATM   12  N3  UNL     1      15.486  -8.025   5.632  1.00  0.00    -0.238 N
BRANCH   8  13
HETATM   13  N1  UNL     1      17.666  -9.961   3.489  1.00  0.00    -0.365 NA
HETATM   14  C2  UNL     1      18.702 -10.428   2.680  1.00  0.00     0.288 C
HETATM   15  C1  UNL     1      18.317 -11.109   1.348  1.00  0.00     0.135 C
HETATM   16  O1  UNL     1      19.947 -10.400   2.834  1.00  0.00    -0.258 OA
ENDBRANCH   8  13
BRANCH   9  17
HETATM   17  O2  UNL     1      15.590 -11.523   3.409  1.00  0.00    -0.355 OA
ATOM     18  H2  UNL     1      15.849 -12.308   3.878  1.00  0.00     0.218 HD
ENDBRANCH   9  17
BRANCH  10  19
HETATM   19  O3  UNL     1      13.222 -10.736   4.737  1.00  0.00    -0.355 OA
ATOM     20  H3  UNL     1      12.349 -10.389   4.884  1.00  0.00     0.218 HD
ENDBRANCH  10  19
BRANCH  11  21
HETATM   21  N2  UNL     1      13.312  -8.464   6.117  1.00  0.00    -0.382 N
ATOM     22  H22 UNL     1      12.883  -7.580   5.842  1.00  0.00     0.157 HD
ATOM     23  H21 UNL     1      12.922  -9.067   6.841  1.00  0.00     0.157 HD
ENDBRANCH  11  21
BRANCH  12  24
HETATM   24  N4  UNL     1      15.398  -6.949   6.513  1.00  0.00    -0.336 N
ATOM     25  H42 UNL     1      16.025  -6.145   6.475  1.00  0.00     0.177 HD
ATOM     26  H41 UNL     1      14.730  -7.035   7.279  1.00  0.00     0.177 HD
ENDBRANCH  12  24
ENDBRANCH   1   7
BRANCH   6  27
HETATM   27  C13 UNL     1      18.897  -6.708   3.052  1.00  0.00     0.206 C
BRANCH  27  28
HETATM   28  N9  UNL     1      18.972  -5.246   2.847  1.00  0.00    -0.279 N
HETATM   29  C14 UNL     1      19.693  -4.589   1.954  1.00  0.00     0.136 A
HETATM   30  C15 UNL     1      19.535  -3.215   2.180  1.00  0.00     0.064 A
HETATM   31  N10 UNL     1      18.713  -3.112   3.205  1.00  0.00    -0.285 N
HETATM   32  N11 UNL     1      18.371  -4.334   3.612  1.00  0.00    -0.020 NA
ATOM     33  H10 UNL     1      18.391  -2.238   3.619  1.00  0.00     0.184 HD
BRANCH  30  34
HETATM   34  C16 UNL     1      20.285  -2.229   1.340  1.00  0.00     0.230 C
BRANCH  34  35
HETATM   35  O6  UNL     1      20.051  -0.924   1.760  1.00  0.00    -0.353 OA
BRANCH  35  36
HETATM   36  C17 UNL     1      20.635  -0.591   2.975  1.00  0.00     0.280 C
BRANCH  36  37
HETATM   37  O7  UNL     1      22.042  -0.409   2.805  1.00  0.00    -0.369 OA
ATOM     38  H7  UNL     1      22.368   0.213   3.446  1.00  0.00     0.212 HD
ENDBRANCH  36  37
BRANCH  36  39
HETATM   39  C18 UNL     1      20.076   0.679   3.506  1.00  0.00     0.224 C
BRANCH  39  40
HETATM   40  O8  UNL     1      20.120   0.704   4.880  1.00  0.00    -0.396 OA
ATOM     41  H8  UNL     1      20.345   1.570   5.200  1.00  0.00     0.209 HD
ENDBRANCH  39  40
ENDBRANCH  36  39
ENDBRANCH  35  36
ENDBRANCH  34  35
ENDBRANCH  30  34
ENDBRANCH  27  28
ENDBRANCH   6  27
BRANCH   3  42
HETATM   42  C10 UNL     1      20.128  -6.543   7.864  1.00  0.00     0.153 A
HETATM   43  N5  UNL     1      21.204  -7.233   8.261  1.00  0.00    -0.234 N
HETATM   44  O5  UNL     1      21.601  -6.682   9.415  1.00  0.00    -0.155 OA
ATOM     45  H5  UNL     1      21.637  -8.022   7.779  1.00  0.00     0.197 HD
HETATM   46  N6  UNL     1      20.845  -5.695   9.760  1.00  0.00    -0.224 N
HETATM   47  C11 UNL     1      19.902  -5.576   8.813  1.00  0.00     0.154 A
ATOM     48  H6  UNL     1      20.944  -5.116  10.594  1.00  0.00     0.198 HD
BRANCH  47  49
HETATM   49  N7  UNL     1      18.976  -4.680   8.773  1.00  0.00    -0.382 N
ATOM     50  H72 UNL     1      18.280  -4.504   9.497  1.00  0.00     0.157 HD
ATOM     51  H71 UNL     1      18.837  -3.996   8.029  1.00  0.00     0.157 HD
ENDBRANCH  47  49
ENDBRANCH   3  42
TORSDOF 16
ENDMDL