MODEL 4
REMARK VINA RESULT: -6.144845297      1.587      2.890
REMARK  18 active torsions:
REMARK  status: ('A' for Active; 'I' for Inactive)
REMARK    1  A    between atoms: O1_2  and  C2_3
REMARK    2  A    between atoms: C2_3  and  C3_5
REMARK    3  A    between atoms: C3_5  and  O3_6
REMARK    4  A    between atoms: C3_5  and  C4_8
REMARK    5  A    between atoms: C5_9  and  O4_10
REMARK    6  A    between atoms: C6_12  and  O5_13
REMARK    7  A    between atoms: C7_15  and  C8_16
REMARK    8  A    between atoms: C9_17  and  O6_18
REMARK    9  A    between atoms: O6_18  and  C10_19
REMARK   10  A    between atoms: C13_24  and  O9_25
REMARK   11  A    between atoms: C14_27  and  C15_28
REMARK   12  A    between atoms: C15_28  and  O10_29
REMARK   13  A    between atoms: C15_28  and  O11_31
REMARK   14  A    between atoms: C17_36  and  O14_37
REMARK   15  A    between atoms: C18_39  and  N1_40
REMARK   16  A    between atoms: N1_40  and  C19_42
REMARK   17  A    between atoms: C19_42  and  N2_43
REMARK   18  A    between atoms: C19_42  and  O15_47
ROOT
HETATM    1  C4  UNL     1      19.816 -11.840   1.301  1.00  0.00     0.045 A
HETATM    2  C5  UNL     1      20.048 -11.319   2.541  1.00  0.00     0.111 A
HETATM    3  C6  UNL     1      21.178 -11.750   3.269  1.00  0.00     0.113 A
HETATM    4  C7  UNL     1      22.056 -12.678   2.778  1.00  0.00     0.054 A
HETATM    5  C17 UNL     1      21.819 -13.203   1.525  1.00  0.00     0.107 A
HETATM    6  C18 UNL     1      20.724 -12.798   0.798  1.00  0.00     0.078 A
ENDROOT
BRANCH   4   7
HETATM    7  C8  UNL     1      23.202 -13.134   3.512  1.00  0.00     0.093 C
HETATM    8  C9  UNL     1      23.070 -14.372   4.092  1.00  0.00     0.149 C
HETATM    9  C12 UNL     1      23.893 -14.988   5.028  1.00  0.00     0.242 C
HETATM   10  O8  UNL     1      23.434 -16.001   5.592  1.00  0.00    -0.282 OA
HETATM   11  C13 UNL     1      25.175 -14.575   5.383  1.00  0.00     0.154 C
HETATM   12  C14 UNL     1      25.801 -13.378   5.092  1.00  0.00     0.148 C
HETATM   13  O12 UNL     1      25.419 -12.443   4.275  1.00  0.00    -0.271 OA
HETATM   14  C16 UNL     1      24.314 -12.285   3.559  1.00  0.00     0.302 C
HETATM   15  O13 UNL     1      24.213 -11.275   2.827  1.00  0.00    -0.259 OA
BRANCH   8  16
HETATM   16  O6  UNL     1      21.959 -15.075   3.670  1.00  0.00    -0.274 OA
BRANCH  16  17
HETATM   17  C10 UNL     1      22.144 -16.338   3.133  1.00  0.00     0.260 C
HETATM   18  C11 UNL     1      21.237 -17.476   3.463  1.00  0.00     0.126 C
HETATM   19  O7  UNL     1      23.080 -16.609   2.337  1.00  0.00    -0.265 OA
ENDBRANCH  16  17
ENDBRANCH   8  16
BRANCH  11  20
HETATM   20  O9  UNL     1      25.917 -15.480   6.126  1.00  0.00    -0.355 OA
ATOM     21  H9  UNL     1      26.091 -16.315   5.708  1.00  0.00     0.218 HD
ENDBRANCH  11  20
BRANCH  12  22
HETATM   22  C15 UNL     1      27.095 -13.124   5.815  1.00  0.00     0.316 C
BRANCH  22  23
HETATM   23  O10 UNL     1      26.919 -13.256   7.194  1.00  0.00    -0.365 OA
ATOM     24  H10 UNL     1      27.127 -14.140   7.472  1.00  0.00     0.213 HD
ENDBRANCH  22  23
BRANCH  22  25
HETATM   25  O11 UNL     1      28.078 -14.030   5.437  1.00  0.00    -0.365 OA
ATOM     26  H11 UNL     1      28.359 -13.887   4.541  1.00  0.00     0.213 HD
ENDBRANCH  22  25
ENDBRANCH  12  22
ENDBRANCH   4   7
BRANCH   3  27
HETATM   27  O5  UNL     1      21.348 -11.171   4.525  1.00  0.00    -0.357 OA
ATOM     28  H5  UNL     1      21.672 -10.278   4.527  1.00  0.00     0.217 HD
ENDBRANCH   3  27
BRANCH   5  29
HETATM   29  O14 UNL     1      22.681 -14.143   0.977  1.00  0.00    -0.357 OA
ATOM     30  H14 UNL     1      22.926 -14.919   1.468  1.00  0.00     0.217 HD
ENDBRANCH   5  29
BRANCH   2  31
HETATM   31  O4  UNL     1      19.209 -10.386   3.111  1.00  0.00    -0.357 OA
ATOM     32  H4  UNL     1      19.080  -9.524   2.733  1.00  0.00     0.217 HD
ENDBRANCH   2  31
BRANCH   6  33
HETATM   33  N1  UNL     1      20.502 -13.374  -0.508  1.00  0.00    -0.339 N
ATOM     34  H1  UNL     1      19.865 -14.165  -0.606  1.00  0.00     0.164 HD
BRANCH  33  35
HETATM   35  C19 UNL     1      21.163 -12.850  -1.667  1.00  0.00     0.424 C
BRANCH  35  36
HETATM   36  N2  UNL     1      20.315 -12.596  -2.788  1.00  0.00    -0.035 N
ATOM     37  H23 UNL     1      19.530 -12.009  -2.508  1.00  0.00     0.279 HD
ATOM     38  H22 UNL     1      20.780 -11.971  -3.445  1.00  0.00     0.279 HD
ATOM     39  H21 UNL     1      19.976 -13.427  -3.274  1.00  0.00     0.279 HD
ENDBRANCH  35  36
BRANCH  35  40
HETATM   40  O15 UNL     1      22.163 -13.757  -2.068  1.00  0.00    -0.355 OA
ATOM     41  H15 UNL     1      22.613 -13.401  -2.825  1.00  0.00     0.213 HD
ENDBRANCH  35  40
ENDBRANCH  33  35
ENDBRANCH   6  33
BRANCH   1  42
HETATM   42  C3  UNL     1      18.719 -11.428   0.398  1.00  0.00     0.256 C
BRANCH  42  43
HETATM   43  C2  UNL     1      17.816 -12.536   0.104  1.00  0.00     0.292 C
HETATM   44  O2  UNL     1      17.672 -12.887  -1.100  1.00  0.00    -0.262 OA
BRANCH  43  45
HETATM   45  O1  UNL     1      17.094 -13.251   1.043  1.00  0.00    -0.324 OA
HETATM   46  C1  UNL     1      16.375 -12.575   2.072  1.00  0.00     0.213 C
ENDBRANCH  43  45
ENDBRANCH  42  43
BRANCH  42  47
HETATM   47  O3  UNL     1      19.236 -10.852  -0.761  1.00  0.00    -0.381 OA
ATOM     48  H3  UNL     1      19.176  -9.904  -0.745  1.00  0.00     0.211 HD
ENDBRANCH  42  47
ENDBRANCH   1  42
TORSDOF 18
ENDMDL