MODEL 4
REMARK VINA RESULT: -8.814561412      5.103      9.852
REMARK  14 active torsions:
REMARK  status: ('A' for Active; 'I' for Inactive)
REMARK    1  A    between atoms: C4_10  and  C5_11
REMARK    2  A    between atoms: C5_11  and  O2_12
REMARK    3  A    between atoms: C5_11  and  O3_14
REMARK    4  A    between atoms: C6_18  and  C7_19
REMARK    5  A    between atoms: C7_19  and  N5_20
REMARK    6  A    between atoms: C7_19  and  C12_35
REMARK    7  A    between atoms: N5_20  and  C8_22
REMARK    8  A    between atoms: C8_22  and  C9_23
REMARK    9  A    between atoms: C9_23  and  S1_24
REMARK   10  A    between atoms: S1_24  and  C10_25
REMARK   11  A    between atoms: N7_31  and  N8_32
REMARK   12  A    between atoms: C12_35  and  O4_36
REMARK   13  A    between atoms: C12_35  and  O5_38
REMARK   14  A    between atoms: C15_43  and  O7_44
ROOT
HETATM    1  N1  UNL     1      12.276  -9.238   7.516  1.00  0.00    -0.080 NA
HETATM    2  C1  UNL     1      13.376  -9.330   6.602  1.00  0.00     0.153 A
HETATM    3  N2  UNL     1      13.445 -10.427   5.805  1.00  0.00    -0.308 N
ATOM      4  H2  UNL     1      12.740 -11.163   5.848  1.00  0.00     0.170 HD
HETATM    5  C2  UNL     1      14.483 -10.500   4.958  1.00  0.00     0.274 A
HETATM    6  O1  UNL     1      14.582 -11.506   4.199  1.00  0.00    -0.266 OA
HETATM    7  C3  UNL     1      15.469  -9.543   4.847  1.00  0.00     0.119 A
HETATM    8  N3  UNL     1      16.417  -9.841   3.921  1.00  0.00    -0.337 N
ATOM      9  H3  UNL     1      16.278 -10.722   3.426  1.00  0.00     0.167 HD
HETATM   10  C4  UNL     1      17.509  -9.149   3.560  1.00  0.00     0.138 C
HETATM   11  N4  UNL     1      18.099  -8.154   4.291  1.00  0.00    -0.340 N
ATOM     12  H4  UNL     1      19.105  -8.048   4.155  1.00  0.00     0.167 HD
HETATM   13  C6  UNL     1      17.542  -7.300   5.161  1.00  0.00     0.089 C
HETATM   14  C13 UNL     1      16.274  -7.381   5.696  1.00  0.00     0.212 C
HETATM   15  O6  UNL     1      15.827  -6.380   6.303  1.00  0.00    -0.285 OA
HETATM   16  C14 UNL     1      15.377  -8.442   5.665  1.00  0.00     0.085 A
HETATM   17  C15 UNL     1      14.327  -8.340   6.542  1.00  0.00     0.123 A
ENDROOT
BRANCH  13  18
HETATM   18  C7  UNL     1      18.338  -6.132   5.605  1.00  0.00     0.186 C
BRANCH  18  19
HETATM   19  N5  UNL     1      19.041  -5.574   4.503  1.00  0.00    -0.407 N
ATOM     20  H5  UNL     1      19.909  -5.995   4.170  1.00  0.00     0.154 HD
BRANCH  19  21
HETATM   21  C8  UNL     1      18.510  -4.421   3.879  1.00  0.00     0.125 C
BRANCH  21  22
HETATM   22  C9  UNL     1      19.582  -3.434   3.392  1.00  0.00     0.101 C
BRANCH  22  23
HETATM   23  S1  UNL     1      19.843  -3.593   1.621  1.00  0.00    -0.090 SA
BRANCH  23  24
HETATM   24  C10 UNL     1      19.373  -2.055   0.742  1.00  0.00     0.173 A
HETATM   25  N6  UNL     1      18.323  -2.111  -0.086  1.00  0.00    -0.303 N
HETATM   26  S2  UNL     1      18.216  -0.552  -0.690  1.00  0.00     0.020 SA
ATOM     27  H6  UNL     1      17.729  -2.913  -0.298  1.00  0.00     0.176 HD
HETATM   28  C11 UNL     1      19.531   0.124   0.145  1.00  0.00     0.182 A
HETATM   29  S3  UNL     1      20.146   1.667   0.120  1.00  0.00    -0.049 SA
HETATM   30  N7  UNL     1      19.993  -0.906   0.860  1.00  0.00    -0.221 N
BRANCH  30  31
HETATM   31  N8  UNL     1      21.132  -0.746   1.720  1.00  0.00    -0.335 N
ATOM     32  H82 UNL     1      21.402  -1.487   2.366  1.00  0.00     0.177 HD
ATOM     33  H81 UNL     1      21.696   0.105   1.712  1.00  0.00     0.177 HD
ENDBRANCH  30  31
ENDBRANCH  23  24
ENDBRANCH  22  23
ENDBRANCH  21  22
ENDBRANCH  19  21
ENDBRANCH  18  19
BRANCH  18  34
HETATM   34  C12 UNL     1      19.246  -6.670   6.719  1.00  0.00     0.282 C
BRANCH  34  35
HETATM   35  O4  UNL     1      20.161  -7.558   6.087  1.00  0.00    -0.369 OA
ATOM     36  H4  UNL     1      20.900  -7.639   6.679  1.00  0.00     0.212 HD
ENDBRANCH  34  35
BRANCH  34  37
HETATM   37  O5  UNL     1      18.512  -7.469   7.567  1.00  0.00    -0.369 OA
ATOM     38  H5  UNL     1      18.798  -8.372   7.482  1.00  0.00     0.212 HD
ENDBRANCH  34  37
ENDBRANCH  18  34
ENDBRANCH  13  18
BRANCH  10  39
HETATM   39  C5  UNL     1      18.169  -9.464   2.262  1.00  0.00     0.323 C
BRANCH  39  40
HETATM   40  O2  UNL     1      19.415 -10.059   2.431  1.00  0.00    -0.365 OA
ATOM     41  H2  UNL     1      20.096  -9.426   2.626  1.00  0.00     0.213 HD
ENDBRANCH  39  40
BRANCH  39  42
HETATM   42  O3  UNL     1      17.297 -10.342   1.584  1.00  0.00    -0.365 OA
ATOM     43  H3  UNL     1      17.612 -10.385   0.689  1.00  0.00     0.213 HD
ENDBRANCH  39  42
ENDBRANCH  10  39
BRANCH  17  44
HETATM   44  O7  UNL     1      14.236  -7.228   7.365  1.00  0.00    -0.356 OA
ATOM     45  H7  UNL     1      14.733  -6.443   7.169  1.00  0.00     0.218 HD
ENDBRANCH  17  44
TORSDOF 14
ENDMDL