MODEL 5
REMARK VINA RESULT: -9.071819553      1.656      5.028
REMARK  16 active torsions:
REMARK  status: ('A' for Active; 'I' for Inactive)
REMARK    1  A    between atoms: O1_2  and  C2_3
REMARK    2  A    between atoms: C2_3  and  C3_5
REMARK    3  A    between atoms: C4_8  and  C5_9
REMARK    4  A    between atoms: C5_9  and  O3_10
REMARK    5  A    between atoms: C5_9  and  C6_12
REMARK    6  A    between atoms: C6_12  and  O4_13
REMARK    7  A    between atoms: C6_12  and  C7_15
REMARK    8  A    between atoms: C7_15  and  N2_16
REMARK    9  A    between atoms: C7_15  and  C12_34
REMARK   10  A    between atoms: N2_16  and  C8_18
REMARK   11  A    between atoms: C9_19  and  O5_20
REMARK   12  A    between atoms: C10_24  and  N4_25
REMARK   13  A    between atoms: C11_30  and  N6_31
REMARK   14  A    between atoms: C17_47  and  C18_48
REMARK   15  A    between atoms: C18_48  and  O8_49
REMARK   16  A    between atoms: C18_48  and  O9_51
ROOT
HETATM    1  C12 UNL     1      16.907  -7.139   5.517  1.00  0.00     0.057 A
HETATM    2  C13 UNL     1      15.788  -7.003   6.311  1.00  0.00     0.064 A
HETATM    3  C14 UNL     1      14.921  -8.059   6.151  1.00  0.00     0.105 A
HETATM    4  N7  UNL     1      13.756  -8.616   6.513  1.00  0.00    -0.238 N
ATOM      5  H7  UNL     1      13.087  -8.239   7.183  1.00  0.00     0.197 HD
HETATM    6  O6  UNL     1      13.637  -9.743   5.837  1.00  0.00    -0.155 OA
HETATM    7  N8  UNL     1      14.679  -9.911   5.071  1.00  0.00    -0.222 N
ATOM      8  H8  UNL     1      14.824 -10.708   4.450  1.00  0.00     0.198 HD
HETATM    9  C15 UNL     1      15.540  -8.878   5.218  1.00  0.00     0.172 A
HETATM   10  N9  UNL     1      16.703  -8.325   4.856  1.00  0.00    -0.232 N
HETATM   11  C16 UNL     1      17.593  -8.871   3.935  1.00  0.00     0.191 C
HETATM   12  N10 UNL     1      18.318  -9.327   3.169  1.00  0.00    -0.171 NA
ENDROOT
BRANCH   1  13
HETATM   13  C7  UNL     1      18.066  -6.255   5.380  1.00  0.00     0.165 C
BRANCH  13  14
HETATM   14  C6  UNL     1      17.817  -5.362   4.166  1.00  0.00     0.183 C
BRANCH  14  15
HETATM   15  C5  UNL     1      18.896  -5.418   3.143  1.00  0.00     0.224 C
BRANCH  15  16
HETATM   16  C4  UNL     1      19.110  -4.027   2.651  1.00  0.00     0.156 A
HETATM   17  N1  UNL     1      18.576  -3.556   1.516  1.00  0.00    -0.331 N
HETATM   18  C3  UNL     1      18.948  -2.249   1.325  1.00  0.00     0.145 A
ATOM     19  H1  UNL     1      17.979  -4.091   0.884  1.00  0.00     0.168 HD
HETATM   20  C17 UNL     1      19.726  -1.958   2.394  1.00  0.00     0.142 A
HETATM   21  O7  UNL     1      19.791  -3.057   3.157  1.00  0.00    -0.292 OA
BRANCH  18  22
HETATM   22  C2  UNL     1      18.531  -1.484   0.175  1.00  0.00     0.312 C
HETATM   23  O2  UNL     1      18.622  -1.870  -1.003  1.00  0.00    -0.258 OA
BRANCH  22  24
HETATM   24  O1  UNL     1      17.976  -0.201   0.335  1.00  0.00    -0.321 OA
HETATM   25  C1  UNL     1      18.491   0.919  -0.382  1.00  0.00     0.213 C
ENDBRANCH  22  24
ENDBRANCH  18  22
BRANCH  20  26
HETATM   26  C18 UNL     1      20.387  -0.666   2.683  1.00  0.00     0.315 C
BRANCH  26  27
HETATM   27  O8  UNL     1      21.763  -0.799   2.745  1.00  0.00    -0.365 OA
ATOM     28  H8  UNL     1      22.154  -0.803   1.879  1.00  0.00     0.213 HD
ENDBRANCH  26  27
BRANCH  26  29
HETATM   29  O9  UNL     1      19.976  -0.273   3.974  1.00  0.00    -0.365 OA
ATOM     30  H9  UNL     1      19.147   0.181   3.875  1.00  0.00     0.213 HD
ENDBRANCH  26  29
ENDBRANCH  20  26
ENDBRANCH  15  16
BRANCH  15  31
HETATM   31  O3  UNL     1      20.111  -5.883   3.587  1.00  0.00    -0.385 OA
ATOM     32  H3  UNL     1      20.056  -5.952   4.532  1.00  0.00     0.210 HD
ENDBRANCH  15  31
ENDBRANCH  14  15
BRANCH  14  33
HETATM   33  O4  UNL     1      17.498  -4.069   4.481  1.00  0.00    -0.390 OA
ATOM     34  H4  UNL     1      18.261  -3.505   4.432  1.00  0.00     0.210 HD
ENDBRANCH  14  33
ENDBRANCH  13  14
BRANCH  13  35
HETATM   35  N2  UNL     1      18.521  -5.528   6.500  1.00  0.00    -0.371 N
ATOM     36  H2  UNL     1      18.133  -4.589   6.590  1.00  0.00     0.160 HD
BRANCH  35  37
HETATM   37  C8  UNL     1      19.425  -5.894   7.509  1.00  0.00     0.125 A
HETATM   38  C9  UNL     1      19.336  -5.163   8.701  1.00  0.00     0.185 A
HETATM   39  N3  UNL     1      20.139  -5.458   9.736  1.00  0.00    -0.168 N
HETATM   40  C10 UNL     1      21.042  -6.445   9.670  1.00  0.00     0.679 A
ATOM     41  H3  UNL     1      20.059  -4.914  10.596  1.00  0.00     0.186 HD
HETATM   42  N5  UNL     1      21.158  -7.169   8.545  1.00  0.00    -0.175 N
HETATM   43  C11 UNL     1      20.354  -6.891   7.478  1.00  0.00     0.145 A
ATOM     44  H5  UNL     1      21.844  -7.922   8.488  1.00  0.00     0.186 HD
BRANCH  38  45
HETATM   45  O5  UNL     1      18.406  -4.119   8.821  1.00  0.00    -0.344 OA
ATOM     46  H5  UNL     1      17.667  -4.065   8.224  1.00  0.00     0.219 HD
ENDBRANCH  38  45
BRANCH  40  47
HETATM   47  N4  UNL     1      21.822  -6.725  10.685  1.00  0.00    -0.234 N
ATOM     48  H42 UNL     1      22.016  -5.996  11.372  1.00  0.00     0.174 HD
ATOM     49  H41 UNL     1      22.235  -7.651  10.798  1.00  0.00     0.174 HD
ENDBRANCH  40  47
BRANCH  43  50
HETATM   50  N6  UNL     1      20.469  -7.615   6.445  1.00  0.00    -0.383 N
ATOM     51  H62 UNL     1      19.709  -8.258   6.226  1.00  0.00     0.157 HD
ATOM     52  H61 UNL     1      21.293  -7.524   5.850  1.00  0.00     0.157 HD
ENDBRANCH  43  50
ENDBRANCH  35  37
ENDBRANCH  13  35
ENDBRANCH   1  13
TORSDOF 16
ENDMDL