MODEL 1
REMARK VINA RESULT: -8.910567011      0.000      0.000
REMARK  15 active torsions:
REMARK  status: ('A' for Active; 'I' for Inactive)
REMARK    1  A    between atoms: C2_2  and  O1_3
REMARK    2  A    between atoms: C3_7  and  N2_8
REMARK    3  A    between atoms: N2_8  and  C4_10
REMARK    4  A    between atoms: C5_16  and  C6_17
REMARK    5  A    between atoms: C7_20  and  C8_21
REMARK    6  A    between atoms: C10_23  and  C11_24
REMARK    7  A    between atoms: C11_24  and  N6_25
REMARK    8  A    between atoms: N6_25  and  C12_27
REMARK    9  A    between atoms: C12_27  and  C13_28
REMARK   10  A    between atoms: C12_27  and  C14_31
REMARK   11  A    between atoms: C13_28  and  O3_29
REMARK   12  A    between atoms: C14_31  and  O4_32
REMARK   13  A    between atoms: C16_37  and  C17_38
REMARK   14  A    between atoms: C18_41  and  O6_42
REMARK   15  A    between atoms: N9_44  and  N10_45
ROOT
HETATM    1  C6  UNL     1      21.101  -9.967   4.339  1.00  0.00     0.162 A
HETATM    2  N5  UNL     1      20.907  -8.647   4.642  1.00  0.00    -0.335 N
ATOM      3  H5  UNL     1      21.545  -8.095   5.215  1.00  0.00     0.168 HD
HETATM    4  C7  UNL     1      19.800  -8.169   4.107  1.00  0.00     0.100 A
HETATM    5  C18 UNL     1      19.241  -9.240   3.416  1.00  0.00     0.191 A
HETATM    6  N9  UNL     1      20.073 -10.314   3.590  1.00  0.00    -0.220 N
ENDROOT
BRANCH   4   7
HETATM    7  C8  UNL     1      19.193  -6.846   4.158  1.00  0.00     0.028 A
HETATM    8  C9  UNL     1      19.652  -5.872   3.240  1.00  0.00     0.026 A
HETATM    9  C10 UNL     1      19.182  -4.599   3.254  1.00  0.00    -0.025 A
HETATM   10  C15 UNL     1      18.238  -4.268   4.193  1.00  0.00     0.097 A
HETATM   11  N7  UNL     1      17.809  -5.179   5.049  1.00  0.00    -0.360 N
HETATM   12  C16 UNL     1      18.263  -6.469   5.057  1.00  0.00     0.110 A
ATOM     13  H7  UNL     1      17.106  -4.908   5.736  1.00  0.00     0.165 HD
BRANCH   9  14
HETATM   14  C11 UNL     1      19.662  -3.596   2.286  1.00  0.00     0.154 C
BRANCH  14  15
HETATM   15  N6  UNL     1      19.845  -2.363   2.979  1.00  0.00    -0.409 N
ATOM     16  H6  UNL     1      20.127  -2.334   3.959  1.00  0.00     0.154 HD
BRANCH  15  17
HETATM   17  C12 UNL     1      19.614  -1.173   2.228  1.00  0.00     0.124 C
BRANCH  17  18
HETATM   18  C13 UNL     1      19.632  -1.415   0.733  1.00  0.00     0.191 C
BRANCH  18  19
HETATM   19  O3  UNL     1      20.807  -0.873   0.211  1.00  0.00    -0.399 OA
ATOM     20  H3  UNL     1      21.116  -1.439  -0.486  1.00  0.00     0.209 HD
ENDBRANCH  18  19
ENDBRANCH  17  18
BRANCH  17  21
HETATM   21  C14 UNL     1      20.576  -0.103   2.636  1.00  0.00     0.191 C
BRANCH  21  22
HETATM   22  O4  UNL     1      21.826  -0.671   2.847  1.00  0.00    -0.399 OA
ATOM     23  H4  UNL     1      22.481   0.017   2.865  1.00  0.00     0.209 HD
ENDBRANCH  21  22
ENDBRANCH  17  21
ENDBRANCH  15  17
ENDBRANCH  14  15
ENDBRANCH   9  14
BRANCH  12  24
HETATM   24  C17 UNL     1      17.678  -7.393   5.996  1.00  0.00     0.282 C
HETATM   25  N8  UNL     1      16.646  -8.263   5.549  1.00  0.00    -0.056 NA
HETATM   26  O5  UNL     1      18.026  -7.473   7.172  1.00  0.00    -0.269 OA
ENDBRANCH  12  24
ENDBRANCH   4   7
BRANCH   5  27
HETATM   27  O6  UNL     1      18.060  -9.214   2.690  1.00  0.00    -0.343 OA
ATOM     28  H6  UNL     1      17.913  -9.628   1.847  1.00  0.00     0.219 HD
ENDBRANCH   5  27
BRANCH   1  29
HETATM   29  C5  UNL     1      22.257 -10.692   4.828  1.00  0.00     0.148 A
HETATM   30  C4  UNL     1      23.254 -11.383   4.175  1.00  0.00     0.163 A
HETATM   31  N3  UNL     1      24.079 -11.870   5.144  1.00  0.00    -0.223 N
HETATM   32  O2  UNL     1      23.649 -11.520   6.313  1.00  0.00    -0.155 OA
ATOM     33  H3  UNL     1      24.914 -12.428   4.973  1.00  0.00     0.198 HD
HETATM   34  N4  UNL     1      22.585 -10.832   6.153  1.00  0.00    -0.234 N
ATOM     35  H4  UNL     1      22.044 -10.433   6.920  1.00  0.00     0.197 HD
BRANCH  30  36
HETATM   36  N2  UNL     1      23.403 -11.557   2.949  1.00  0.00    -0.310 N
ATOM     37  H2  UNL     1      24.084 -10.930   2.521  1.00  0.00     0.170 HD
BRANCH  36  38
HETATM   38  C3  UNL     1      22.806 -12.455   2.045  1.00  0.00     0.196 C
HETATM   39  N1  UNL     1      22.597 -12.372   0.794  1.00  0.00    -0.314 N
HETATM   40  C2  UNL     1      21.957 -13.528   0.267  1.00  0.00     0.226 C
ATOM     41  H1  UNL     1      22.859 -11.564   0.229  1.00  0.00     0.167 HD
HETATM   42  C1  UNL     1      20.956 -13.254  -0.812  1.00  0.00     0.094 C
HETATM   43  N12 UNL     1      21.337 -14.124   1.453  1.00  0.00    -0.078 NA
HETATM   44  N11 UNL     1      22.268 -13.754   2.430  1.00  0.00    -0.271 N
ATOM     45  H11 UNL     1      22.522 -14.293   3.257  1.00  0.00     0.185 HD
BRANCH  40  46
HETATM   46  O1  UNL     1      22.979 -14.390  -0.199  1.00  0.00    -0.356 OA
ATOM     47  H1  UNL     1      23.469 -14.757   0.528  1.00  0.00     0.214 HD
ENDBRANCH  40  46
ENDBRANCH  36  38
ENDBRANCH  30  36
ENDBRANCH   1  29
BRANCH   6  48
HETATM   48  N10 UNL     1      19.756 -11.547   3.001  1.00  0.00    -0.335 N
ATOM     49 2H10 UNL     1      20.183 -12.404   3.354  1.00  0.00     0.177 HD
ATOM     50 1H10 UNL     1      19.132 -11.766   2.225  1.00  0.00     0.177 HD
ENDBRANCH   6  48
TORSDOF 15
ENDMDL