MODEL 5
REMARK VINA RESULT: -7.989235894      2.909      4.924
REMARK  13 active torsions:
REMARK  status: ('A' for Active; 'I' for Inactive)
REMARK    1  A    between atoms: N1_1  and  C1_4
REMARK    2  A    between atoms: C4_11  and  C5_12
REMARK    3  A    between atoms: C6_13  and  N4_14
REMARK    4  A    between atoms: N4_14  and  C7_16
REMARK    5  A    between atoms: C7_16  and  C8_17
REMARK    6  A    between atoms: C8_17  and  O1_18
REMARK    7  A    between atoms: O1_18  and  C9_19
REMARK    8  A    between atoms: C9_19  and  N5_20
REMARK    9  A    between atoms: C9_19  and  N6_24
REMARK   10  A    between atoms: C9_19  and  O2_28
REMARK   11  A    between atoms: C10_32  and  C11_33
REMARK   12  A    between atoms: N11_41  and  N12_42
REMARK   13  A    between atoms: C14_50  and  C15_51
ROOT
HETATM    1  C5  UNL     1      18.599 -11.862   0.963  1.00  0.00     0.132 A
HETATM    2  C6  UNL     1      18.941 -11.666  -0.359  1.00  0.00     0.134 A
HETATM    3  N7  UNL     1      18.299 -12.586  -1.085  1.00  0.00    -0.323 N
ATOM      4  H7  UNL     1      18.359 -12.686  -2.098  1.00  0.00     0.169 HD
HETATM    5  C10 UNL     1      17.540 -13.380  -0.245  1.00  0.00     0.159 A
HETATM    6  N11 UNL     1      17.753 -12.907   0.981  1.00  0.00    -0.238 N
ENDROOT
BRANCH   1   7
HETATM    7  C4  UNL     1      19.041 -11.054   2.069  1.00  0.00     0.110 A
HETATM    8  C3  UNL     1      20.197 -11.331   2.771  1.00  0.00     0.082 A
HETATM    9  N3  UNL     1      20.933 -12.399   2.422  1.00  0.00    -0.349 N
HETATM   10  C17 UNL     1      20.651 -10.551   3.814  1.00  0.00     0.084 A
HETATM   11  C2  UNL     1      22.082 -12.758   3.022  1.00  0.00     0.182 A
ATOM     12  H3  UNL     1      20.598 -12.976   1.650  1.00  0.00     0.166 HD
HETATM   13  N2  UNL     1      22.523 -12.013   4.027  1.00  0.00    -0.338 N
HETATM   14  C1  UNL     1      21.821 -10.900   4.442  1.00  0.00     0.116 A
ATOM     15  H2  UNL     1      23.392 -12.265   4.499  1.00  0.00     0.168 HD
HETATM   16  C16 UNL     1      19.894  -9.451   4.147  1.00  0.00     0.163 A
HETATM   17  N14 UNL     1      18.764  -9.186   3.456  1.00  0.00    -0.176 N
HETATM   18  N17 UNL     1      20.049  -8.514   5.084  1.00  0.00    -0.320 N
HETATM   19  N13 UNL     1      18.358  -9.950   2.466  1.00  0.00    -0.273 N
HETATM   20  N15 UNL     1      18.223  -8.071   3.978  1.00  0.00    -0.258 N
ATOM     21  H13 UNL     1      17.497  -9.704   1.978  1.00  0.00     0.189 HD
HETATM   22  C14 UNL     1      19.021  -7.656   4.988  1.00  0.00     0.189 A
ATOM     23  H15 UNL     1      17.363  -7.619   3.668  1.00  0.00     0.191 HD
ATOM     24  H17 UNL     1      20.814  -8.459   5.755  1.00  0.00     0.169 HD
BRANCH  14  25
HETATM   25  N1  UNL     1      22.275 -10.223   5.397  1.00  0.00    -0.385 N
ATOM     26  H12 UNL     1      22.650 -10.671   6.232  1.00  0.00     0.157 HD
ATOM     27  H11 UNL     1      22.263  -9.206   5.326  1.00  0.00     0.157 HD
ENDBRANCH  14  25
BRANCH  22  28
HETATM   28  C15 UNL     1      18.778  -6.481   5.803  1.00  0.00     0.300 C
HETATM   29  N16 UNL     1      18.144  -6.574   7.069  1.00  0.00    -0.054 NA
HETATM   30  O3  UNL     1      19.132  -5.361   5.383  1.00  0.00    -0.268 OA
ENDBRANCH  22  28
ENDBRANCH   1   7
BRANCH   2  31
HETATM   31  N4  UNL     1      19.812 -10.640  -0.814  1.00  0.00    -0.372 N
ATOM     32  H4  UNL     1      19.625  -9.667  -0.571  1.00  0.00     0.161 HD
BRANCH  31  33
HETATM   33  C7  UNL     1      20.962 -10.975  -1.621  1.00  0.00     0.147 C
BRANCH  33  34
HETATM   34  C8  UNL     1      21.805 -11.969  -0.895  1.00  0.00     0.194 C
BRANCH  34  35
HETATM   35  O1  UNL     1      22.151 -13.103  -1.549  1.00  0.00    -0.309 OA
BRANCH  35  36
HETATM   36  C9  UNL     1      21.747 -14.315  -1.114  1.00  0.00     0.507 C
BRANCH  36  37
HETATM   37  N5  UNL     1      22.968 -15.059  -0.740  1.00  0.00     0.005 N
ATOM     38  H53 UNL     1      23.813 -14.695  -1.181  1.00  0.00     0.283 HD
ATOM     39  H52 UNL     1      23.253 -14.907   0.227  1.00  0.00     0.283 HD
ATOM     40  H51 UNL     1      22.790 -16.039  -0.959  1.00  0.00     0.283 HD
ENDBRANCH  36  37
BRANCH  36  41
HETATM   41  N6  UNL     1      21.143 -15.130  -2.170  1.00  0.00     0.005 N
ATOM     42  H63 UNL     1      21.737 -15.150  -2.999  1.00  0.00     0.283 HD
ATOM     43  H62 UNL     1      21.167 -16.120  -1.924  1.00  0.00     0.283 HD
ATOM     44  H61 UNL     1      20.196 -14.838  -2.408  1.00  0.00     0.283 HD
ENDBRANCH  36  41
BRANCH  36  45
HETATM   45  O2  UNL     1      20.942 -14.349   0.005  1.00  0.00    -0.321 OA
ATOM     46  H2  UNL     1      20.812 -15.193   0.423  1.00  0.00     0.216 HD
ENDBRANCH  36  45
ENDBRANCH  35  36
ENDBRANCH  34  35
ENDBRANCH  33  34
ENDBRANCH  31  33
ENDBRANCH   2  31
BRANCH   6  47
HETATM   47  N12 UNL     1      17.188 -13.366   2.181  1.00  0.00    -0.336 N
ATOM     48 2H12 UNL     1      17.242 -12.925   3.099  1.00  0.00     0.177 HD
ATOM     49 1H12 UNL     1      16.665 -14.241   2.220  1.00  0.00     0.177 HD
ENDBRANCH   6  47
BRANCH   5  50
HETATM   50  C11 UNL     1      16.721 -14.480  -0.740  1.00  0.00     0.121 A
HETATM   51  N8  UNL     1      16.731 -15.702  -0.083  1.00  0.00    -0.347 N
HETATM   52  C12 UNL     1      15.923 -16.558  -0.711  1.00  0.00     0.182 A
ATOM     53  H8  UNL     1      17.275 -15.914   0.754  1.00  0.00     0.167 HD
HETATM   54  N9  UNL     1      15.370 -15.959  -1.764  1.00  0.00    -0.339 N
HETATM   55  C13 UNL     1      15.872 -14.678  -1.769  1.00  0.00     0.148 A
ATOM     56  H9  UNL     1      14.712 -16.366  -2.428  1.00  0.00     0.167 HD
HETATM   57  N10 UNL     1      15.508 -13.731  -2.766  1.00  0.00    -0.080 NA
ENDBRANCH   5  50
TORSDOF 13
ENDMDL