MODEL 4
REMARK VINA RESULT: -7.286525624      1.698      1.991
REMARK  11 active torsions:
REMARK  status: ('A' for Active; 'I' for Inactive)
REMARK    1  A    between atoms: C2_2  and  C3_4
REMARK    2  A    between atoms: C5_7  and  C6_8
REMARK       I    between atoms: C6_8  and  N2_10
REMARK       I    between atoms: N2_10  and  C7_12
REMARK       I    between atoms: C7_12  and  N3_13
REMARK       I    between atoms: C7_12  and  N4_17
REMARK    3  A    between atoms: C8_24  and  N6_25
REMARK    4  A    between atoms: N6_25  and  C9_26
REMARK    5  A    between atoms: C9_26  and  O4_27
REMARK    6  A    between atoms: C9_26  and  C10_29
REMARK    7  A    between atoms: C11_31  and  C12_32
REMARK    8  A    between atoms: C12_32  and  O6_33
REMARK    9  A    between atoms: C12_32  and  N7_35
REMARK   10  A    between atoms: C16_42  and  N9_43
REMARK   11  A    between atoms: C17_45  and  C19_47
ROOT
HETATM    1  N7  UNL     1      13.883 -14.037   3.050  1.00  0.00    -0.295 N
ATOM      2  H7  UNL     1      13.740 -14.993   3.374  1.00  0.00     0.174 HD
HETATM    3  C13 UNL     1      12.980 -13.425   2.175  1.00  0.00     0.179 C
HETATM    4  N8  UNL     1      12.223 -12.898   1.454  1.00  0.00    -0.172 NA
ENDROOT
BRANCH   1   5
HETATM    5  C12 UNL     1      15.023 -13.265   3.475  1.00  0.00     0.285 C
BRANCH   5   6
HETATM    6  C11 UNL     1      16.204 -13.490   2.590  1.00  0.00     0.106 A
HETATM    7  O5  UNL     1      17.080 -12.537   2.350  1.00  0.00    -0.306 OA
HETATM    8  C10 UNL     1      18.123 -12.716   1.577  1.00  0.00     0.145 A
HETATM    9  C16 UNL     1      18.398 -13.906   0.948  1.00  0.00     0.119 A
HETATM   10  C15 UNL     1      17.504 -14.953   1.167  1.00  0.00     0.203 A
HETATM   11  C14 UNL     1      16.416 -14.715   1.992  1.00  0.00     0.094 A
HETATM   12  O7  UNL     1      17.738 -16.034   0.607  1.00  0.00    -0.286 OA
BRANCH   8  13
HETATM   13  C9  UNL     1      19.096 -11.558   1.347  1.00  0.00     0.362 C
BRANCH  13  14
HETATM   14  N6  UNL     1      20.066 -11.606   2.257  1.00  0.00    -0.382 NA
BRANCH  14  15
HETATM   15  C8  UNL     1      20.940 -11.652   3.077  1.00  0.00     0.254 A
HETATM   16  C3  UNL     1      22.006 -12.519   3.197  1.00  0.00     0.103 A
HETATM   17  C4  UNL     1      22.896 -12.359   4.257  1.00  0.00     0.099 A
HETATM   18  N1  UNL     1      24.005 -13.227   4.420  1.00  0.00    -0.099 NA
HETATM   19  C5  UNL     1      22.754 -11.363   5.199  1.00  0.00     0.147 A
HETATM   20  N5  UNL     1      21.683 -10.558   5.005  1.00  0.00    -0.251 N
HETATM   21  O3  UNL     1      20.873 -10.701   4.042  1.00  0.00    -0.203 OA
ATOM     22  H5  UNL     1      21.520  -9.800   5.667  1.00  0.00     0.195 HD
BRANCH  16  23
HETATM   23  C2  UNL     1      22.255 -13.595   2.271  1.00  0.00     0.163 C
HETATM   24  C1  UNL     1      22.142 -15.035   2.486  1.00  0.00     0.097 C
HETATM   25  O1  UNL     1      22.630 -13.253   1.089  1.00  0.00    -0.293 OA
ENDBRANCH  16  23
BRANCH  19  26
HETATM   26  C6  UNL     1      23.668 -11.188   6.307  1.00  0.00     0.274 C
HETATM   27  O2  UNL     1      24.526 -10.283   6.250  1.00  0.00    -0.266 OA
HETATM   28  N2  UNL     1      23.618 -12.009   7.451  1.00  0.00    -0.306 N
HETATM   29  C7  UNL     1      24.502 -11.881   8.581  1.00  0.00     0.483 C
ATOM     30  H2  UNL     1      22.910 -12.742   7.481  1.00  0.00     0.166 HD
HETATM   31  N3  UNL     1      25.257 -13.122   8.755  1.00  0.00    -0.033 N
HETATM   32  N4  UNL     1      23.802 -11.663   9.822  1.00  0.00    -0.033 N
ATOM     33  H33 UNL     1      24.646 -13.936   8.834  1.00  0.00     0.278 HD
ATOM     34  H32 UNL     1      25.753 -13.393   7.907  1.00  0.00     0.278 HD
ATOM     35  H31 UNL     1      25.883 -13.031   9.556  1.00  0.00     0.278 HD
ATOM     36  H43 UNL     1      23.180 -10.857   9.752  1.00  0.00     0.278 HD
ATOM     37  H42 UNL     1      23.109 -12.394   9.982  1.00  0.00     0.278 HD
ATOM     38  H41 UNL     1      24.428 -11.572  10.622  1.00  0.00     0.278 HD
ENDBRANCH  19  26
ENDBRANCH  14  15
ENDBRANCH  13  14
BRANCH  13  39
HETATM   39  O4  UNL     1      18.285 -10.394   1.585  1.00  0.00    -0.360 OA
ATOM     40  H4  UNL     1      18.275  -9.857   0.801  1.00  0.00     0.213 HD
ENDBRANCH  13  39
ENDBRANCH   8  13
BRANCH   9  41
HETATM   41  N9  UNL     1      19.537 -14.018   0.129  1.00  0.00    -0.352 N
HETATM   42  C17 UNL     1      19.507 -13.841  -1.154  1.00  0.00     0.047 C
HETATM   43  C18 UNL     1      18.211 -13.506  -1.780  1.00  0.00     0.072 C
ATOM     44  H9  UNL     1      20.429 -14.251   0.566  1.00  0.00     0.166 HD
BRANCH  42  45
HETATM   45  C19 UNL     1      20.690 -13.958  -1.986  1.00  0.00     0.132 C
HETATM   46  N10 UNL     1      20.768 -14.938  -2.812  1.00  0.00    -0.386 N
ATOM     47 2H10 UNL     1      19.998 -15.606  -2.860  1.00  0.00     0.157 HD
ATOM     48 1H10 UNL     1      21.600 -15.021  -3.397  1.00  0.00     0.157 HD
HETATM   49  N11 UNL     1      21.758 -13.032  -1.919  1.00  0.00    -0.081 NA
ENDBRANCH  42  45
ENDBRANCH   9  41
ENDBRANCH   5   6
BRANCH   5  50
HETATM   50  O6  UNL     1      14.639 -11.924   3.496  1.00  0.00    -0.370 OA
ATOM     51  H6  UNL     1      14.243 -11.683   4.325  1.00  0.00     0.212 HD
ENDBRANCH   5  50
ENDBRANCH   1   5
TORSDOF 11
ENDMDL