MODEL 2
REMARK VINA RESULT: -8.682494370      4.060      9.724
REMARK  16 active torsions:
REMARK  status: ('A' for Active; 'I' for Inactive)
REMARK    1  A    between atoms: N1_1  and  C1_4
REMARK    2  A    between atoms: C2_7  and  O1_8
REMARK    3  A    between atoms: C3_10  and  O2_11
REMARK    4  A    between atoms: C4_13  and  C5_14
REMARK    5  A    between atoms: N5_19  and  C6_20
REMARK    6  A    between atoms: C6_20  and  C7_21
REMARK    7  A    between atoms: C7_21  and  O3_22
REMARK    8  A    between atoms: C7_21  and  C8_24
REMARK    9  A    between atoms: C8_24  and  O4_25
REMARK   10  A    between atoms: C9_27  and  O5_28
REMARK   11  A    between atoms: C10_30  and  N6_31
REMARK   12  A    between atoms: N6_31  and  C11_33
REMARK   13  A    between atoms: C11_33  and  O6_34
REMARK   14  A    between atoms: C11_33  and  C12_36
REMARK   15  A    between atoms: C13_41  and  S1_42
REMARK   16  A    between atoms: S1_42  and  N9_43
ROOT
HETATM    1  C1  UNL     1      17.295  -5.851   5.893  1.00  0.00     0.129 A
HETATM    2  N2  UNL     1      16.129  -6.185   6.468  1.00  0.00    -0.319 N
ATOM      3  H2  UNL     1      15.700  -5.525   7.117  1.00  0.00     0.169 HD
HETATM    4  C2  UNL     1      15.504  -7.342   6.230  1.00  0.00     0.176 A
HETATM    5  C3  UNL     1      16.063  -8.243   5.364  1.00  0.00     0.132 A
HETATM    6  C4  UNL     1      17.284  -7.951   4.730  1.00  0.00     0.064 A
HETATM    7  C10 UNL     1      17.882  -6.763   5.005  1.00  0.00     0.090 A
ENDROOT
BRANCH   7   8
HETATM    8  N6  UNL     1      19.086  -6.366   4.423  1.00  0.00    -0.355 N
ATOM      9  H6  UNL     1      19.930  -6.382   4.994  1.00  0.00     0.162 HD
BRANCH   8  10
HETATM   10  C11 UNL     1      19.192  -5.943   3.076  1.00  0.00     0.278 C
BRANCH  10  11
HETATM   11  O6  UNL     1      18.083  -6.212   2.304  1.00  0.00    -0.370 OA
ATOM     12  H6  UNL     1      17.260  -5.933   2.687  1.00  0.00     0.212 HD
ENDBRANCH  10  11
BRANCH  10  13
HETATM   13  C12 UNL     1      19.542  -4.487   2.958  1.00  0.00     0.117 A
HETATM   14  N7  UNL     1      19.928  -3.606   3.864  1.00  0.00    -0.292 N
HETATM   15  N8  UNL     1      20.170  -2.414   3.520  1.00  0.00    -0.282 N
ATOM     16  H7  UNL     1      20.031  -3.887   4.839  1.00  0.00     0.187 HD
HETATM   17  C13 UNL     1      20.036  -2.044   2.252  1.00  0.00     0.207 A
ATOM     18  H8  UNL     1      20.470  -1.733   4.219  1.00  0.00     0.188 HD
HETATM   19  S2  UNL     1      19.528  -3.539   1.546  1.00  0.00    -0.038 SA
BRANCH  17  20
HETATM   20  S1  UNL     1      20.303  -0.474   1.509  1.00  0.00     0.280 S
HETATM   21  O7  UNL     1      21.087   0.428   2.398  1.00  0.00    -0.199 OA
HETATM   22  O8  UNL     1      18.924   0.138   1.311  1.00  0.00    -0.199 OA
BRANCH  20  23
HETATM   23  N9  UNL     1      21.033  -0.595  -0.025  1.00  0.00    -0.323 N
ATOM     24  H92 UNL     1      22.037  -0.482  -0.173  1.00  0.00     0.169 HD
ATOM     25  H91 UNL     1      20.358  -0.793  -0.763  1.00  0.00     0.169 HD
ENDBRANCH  20  23
ENDBRANCH  17  20
ENDBRANCH  10  13
ENDBRANCH   8  10
ENDBRANCH   7   8
BRANCH   1  26
HETATM   26  N1  UNL     1      17.822  -4.720   6.153  1.00  0.00    -0.384 N
ATOM     27  H12 UNL     1      17.491  -4.127   6.914  1.00  0.00     0.157 HD
ATOM     28  H11 UNL     1      18.612  -4.394   5.597  1.00  0.00     0.157 HD
ENDBRANCH   1  26
BRANCH   6  29
HETATM   29  C5  UNL     1      17.824  -8.882   3.772  1.00  0.00     0.117 A
HETATM   30  N3  UNL     1      17.132  -9.324   2.694  1.00  0.00    -0.281 N
HETATM   31  N4  UNL     1      17.841 -10.193   2.010  1.00  0.00    -0.238 N
ATOM     32  H3  UNL     1      16.190  -9.022   2.447  1.00  0.00     0.188 HD
HETATM   33  N5  UNL     1      19.030 -10.345   2.631  1.00  0.00    -0.252 N
ATOM     34  H4  UNL     1      17.545 -10.669   1.158  1.00  0.00     0.208 HD
HETATM   35  C9  UNL     1      19.029  -9.557   3.696  1.00  0.00     0.188 A
BRANCH  33  36
HETATM   36  C6  UNL     1      20.017 -11.247   2.117  1.00  0.00     0.186 C
BRANCH  36  37
HETATM   37  C7  UNL     1      19.585 -12.032   0.929  1.00  0.00     0.161 C
BRANCH  37  38
HETATM   38  O3  UNL     1      20.052 -13.351   0.968  1.00  0.00    -0.392 OA
ATOM     39  H3  UNL     1      20.386 -13.639   0.127  1.00  0.00     0.210 HD
ENDBRANCH  37  38
BRANCH  37  40
HETATM   40  C8  UNL     1      19.868 -11.409  -0.405  1.00  0.00     0.197 C
BRANCH  40  41
HETATM   41  O4  UNL     1      18.787 -10.782  -0.975  1.00  0.00    -0.398 OA
ATOM     42  H4  UNL     1      18.892  -9.844  -1.081  1.00  0.00     0.209 HD
ENDBRANCH  40  41
ENDBRANCH  37  40
ENDBRANCH  36  37
ENDBRANCH  33  36
BRANCH  35  43
HETATM   43  O5  UNL     1      20.044  -9.405   4.605  1.00  0.00    -0.343 OA
ATOM     44  H5  UNL     1      20.225 -10.026   5.301  1.00  0.00     0.219 HD
ENDBRANCH  35  43
ENDBRANCH   6  29
BRANCH   5  45
HETATM   45  O2  UNL     1      15.474  -9.470   5.062  1.00  0.00    -0.356 OA
ATOM     46  H2  UNL     1      15.498  -9.856   4.195  1.00  0.00     0.218 HD
ENDBRANCH   5  45
BRANCH   4  47
HETATM   47  O1  UNL     1      14.286  -7.664   6.847  1.00  0.00    -0.344 OA
ATOM     48  H1  UNL     1      13.451  -7.469   6.437  1.00  0.00     0.219 HD
ENDBRANCH   4  47
TORSDOF 16
ENDMDL