MODEL 2
REMARK VINA RESULT: -11.369856030      0.580      1.125
REMARK  13 active torsions:
REMARK  status: ('A' for Active; 'I' for Inactive)
REMARK    1  A    between atoms: N1_1  and  N2_4
REMARK       I    between atoms: N2_4  and  C1_5
REMARK       I    between atoms: C1_5  and  N3_6
REMARK       I    between atoms: C1_5  and  N4_10
REMARK    2  A    between atoms: N4_10  and  C2_12
REMARK    3  A    between atoms: C4_16  and  N6_17
REMARK       I    between atoms: N6_17  and  C5_19
REMARK    4  A    between atoms: C5_19  and  C6_21
REMARK    5  A    between atoms: C6_21  and  C7_22
REMARK    6  A    between atoms: C9_26  and  N8_27
REMARK    7  A    between atoms: N8_27  and  C10_29
REMARK    8  A    between atoms: C10_29  and  O2_30
REMARK    9  A    between atoms: C10_29  and  S1_32
REMARK   10  A    between atoms: S1_32  and  N9_33
REMARK   11  A    between atoms: N10_35  and  C11_37
REMARK   12  A    between atoms: N13_42  and  C12_43
REMARK   13  A    between atoms: C12_43  and  O3_44
ROOT
HETATM    1  C7  UNL     1      18.738  -1.690  -0.486  1.00  0.00     0.033 A
HETATM    2  C8  UNL     1      18.129  -2.034   0.731  1.00  0.00     0.115 A
HETATM    3  N7  UNL     1      18.605  -2.994   1.502  1.00  0.00    -0.349 N
ATOM      4  H7  UNL     1      18.120  -3.202   2.375  1.00  0.00     0.167 HD
HETATM    5  C9  UNL     1      19.732  -3.734   1.181  1.00  0.00     0.123 A
HETATM    6  C14 UNL     1      20.317  -3.389  -0.011  1.00  0.00     0.136 A
HETATM    7  N15 UNL     1      19.812  -2.390  -0.799  1.00  0.00    -0.364 N
ATOM      8  H15 UNL     1      20.290  -2.177  -1.674  1.00  0.00     0.165 HD
ENDROOT
BRANCH   1   9
HETATM    9  C6  UNL     1      18.154  -0.585  -1.289  1.00  0.00     0.161 C
BRANCH   9  10
HETATM   10  C5  UNL     1      18.608   0.760  -0.777  1.00  0.00     0.227 C
HETATM   11  N6  UNL     1      18.696   1.015   0.602  1.00  0.00    -0.323 N
ATOM     12  H6  UNL     1      18.439   0.234   1.206  1.00  0.00     0.169 HD
HETATM   13  O1  UNL     1      18.897   1.612  -1.627  1.00  0.00    -0.273 OA
BRANCH  11  14
HETATM   14  C4  UNL     1      19.084   2.181   1.268  1.00  0.00     0.093 A
HETATM   15  C3  UNL     1      18.459   3.398   1.136  1.00  0.00     0.139 A
HETATM   16  N5  UNL     1      18.878   4.468   1.835  1.00  0.00    -0.200 N
HETATM   17  C2  UNL     1      19.912   4.417   2.688  1.00  0.00     0.682 A
ATOM     18  H5  UNL     1      18.390   5.354   1.712  1.00  0.00     0.183 HD
HETATM   19  N17 UNL     1      20.533   3.239   2.830  1.00  0.00    -0.177 N
HETATM   20  C15 UNL     1      20.158   2.138   2.159  1.00  0.00     0.160 A
ATOM     21  H17 UNL     1      21.322   3.176   3.473  1.00  0.00     0.185 HD
HETATM   22  N16 UNL     1      20.845   0.898   2.319  1.00  0.00    -0.080 NA
BRANCH  17  23
HETATM   23  N4  UNL     1      20.249   5.488   3.306  1.00  0.00    -0.181 N
HETATM   24  C1  UNL     1      20.017   6.835   2.896  1.00  0.00     0.410 C
HETATM   25  N2  UNL     1      21.203   7.620   3.180  1.00  0.00    -0.093 NA
HETATM   26  N3  UNL     1      18.943   7.443   3.700  1.00  0.00    -0.042 N
ATOM     27  H33 UNL     1      19.162   7.510   4.695  1.00  0.00     0.278 HD
ATOM     28  H32 UNL     1      18.822   8.442   3.537  1.00  0.00     0.278 HD
ATOM     29  H31 UNL     1      18.109   6.890   3.501  1.00  0.00     0.278 HD
ATOM     30  H4  UNL     1      20.740   5.363   4.192  1.00  0.00     0.181 HD
BRANCH  25  31
HETATM   31  N1  UNL     1      21.473   7.521   4.548  1.00  0.00    -0.345 N
ATOM     32  H12 UNL     1      21.366   6.675   5.107  1.00  0.00     0.172 HD
ATOM     33  H11 UNL     1      21.791   8.433   4.876  1.00  0.00     0.172 HD
ENDBRANCH  25  31
ENDBRANCH  17  23
ENDBRANCH  11  14
ENDBRANCH   9  10
ENDBRANCH   1   9
BRANCH   5  34
HETATM   34  N8  UNL     1      20.139  -4.730   2.077  1.00  0.00    -0.315 N
ATOM     35  H8  UNL     1      21.148  -4.868   2.141  1.00  0.00     0.170 HD
BRANCH  34  36
HETATM   36  C10 UNL     1      19.387  -5.553   2.886  1.00  0.00     0.203 C
BRANCH  36  37
HETATM   37  O2  UNL     1      18.916  -6.642   2.312  1.00  0.00    -0.340 OA
ATOM     38  H2  UNL     1      17.979  -6.650   2.150  1.00  0.00     0.220 HD
ENDBRANCH  36  37
BRANCH  36  39
HETATM   39  S1  UNL     1      19.004  -5.285   4.581  1.00  0.00     0.046 SA
BRANCH  39  40
HETATM   40  N9  UNL     1      17.613  -6.266   5.091  1.00  0.00    -0.265 N
HETATM   41  N10 UNL     1      17.410  -7.411   4.607  1.00  0.00    -0.275 N
ATOM     42  H10 UNL     1      18.071  -7.760   3.913  1.00  0.00     0.189 HD
ATOM     43  H9  UNL     1      16.968  -5.896   5.789  1.00  0.00     0.195 HD
BRANCH  41  44
HETATM   44  C11 UNL     1      16.333  -8.236   4.961  1.00  0.00     0.180 A
HETATM   45  N11 UNL     1      15.967  -9.415   4.442  1.00  0.00    -0.267 N
HETATM   46  N12 UNL     1      14.901  -9.811   5.117  1.00  0.00    -0.235 N
ATOM     47  H11 UNL     1      16.421  -9.911   3.676  1.00  0.00     0.190 HD
HETATM   48  N13 UNL     1      14.561  -8.954   6.043  1.00  0.00    -0.237 N
ATOM     49  H12 UNL     1      14.403 -10.684   4.937  1.00  0.00     0.208 HD
HETATM   50  C13 UNL     1      15.424  -7.955   5.984  1.00  0.00     0.183 A
HETATM   51  N14 UNL     1      15.432  -6.799   6.816  1.00  0.00    -0.077 NA
BRANCH  48  52
HETATM   52  C12 UNL     1      13.435  -9.100   6.964  1.00  0.00     0.316 C
BRANCH  52  53
HETATM   53  O3  UNL     1      12.961 -10.391   7.048  1.00  0.00    -0.380 OA
ATOM     54  H3  UNL     1      13.305 -10.873   7.792  1.00  0.00     0.211 HD
ENDBRANCH  52  53
ENDBRANCH  48  52
ENDBRANCH  41  44
ENDBRANCH  39  40
ENDBRANCH  36  39
ENDBRANCH  34  36
ENDBRANCH   5  34
TORSDOF 13
ENDMDL