MODEL 2
REMARK VINA RESULT: -6.562141496      1.704      1.966
REMARK  15 active torsions:
REMARK  status: ('A' for Active; 'I' for Inactive)
REMARK    1  A    between atoms: N1_1  and  C1_4
REMARK    2  A    between atoms: N4_9  and  C2_10
REMARK    3  A    between atoms: C2_10  and  C3_11
REMARK    4  A    between atoms: C3_11  and  O1_12
REMARK    5  A    between atoms: C4_14  and  N5_15
REMARK    6  A    between atoms: N5_15  and  O2_17
REMARK    7  A    between atoms: N6_20  and  C6_21
REMARK    8  A    between atoms: C9_31  and  S1_32
REMARK    9  A    between atoms: S1_32  and  C10_33
REMARK   10  A    between atoms: C10_33  and  C11_34
REMARK   11  A    between atoms: C11_34  and  N10_35
REMARK   12  A    between atoms: C11_34  and  C12_39
REMARK   13  A    between atoms: C14_47  and  C15_48
REMARK   14  A    between atoms: C15_48  and  O5_49
REMARK   15  A    between atoms: C16_51  and  O6_52
ROOT
HETATM    1  C3  UNL     1       3.755  -2.716 -27.240  1.00  0.00     0.146 C
HETATM    2  C4  UNL     1       3.543  -1.682 -26.215  1.00  0.00     0.067 C
HETATM    3  C5  UNL     1       2.338  -0.809 -26.470  1.00  0.00     0.200 C
HETATM    4  N6  UNL     1       1.232  -1.756 -26.509  1.00  0.00    -0.203 N
HETATM    5  C14 UNL     1       1.259  -3.044 -27.098  1.00  0.00     0.158 C
HETATM    6  C16 UNL     1       2.590  -3.664 -27.316  1.00  0.00     0.185 C
ENDROOT
BRANCH   4   7
HETATM    7  C6  UNL     1       0.022  -1.326 -25.889  1.00  0.00     0.683 A
HETATM    8  N7  UNL     1      -0.330  -0.007 -25.917  1.00  0.00    -0.184 N
HETATM    9  C7  UNL     1      -1.500   0.131 -25.272  1.00  0.00     0.137 A
ATOM     10  H7  UNL     1       0.204   0.746 -26.352  1.00  0.00     0.184 HD
HETATM   11  C8  UNL     1      -2.285   1.233 -25.016  1.00  0.00     0.132 A
HETATM   12  C13 UNL     1      -1.871  -1.127 -24.841  1.00  0.00     0.154 A
HETATM   13  N8  UNL     1      -1.942   2.406 -25.418  1.00  0.00    -0.383 N
HETATM   14  N9  UNL     1      -3.422   1.030 -24.330  1.00  0.00    -0.321 N
ATOM     15  H82 UNL     1      -1.078   2.560 -25.938  1.00  0.00     0.157 HD
ATOM     16  H81 UNL     1      -2.523   3.222 -25.227  1.00  0.00     0.157 HD
HETATM   17  C9  UNL     1      -3.831  -0.171 -23.886  1.00  0.00     0.147 A
ATOM     18  H9  UNL     1      -4.014   1.838 -24.135  1.00  0.00     0.169 HD
HETATM   19  N11 UNL     1      -3.018  -1.239 -24.165  1.00  0.00    -0.320 N
ATOM     20  H11 UNL     1      -3.302  -2.164 -23.840  1.00  0.00     0.169 HD
HETATM   21  N12 UNL     1      -0.912  -2.001 -25.238  1.00  0.00    -0.174 N
ATOM     22  H12 UNL     1      -0.911  -3.007 -25.064  1.00  0.00     0.186 HD
BRANCH  17  23
HETATM   23  S1  UNL     1      -5.293  -0.461 -22.950  1.00  0.00    -0.091 SA
BRANCH  23  24
HETATM   24  C10 UNL     1      -6.289  -1.835 -23.467  1.00  0.00     0.126 C
BRANCH  24  25
HETATM   25  C11 UNL     1      -7.707  -1.838 -22.965  1.00  0.00     0.293 C
BRANCH  25  26
HETATM   26  N10 UNL     1      -8.087  -3.260 -22.777  1.00  0.00    -0.064 N
ATOM     27 3H10 UNL     1      -7.808  -3.857 -23.555  1.00  0.00     0.275 HD
ATOM     28 2H10 UNL     1      -7.543  -3.731 -22.053  1.00  0.00     0.275 HD
ATOM     29 1H10 UNL     1      -9.091  -3.271 -22.599  1.00  0.00     0.275 HD
ENDBRANCH  25  26
BRANCH  25  30
HETATM   30  C12 UNL     1      -8.008  -1.115 -21.753  1.00  0.00     0.205 C
HETATM   31  O3  UNL     1      -8.563   0.020 -21.805  1.00  0.00    -0.646 OA
HETATM   32  O4  UNL     1      -7.690  -1.648 -20.485  1.00  0.00    -0.646 OA
ENDBRANCH  25  30
ENDBRANCH  24  25
ENDBRANCH  23  24
ENDBRANCH  17  23
ENDBRANCH   4   7
BRANCH   5  33
HETATM   33  C15 UNL     1       0.515  -3.031 -28.427  1.00  0.00     0.192 C
BRANCH  33  34
HETATM   34  O5  UNL     1       1.336  -3.632 -29.396  1.00  0.00    -0.399 OA
ATOM     35  H5  UNL     1       1.074  -4.541 -29.484  1.00  0.00     0.209 HD
ENDBRANCH  33  34
ENDBRANCH   5  33
BRANCH   2  36
HETATM   36  N5  UNL     1       4.254  -1.479 -25.190  1.00  0.00    -0.273 N
ATOM     37  H5  UNL     1       4.447  -2.316 -24.640  1.00  0.00     0.193 HD
BRANCH  36  38
HETATM   38  O2  UNL     1       4.798  -0.360 -24.700  1.00  0.00    -0.290 OA
ATOM     39  H2  UNL     1       5.492  -0.225 -24.066  1.00  0.00     0.244 HD
ENDBRANCH  36  38
ENDBRANCH   2  36
BRANCH   6  40
HETATM   40  O6  UNL     1       2.803  -4.637 -26.313  1.00  0.00    -0.390 OA
ATOM     41  H6  UNL     1       3.021  -5.443 -26.766  1.00  0.00     0.210 HD
ENDBRANCH   6  40
BRANCH   1  42
HETATM   42  C2  UNL     1       5.049  -3.439 -27.086  1.00  0.00     0.218 C
BRANCH  42  43
HETATM   43  N4  UNL     1       5.912  -3.201 -28.233  1.00  0.00    -0.202 N
HETATM   44  N3  UNL     1       5.879  -3.782 -29.420  1.00  0.00    -0.211 N
HETATM   45  N2  UNL     1       6.828  -3.305 -30.203  1.00  0.00    -0.115 N
ATOM     46  H3  UNL     1       5.210  -4.501 -29.694  1.00  0.00     0.210 HD
HETATM   47  C1  UNL     1       7.509  -2.368 -29.487  1.00  0.00     0.707 A
ATOM     48  H2  UNL     1       7.016  -3.586 -31.165  1.00  0.00     0.207 HD
HETATM   49  N13 UNL     1       6.912  -2.338 -28.283  1.00  0.00    -0.113 N
ATOM     50  H13 UNL     1       7.192  -1.731 -27.513  1.00  0.00     0.207 HD
BRANCH  47  51
HETATM   51  N1  UNL     1       8.511  -1.651 -29.854  1.00  0.00    -0.232 N
ATOM     52  H12 UNL     1       9.464  -1.982 -30.004  1.00  0.00     0.174 HD
ATOM     53  H11 UNL     1       8.538  -0.651 -30.055  1.00  0.00     0.174 HD
ENDBRANCH  47  51
ENDBRANCH  42  43
ENDBRANCH   1  42
BRANCH   1  54
HETATM   54  O1  UNL     1       3.785  -2.020 -28.473  1.00  0.00    -0.379 OA
ATOM     55  H1  UNL     1       3.338  -1.190 -28.354  1.00  0.00     0.211 HD
ENDBRANCH   1  54
TORSDOF 15
ENDMDL