MODEL 3
REMARK VINA RESULT: -5.654881941      0.827      1.125
REMARK  19 active torsions:
REMARK  status: ('A' for Active; 'I' for Inactive)
REMARK    1  A    between atoms: C3_4  and  O2_5
REMARK    2  A    between atoms: C3_4  and  O3_7
REMARK    3  A    between atoms: C7_12  and  O4_13
REMARK    4  A    between atoms: C9_16  and  O5_17
REMARK    5  A    between atoms: C10_19  and  O6_20
REMARK    6  A    between atoms: C11_22  and  C12_23
REMARK    7  A    between atoms: C12_23  and  O7_24
REMARK    8  A    between atoms: C12_23  and  N1_26
REMARK    9  A    between atoms: N1_26  and  N2_28
REMARK   10  A    between atoms: N2_28  and  C13_30
REMARK   11  A    between atoms: C13_30  and  C14_31
REMARK   12  A    between atoms: C14_31  and  O8_32
REMARK   13  A    between atoms: C14_31  and  C15_34
REMARK   14  A    between atoms: C15_34  and  O9_35
REMARK   15  A    between atoms: C15_34  and  C16_37
REMARK   16  A    between atoms: C16_37  and  O10_38
REMARK   17  A    between atoms: C16_37  and  C17_40
REMARK   18  A    between atoms: C17_40  and  O11_41
REMARK   19  A    between atoms: C18_43  and  N3_44
ROOT
HETATM    1  O1  UNL     1       1.576  -2.452 -28.881  1.00  0.00    -0.294 OA
HETATM    2  C1  UNL     1       1.821  -2.168 -27.748  1.00  0.00     0.175 C
HETATM    3  C2  UNL     1       1.755  -3.262 -26.757  1.00  0.00     0.151 C
HETATM    4  C3  UNL     1       0.752  -2.875 -25.697  1.00  0.00     0.177 C
HETATM    5  C4  UNL     1       0.885  -1.508 -25.133  1.00  0.00     0.107 C
HETATM    6  C5  UNL     1       2.339  -1.108 -25.121  1.00  0.00    -0.012 C
HETATM    7  C6  UNL     1       2.983  -0.739 -26.213  1.00  0.00     0.020 C
HETATM    8  C7  UNL     1       2.161  -0.747 -27.485  1.00  0.00     0.167 C
HETATM    9  C8  UNL     1       0.868  -0.089 -27.105  1.00  0.00     0.033 A
HETATM   10  C9  UNL     1       0.290   0.873 -27.872  1.00  0.00     0.110 A
HETATM   11  C10 UNL     1      -0.891   1.477 -27.505  1.00  0.00     0.116 A
HETATM   12  C11 UNL     1      -1.561   1.120 -26.306  1.00  0.00     0.081 A
HETATM   13  C18 UNL     1      -0.978   0.164 -25.550  1.00  0.00     0.081 A
HETATM   14  C20 UNL     1       0.225  -0.439 -25.943  1.00  0.00    -0.003 A
ENDROOT
BRANCH  12  15
HETATM   15  C12 UNL     1      -2.823   1.805 -26.143  1.00  0.00     0.170 C
BRANCH  15  16
HETATM   16  O7  UNL     1      -2.554   3.199 -26.049  1.00  0.00    -0.344 OA
ATOM     17  H7  UNL     1      -1.610   3.313 -26.047  1.00  0.00     0.219 HD
ENDBRANCH  15  16
BRANCH  15  18
HETATM   18  N1  UNL     1      -3.995   1.544 -26.822  1.00  0.00    -0.280 N
ATOM     19  H1  UNL     1      -4.145   1.974 -27.735  1.00  0.00     0.189 HD
BRANCH  18  20
HETATM   20  N2  UNL     1      -4.983   0.706 -26.294  1.00  0.00    -0.311 N
ATOM     21  H2  UNL     1      -5.489   0.089 -26.928  1.00  0.00     0.185 HD
BRANCH  20  22
HETATM   22  C13 UNL     1      -5.280   0.680 -25.043  1.00  0.00     0.114 C
BRANCH  22  23
HETATM   23  C14 UNL     1      -6.104  -0.377 -24.421  1.00  0.00     0.189 C
BRANCH  23  24
HETATM   24  O8  UNL     1      -5.319  -1.482 -24.158  1.00  0.00    -0.388 OA
ATOM     25  H8  UNL     1      -5.317  -2.059 -24.913  1.00  0.00     0.210 HD
ENDBRANCH  23  24
BRANCH  23  26
HETATM   26  C15 UNL     1      -6.774   0.155 -23.171  1.00  0.00     0.182 C
BRANCH  26  27
HETATM   27  O9  UNL     1      -8.146  -0.068 -23.203  1.00  0.00    -0.390 OA
ATOM     28  H9  UNL     1      -8.513  -0.078 -22.327  1.00  0.00     0.210 HD
ENDBRANCH  26  27
BRANCH  26  29
HETATM   29  C16 UNL     1      -6.208  -0.468 -21.924  1.00  0.00     0.173 C
BRANCH  29  30
HETATM   30  O10 UNL     1      -4.972   0.085 -21.590  1.00  0.00    -0.391 OA
ATOM     31  H10 UNL     1      -4.361  -0.579 -21.292  1.00  0.00     0.210 HD
ENDBRANCH  29  30
BRANCH  29  32
HETATM   32  C17 UNL     1      -7.210  -0.283 -20.803  1.00  0.00     0.198 C
BRANCH  32  33
HETATM   33  O11 UNL     1      -7.755  -1.492 -20.453  1.00  0.00    -0.398 OA
ATOM     34  H11 UNL     1      -8.649  -1.372 -20.153  1.00  0.00     0.209 HD
ENDBRANCH  32  33
ENDBRANCH  29  32
ENDBRANCH  26  29
ENDBRANCH  23  26
ENDBRANCH  22  23
ENDBRANCH  20  22
ENDBRANCH  18  20
ENDBRANCH  15  18
ENDBRANCH  12  15
BRANCH  11  35
HETATM   35  O6  UNL     1      -1.353   2.435 -28.377  1.00  0.00    -0.357 OA
ATOM     36  H6  UNL     1      -1.816   2.101 -29.136  1.00  0.00     0.217 HD
ENDBRANCH  11  35
BRANCH  13  37
HETATM   37  N3  UNL     1      -1.563  -0.283 -24.350  1.00  0.00    -0.231 N
HETATM   38  C19 UNL     1      -1.439   0.276 -23.135  1.00  0.00     0.222 A
HETATM   39  N4  UNL     1      -2.160  -0.395 -22.222  1.00  0.00    -0.282 N
HETATM   40  N5  UNL     1      -2.737  -1.378 -22.867  1.00  0.00    -0.225 N
ATOM     41  H4  UNL     1      -2.242  -0.183 -21.227  1.00  0.00     0.189 HD
HETATM   42  N6  UNL     1      -2.390  -1.325 -24.142  1.00  0.00     0.002 NA
ATOM     43  H5  UNL     1      -3.357  -2.075 -22.452  1.00  0.00     0.205 HD
ENDBRANCH  13  37
BRANCH  10  44
HETATM   44  O5  UNL     1       0.953   1.225 -29.060  1.00  0.00    -0.357 OA
ATOM     45  H5  UNL     1       0.885   2.130 -29.339  1.00  0.00     0.217 HD
ENDBRANCH  10  44
BRANCH   8  46
HETATM   46  O4  UNL     1       2.788  -0.113 -28.520  1.00  0.00    -0.373 OA
ATOM     47  H4  UNL     1       3.420  -0.648 -28.986  1.00  0.00     0.212 HD
ENDBRANCH   8  46
BRANCH   4  48
HETATM   48  O2  UNL     1       0.931  -3.785 -24.643  1.00  0.00    -0.364 OA
ATOM     49  H2  UNL     1       0.271  -3.568 -23.995  1.00  0.00     0.213 HD
ENDBRANCH   4  48
BRANCH   4  50
HETATM   50  O3  UNL     1      -0.504  -3.103 -26.313  1.00  0.00    -0.364 OA
ATOM     51  H3  UNL     1      -0.676  -4.022 -26.151  1.00  0.00     0.213 HD
ENDBRANCH   4  50
TORSDOF 19
ENDMDL