MODEL 5
REMARK VINA RESULT: -6.584237187      2.059      2.892
REMARK  12 active torsions:
REMARK  status: ('A' for Active; 'I' for Inactive)
REMARK    1  A    between atoms: N1_1  and  O1_4
REMARK    2  A    between atoms: O1_4  and  C1_5
REMARK       I    between atoms: C1_5  and  N2_7
REMARK    3  A    between atoms: N2_7  and  C2_9
REMARK    4  A    between atoms: C5_16  and  N5_17
REMARK    5  A    between atoms: C6_18  and  C7_19
REMARK    6  A    between atoms: C9_23  and  N6_24
REMARK       I    between atoms: N6_24  and  C10_26
REMARK       I    between atoms: C10_26  and  N7_27
REMARK       I    between atoms: C10_26  and  N8_31
REMARK    7  A    between atoms: N8_31  and  C11_33
REMARK    8  A    between atoms: C11_33  and  O5_34
REMARK    9  A    between atoms: C11_33  and  C12_36
REMARK   10  A    between atoms: C14_43  and  C15_44
REMARK   11  A    between atoms: C15_44  and  O9_45
REMARK   12  A    between atoms: C15_44  and  O10_47
ROOT
HETATM    1  N5  UNL     1      -1.658   0.203 -25.234  1.00  0.00    -0.276 N
HETATM    2  C6  UNL     1      -2.517   1.229 -25.258  1.00  0.00     0.120 A
HETATM    3  C8  UNL     1      -3.710   1.072 -24.515  1.00  0.00     0.085 A
HETATM    4  C9  UNL     1      -4.025  -0.042 -23.788  1.00  0.00     0.110 A
HETATM    5  N9  UNL     1      -3.116  -1.031 -23.807  1.00  0.00    -0.294 N
ATOM      6  H9  UNL     1      -3.295  -1.887 -23.283  1.00  0.00     0.172 HD
HETATM    7  C13 UNL     1      -1.966  -0.910 -24.510  1.00  0.00     0.329 A
HETATM    8  O8  UNL     1      -1.194  -1.907 -24.446  1.00  0.00    -0.246 OA
ENDROOT
BRANCH   1   9
HETATM    9  C5  UNL     1      -0.412   0.180 -25.960  1.00  0.00     0.193 C
HETATM   10  S1  UNL     1       0.903  -0.372 -24.794  1.00  0.00    -0.064 SA
HETATM   11  C4  UNL     1       2.246  -0.991 -25.804  1.00  0.00     0.169 A
HETATM   12  N3  UNL     1       1.849  -1.681 -26.916  1.00  0.00    -0.245 N
HETATM   13  N4  UNL     1       3.577  -0.982 -25.781  1.00  0.00    -0.320 N
HETATM   14  C3  UNL     1       2.983  -2.089 -27.562  1.00  0.00     0.167 A
HETATM   15  N10 UNL     1       0.490  -1.819 -27.150  1.00  0.00    -0.316 N
HETATM   16  C2  UNL     1       4.061  -1.654 -26.856  1.00  0.00     0.129 A
HETATM   17  C14 UNL     1      -0.449  -0.754 -27.137  1.00  0.00     0.188 C
ATOM     18  H10 UNL     1       0.138  -2.756 -27.347  1.00  0.00     0.181 HD
ATOM     19  H4  UNL     1       4.148  -0.536 -25.062  1.00  0.00     0.169 HD
BRANCH  16  20
HETATM   20  N2  UNL     1       5.432  -1.837 -27.141  1.00  0.00    -0.286 N
HETATM   21  C1  UNL     1       5.933  -2.607 -28.212  1.00  0.00     0.387 C
HETATM   22  O2  UNL     1       5.246  -3.225 -29.047  1.00  0.00    -0.236 OA
ATOM     23  H2  UNL     1       6.108  -1.379 -26.529  1.00  0.00     0.172 HD
BRANCH  21  24
HETATM   24  O1  UNL     1       7.318  -2.708 -28.383  1.00  0.00    -0.188 OA
BRANCH  24  25
HETATM   25  N1  UNL     1       7.950  -2.128 -29.449  1.00  0.00    -0.301 N
ATOM     26  H12 UNL     1       8.706  -2.643 -29.900  1.00  0.00     0.184 HD
ATOM     27  H11 UNL     1       7.681  -1.206 -29.790  1.00  0.00     0.184 HD
ENDBRANCH  24  25
ENDBRANCH  21  24
ENDBRANCH  16  20
BRANCH  17  28
HETATM   28  C15 UNL     1      -0.305   0.099 -28.420  1.00  0.00     0.280 C
BRANCH  28  29
HETATM   29  O9  UNL     1      -1.585   0.314 -28.948  1.00  0.00    -0.369 OA
ATOM     30  H9  UNL     1      -1.627  -0.099 -29.803  1.00  0.00     0.212 HD
ENDBRANCH  28  29
BRANCH  28  31
HETATM   31  O10 UNL     1       0.189   1.365 -28.134  1.00  0.00    -0.369 OA
ATOM     32  H10 UNL     1       0.398   1.843 -28.929  1.00  0.00     0.212 HD
ENDBRANCH  28  31
ENDBRANCH  17  28
ENDBRANCH   1   9
BRANCH   2  33
HETATM   33  C7  UNL     1      -2.314   2.489 -25.926  1.00  0.00     0.227 C
HETATM   34  O3  UNL     1      -2.028   3.551 -25.393  1.00  0.00    -0.643 OA
HETATM   35  O4  UNL     1      -2.450   2.536 -27.318  1.00  0.00    -0.643 OA
ENDBRANCH   2  33
BRANCH   4  36
HETATM   36  N6  UNL     1      -5.116  -0.160 -23.118  1.00  0.00    -0.333 N
HETATM   37  C10 UNL     1      -6.276  -0.826 -23.610  1.00  0.00     0.386 C
HETATM   38  N7  UNL     1      -6.137  -2.260 -23.714  1.00  0.00    -0.041 N
HETATM   39  N8  UNL     1      -7.490  -0.468 -22.926  1.00  0.00    -0.346 N
ATOM     40  H73 UNL     1      -5.323  -2.499 -24.278  1.00  0.00     0.279 HD
ATOM     41  H72 UNL     1      -5.851  -2.656 -22.819  1.00  0.00     0.279 HD
ATOM     42  H71 UNL     1      -6.967  -2.737 -24.065  1.00  0.00     0.279 HD
ATOM     43  H8  UNL     1      -8.286  -0.048 -23.406  1.00  0.00     0.160 HD
ATOM     44  H6  UNL     1      -5.153   0.247 -22.183  1.00  0.00     0.164 HD
BRANCH  39  45
HETATM   45  C11 UNL     1      -7.498  -0.746 -21.519  1.00  0.00     0.319 C
BRANCH  45  46
HETATM   46  O5  UNL     1      -8.128  -1.931 -21.192  1.00  0.00    -0.367 OA
ATOM     47  H5  UNL     1      -9.064  -1.923 -21.356  1.00  0.00     0.212 HD
ENDBRANCH  45  46
BRANCH  45  48
HETATM   48  C12 UNL     1      -7.995   0.335 -20.668  1.00  0.00     0.223 C
HETATM   49  O6  UNL     1      -7.282   1.369 -20.535  1.00  0.00    -0.645 OA
HETATM   50  O7  UNL     1      -9.194   0.326 -19.987  1.00  0.00    -0.645 OA
ENDBRANCH  45  48
ENDBRANCH  39  45
ENDBRANCH   4  36
TORSDOF 12
ENDMDL