MODEL 3
REMARK VINA RESULT: -6.254438735      2.376      4.537
REMARK  16 active torsions:
REMARK  status: ('A' for Active; 'I' for Inactive)
REMARK    1  A    between atoms: C2_2  and  O1_3
REMARK    2  A    between atoms: C4_6  and  O2_7
REMARK    3  A    between atoms: O2_7  and  C5_8
REMARK    4  A    between atoms: C6_9  and  O3_10
REMARK    5  A    between atoms: C7_12  and  N1_13
REMARK    6  A    between atoms: C9_18  and  N2_19
REMARK    7  A    between atoms: C10_23  and  O4_24
REMARK    8  A    between atoms: O4_24  and  C11_25
REMARK    9  A    between atoms: C11_25  and  C12_26
REMARK   10  A    between atoms: C12_26  and  O5_27
REMARK   11  A    between atoms: C12_26  and  C13_29
REMARK   12  A    between atoms: C13_29  and  C14_30
REMARK   13  A    between atoms: C14_30  and  O6_31
REMARK   14  A    between atoms: C17_41  and  N5_42
REMARK   15  A    between atoms: N5_42  and  O7_43
REMARK   16  A    between atoms: C18_45  and  O8_47
ROOT
HETATM    1  C1  UNL     1       3.238  -0.695 -25.130  1.00  0.00     0.054 C
HETATM    2  C2  UNL     1       2.725  -0.797 -26.548  1.00  0.00     0.114 C
HETATM    3  C3  UNL     1       2.415  -2.192 -26.852  1.00  0.00     0.052 C
HETATM    4  C4  UNL     1       1.342  -2.965 -26.588  1.00  0.00     0.098 C
HETATM    5  C15 UNL     1       0.174  -2.487 -25.872  1.00  0.00     0.129 C
HETATM    6  N3  UNL     1      -0.652  -3.414 -25.541  1.00  0.00    -0.394 N
ATOM      7  H31 UNL     1      -1.473  -3.078 -25.037  1.00  0.00     0.156 HD
ATOM      8  H32 UNL     1      -0.363  -4.348 -25.834  1.00  0.00     0.156 HD
HETATM    9  C16 UNL     1      -0.245  -1.130 -25.448  1.00  0.00     0.391 C
HETATM   10  N4  UNL     1      -1.601  -0.825 -25.854  1.00  0.00     0.015 N
ATOM     11  H41 UNL     1      -2.247  -1.613 -25.838  1.00  0.00     0.286 HD
ATOM     12  H42 UNL     1      -1.722  -0.625 -26.847  1.00  0.00     0.286 HD
HETATM   13  C17 UNL     1      -1.937   0.267 -24.960  1.00  0.00     0.372 C
HETATM   14  C18 UNL     1      -1.169  -0.119 -23.712  1.00  0.00     0.209 C
HETATM   15  C19 UNL     1      -2.161  -0.434 -22.622  1.00  0.00     0.083 C
HETATM   16  O9  UNL     1      -0.459  -1.271 -24.044  1.00  0.00    -0.288 OA
HETATM   17  O10 UNL     1       0.634  -0.132 -25.591  1.00  0.00    -0.304 OA
HETATM   18  C20 UNL     1       1.419   0.002 -26.671  1.00  0.00     0.271 C
HETATM   19  C21 UNL     1       0.829  -0.180 -27.965  1.00  0.00     0.095 C
HETATM   20  N6  UNL     1       0.370  -0.311 -29.012  1.00  0.00    -0.194 NA
ENDROOT
BRANCH   2  21
HETATM   21  O1  UNL     1       3.632  -0.316 -27.473  1.00  0.00    -0.382 OA
ATOM     22  H1  UNL     1       3.908   0.572 -27.280  1.00  0.00     0.211 HD
ENDBRANCH   2  21
BRANCH   4  23
HETATM   23  O2  UNL     1       1.458  -4.200 -27.044  1.00  0.00    -0.339 OA
BRANCH  23  24
HETATM   24  C5  UNL     1       2.130  -4.901 -27.996  1.00  0.00     0.190 C
HETATM   25  C6  UNL     1       3.252  -5.769 -27.538  1.00  0.00     0.180 C
HETATM   26  C7  UNL     1       3.240  -7.167 -28.099  1.00  0.00     0.216 C
HETATM   27  C8  UNL     1       1.934  -7.877 -27.895  1.00  0.00     0.071 C
HETATM   28  C9  UNL     1       0.742  -6.986 -28.032  1.00  0.00     0.217 C
HETATM   29  C10 UNL     1       1.161  -5.775 -28.851  1.00  0.00     0.183 C
BRANCH  25  30
HETATM   30  O3  UNL     1       3.360  -5.819 -26.128  1.00  0.00    -0.391 OA
ATOM     31  H3  UNL     1       3.156  -6.678 -25.777  1.00  0.00     0.210 HD
ENDBRANCH  25  30
BRANCH  26  32
HETATM   32  N1  UNL     1       4.247  -7.923 -27.337  1.00  0.00    -0.072 N
ATOM     33  H13 UNL     1       5.076  -7.376 -27.108  1.00  0.00     0.274 HD
ATOM     34  H12 UNL     1       3.962  -8.125 -26.378  1.00  0.00     0.274 HD
ATOM     35  H11 UNL     1       4.450  -8.758 -27.885  1.00  0.00     0.274 HD
ENDBRANCH  26  32
BRANCH  28  36
HETATM   36  N2  UNL     1       0.229  -6.669 -26.745  1.00  0.00    -0.072 N
ATOM     37  H23 UNL     1       0.457  -7.384 -26.054  1.00  0.00     0.274 HD
ATOM     38  H22 UNL     1       0.724  -5.887 -26.317  1.00  0.00     0.274 HD
ATOM     39  H21 UNL     1      -0.775  -6.501 -26.806  1.00  0.00     0.274 HD
ENDBRANCH  28  36
BRANCH  29  40
HETATM   40  O4  UNL     1       0.205  -5.097 -29.418  1.00  0.00    -0.379 OA
BRANCH  40  41
HETATM   41  C11 UNL     1      -1.047  -5.321 -29.691  1.00  0.00     0.200 C
BRANCH  41  42
HETATM   42  C12 UNL     1      -2.150  -4.612 -28.962  1.00  0.00     0.144 C
BRANCH  42  43
HETATM   43  O5  UNL     1      -2.119  -5.186 -27.641  1.00  0.00    -0.393 OA
ATOM     44  H5  UNL     1      -2.545  -4.534 -27.097  1.00  0.00     0.210 HD
ENDBRANCH  42  43
BRANCH  42  45
HETATM   45  C13 UNL     1      -2.064  -3.136 -28.845  1.00  0.00     0.060 C
BRANCH  45  46
HETATM   46  C14 UNL     1      -3.368  -2.570 -28.337  1.00  0.00     0.166 C
BRANCH  46  47
HETATM   47  O6  UNL     1      -3.505  -2.863 -26.972  1.00  0.00    -0.401 OA
ATOM     48  H6  UNL     1      -3.204  -2.124 -26.458  1.00  0.00     0.209 HD
ENDBRANCH  46  47
ENDBRANCH  45  46
ENDBRANCH  42  45
ENDBRANCH  41  42
ENDBRANCH  40  41
ENDBRANCH  29  40
ENDBRANCH  23  24
ENDBRANCH   4  23
BRANCH  13  49
HETATM   49  N5  UNL     1      -1.506   1.517 -25.507  1.00  0.00    -0.064 NA
BRANCH  49  50
HETATM   50  O7  UNL     1      -1.977   2.586 -24.870  1.00  0.00    -0.294 OA
ATOM     51  H7  UNL     1      -1.401   2.924 -24.194  1.00  0.00     0.238 HD
ENDBRANCH  49  50
ENDBRANCH  13  49
BRANCH  14  52
HETATM   52  O8  UNL     1      -0.259   0.857 -23.327  1.00  0.00    -0.363 OA
ATOM     53  H8  UNL     1       0.228   0.613 -22.549  1.00  0.00     0.213 HD
ENDBRANCH  14  52
TORSDOF 16
ENDMDL