MODEL 5
REMARK VINA RESULT: -6.560723656      2.413      6.800
REMARK  14 active torsions:
REMARK  status: ('A' for Active; 'I' for Inactive)
REMARK    1  A    between atoms: C4_6  and  N2_7
REMARK    2  A    between atoms: N2_7  and  C5_9
REMARK    3  A    between atoms: C6_12  and  C7_13
REMARK    4  A    between atoms: C8_18  and  N6_19
REMARK    5  A    between atoms: N6_19  and  N7_21
REMARK    6  A    between atoms: N7_21  and  C9_23
REMARK    7  A    between atoms: C10_26  and  N10_27
REMARK    8  A    between atoms: N10_27  and  C11_29
REMARK    9  A    between atoms: C12_30  and  C13_31
REMARK   10  A    between atoms: C13_31  and  O3_32
REMARK   11  A    between atoms: C13_31  and  O4_34
REMARK   12  A    between atoms: C14_37  and  C15_38
REMARK   13  A    between atoms: C15_38  and  O6_39
REMARK   14  A    between atoms: C15_38  and  O7_41
ROOT
HETATM    1  C5  UNL     1      -0.687  -1.887 -24.914  1.00  0.00     0.139 A
HETATM    2  N3  UNL     1      -1.983  -2.197 -24.806  1.00  0.00    -0.322 N
ATOM      3  H3  UNL     1      -2.225  -3.171 -24.617  1.00  0.00     0.169 HD
HETATM    4  C6  UNL     1      -3.007  -1.301 -24.930  1.00  0.00     0.175 A
HETATM    5  N5  UNL     1      -2.705  -0.028 -25.177  1.00  0.00    -0.321 N
ATOM      6  H5  UNL     1      -3.452   0.659 -25.274  1.00  0.00     0.169 HD
HETATM    7  C8  UNL     1      -1.422   0.357 -25.298  1.00  0.00     0.152 A
HETATM    8  C10 UNL     1      -0.380  -0.526 -25.177  1.00  0.00     0.123 A
ENDROOT
BRANCH   8   9
HETATM    9  N10 UNL     1       0.973  -0.124 -25.301  1.00  0.00    -0.345 N
ATOM     10  H10 UNL     1       1.404   0.321 -24.491  1.00  0.00     0.166 HD
BRANCH   9  11
HETATM   11  C11 UNL     1       1.775  -0.285 -26.446  1.00  0.00     0.118 A
HETATM   12  C12 UNL     1       3.101  -0.598 -26.349  1.00  0.00     0.138 A
HETATM   13  O5  UNL     1       3.859  -0.757 -27.442  1.00  0.00    -0.307 OA
HETATM   14  C14 UNL     1       3.421  -0.634 -28.650  1.00  0.00     0.112 A
HETATM   15  C16 UNL     1       2.104  -0.322 -28.839  1.00  0.00     0.095 A
HETATM   16  C17 UNL     1       1.269  -0.143 -27.728  1.00  0.00     0.203 A
HETATM   17  O8  UNL     1       0.074   0.139 -27.876  1.00  0.00    -0.286 OA
BRANCH  12  18
HETATM   18  C13 UNL     1       3.795  -0.780 -25.066  1.00  0.00     0.315 C
BRANCH  18  19
HETATM   19  O3  UNL     1       4.879   0.138 -25.007  1.00  0.00    -0.365 OA
ATOM     20  H3  UNL     1       5.631  -0.260 -25.429  1.00  0.00     0.213 HD
ENDBRANCH  18  19
BRANCH  18  21
HETATM   21  O4  UNL     1       4.306  -2.097 -25.052  1.00  0.00    -0.365 OA
ATOM     22  H4  UNL     1       4.803  -2.196 -24.249  1.00  0.00     0.213 HD
ENDBRANCH  18  21
ENDBRANCH  12  18
BRANCH  14  23
HETATM   23  C15 UNL     1       4.315  -0.825 -29.807  1.00  0.00     0.312 C
BRANCH  23  24
HETATM   24  O6  UNL     1       5.452  -1.585 -29.457  1.00  0.00    -0.365 OA
ATOM     25  H6  UNL     1       5.969  -1.806 -30.224  1.00  0.00     0.213 HD
ENDBRANCH  23  24
BRANCH  23  26
HETATM   26  O7  UNL     1       4.802   0.391 -30.293  1.00  0.00    -0.365 OA
ATOM     27  H7  UNL     1       5.734   0.488 -30.136  1.00  0.00     0.213 HD
ENDBRANCH  23  26
ENDBRANCH  14  23
ENDBRANCH   9  11
ENDBRANCH   8   9
BRANCH   1  28
HETATM   28  N2  UNL     1       0.399  -2.768 -24.788  1.00  0.00    -0.326 N
ATOM     29  H2  UNL     1       0.946  -2.605 -23.942  1.00  0.00     0.169 HD
BRANCH  28  30
HETATM   30  C4  UNL     1       0.902  -3.820 -25.563  1.00  0.00     0.116 A
HETATM   31  C3  UNL     1       0.218  -4.718 -26.316  1.00  0.00     0.123 A
HETATM   32  C2  UNL     1       0.907  -5.705 -27.022  1.00  0.00     0.254 A
HETATM   33  N1  UNL     1       2.233  -5.826 -27.004  1.00  0.00    -0.271 N
HETATM   34  O1  UNL     1       0.271  -6.551 -27.731  1.00  0.00    -0.268 OA
HETATM   35  C1  UNL     1       2.904  -6.878 -27.763  1.00  0.00     0.164 C
HETATM   36  C18 UNL     1       2.907  -4.944 -26.264  1.00  0.00     0.330 A
HETATM   37  N11 UNL     1       2.275  -3.996 -25.584  1.00  0.00    -0.294 N
HETATM   38  O9  UNL     1       4.159  -5.026 -26.222  1.00  0.00    -0.246 OA
ATOM     39  H11 UNL     1       2.843  -3.349 -25.036  1.00  0.00     0.172 HD
ENDBRANCH  28  30
ENDBRANCH   1  28
BRANCH   7  40
HETATM   40  N6  UNL     1      -1.122   1.614 -25.535  1.00  0.00    -0.285 N
ATOM     41  H6  UNL     1      -0.385   1.875 -26.191  1.00  0.00     0.188 HD
BRANCH  40  42
HETATM   42  N7  UNL     1      -1.862   2.575 -24.844  1.00  0.00    -0.298 N
ATOM     43  H7  UNL     1      -1.649   2.743 -23.860  1.00  0.00     0.183 HD
BRANCH  42  44
HETATM   44  C9  UNL     1      -2.917   3.340 -25.467  1.00  0.00     0.318 A
HETATM   45  N8  UNL     1      -4.252   2.799 -25.144  1.00  0.00    -0.100 NA
HETATM   46  N9  UNL     1      -3.766   2.792 -26.433  1.00  0.00    -0.100 NA
ENDBRANCH  42  44
ENDBRANCH  40  42
ENDBRANCH   7  40
BRANCH   4  47
HETATM   47  C7  UNL     1      -4.410  -1.752 -24.792  1.00  0.00     0.298 C
HETATM   48  N4  UNL     1      -5.402  -1.195 -25.638  1.00  0.00    -0.054 NA
HETATM   49  O2  UNL     1      -4.741  -2.604 -23.955  1.00  0.00    -0.268 OA
ENDBRANCH   4  47
TORSDOF 14
ENDMDL