MODEL 3
REMARK VINA RESULT: -6.027346744      2.711      5.031
REMARK  15 active torsions:
REMARK  status: ('A' for Active; 'I' for Inactive)
REMARK    1  A    between atoms: N1_1  and  C1_5
REMARK    2  A    between atoms: C1_5  and  C2_6
REMARK    3  A    between atoms: C2_6  and  C3_7
REMARK    4  A    between atoms: C2_6  and  N5_23
REMARK    5  A    between atoms: C3_7  and  N2_8
REMARK    6  A    between atoms: C4_13  and  C5_14
REMARK    7  A    between atoms: C11_20  and  O1_21
REMARK    8  A    between atoms: N5_23  and  C12_25
REMARK    9  A    between atoms: C13_28  and  C14_29
REMARK   10  A    between atoms: N10_36  and  C15_37
REMARK   11  A    between atoms: C17_42  and  O2_43
REMARK   12  A    between atoms: C18_45  and  O3_46
REMARK   13  A    between atoms: C19_48  and  O4_49
REMARK   14  A    between atoms: C20_51  and  N12_52
REMARK   15  A    between atoms: C21_56  and  O5_57
ROOT
HETATM    1  C12 UNL     1       3.071  -4.884 -27.186  1.00  0.00     0.205 C
HETATM    2  N6  UNL     1       1.818  -4.667 -27.850  1.00  0.00    -0.386 N
ATOM      3  H6  UNL     1       1.391  -3.741 -27.849  1.00  0.00     0.156 HD
HETATM    4  C13 UNL     1       1.183  -5.737 -28.500  1.00  0.00     0.180 C
HETATM    5  C19 UNL     1       2.103  -6.845 -28.827  1.00  0.00     0.181 C
HETATM    6  C20 UNL     1       2.885  -7.330 -27.666  1.00  0.00     0.246 C
HETATM    7  C21 UNL     1       3.312  -6.245 -26.697  1.00  0.00     0.192 C
ENDROOT
BRANCH   1   8
HETATM    8  N5  UNL     1       4.096  -4.273 -27.901  1.00  0.00    -0.392 N
ATOM      9  H5  UNL     1       4.368  -4.684 -28.794  1.00  0.00     0.155 HD
BRANCH   8  10
HETATM   10  C2  UNL     1       4.777  -3.127 -27.468  1.00  0.00     0.124 C
BRANCH  10  11
HETATM   11  C1  UNL     1       6.078  -3.049 -28.273  1.00  0.00     0.256 C
BRANCH  11  12
HETATM   12  N1  UNL     1       5.914  -3.917 -29.430  1.00  0.00    -0.077 N
ATOM     13  H13 UNL     1       5.111  -4.541 -29.352  1.00  0.00     0.274 HD
ATOM     14  H12 UNL     1       5.610  -3.417 -30.266  1.00  0.00     0.274 HD
ATOM     15  H11 UNL     1       6.796  -4.413 -29.558  1.00  0.00     0.274 HD
ENDBRANCH  11  12
ENDBRANCH  10  11
BRANCH  10  16
HETATM   16  C3  UNL     1       3.943  -1.867 -27.757  1.00  0.00     0.179 C
BRANCH  16  17
HETATM   17  N2  UNL     1       3.245  -1.393 -26.589  1.00  0.00    -0.253 N
HETATM   18  N3  UNL     1       3.820  -0.909 -25.483  1.00  0.00    -0.238 N
HETATM   19  N4  UNL     1       2.910  -0.559 -24.597  1.00  0.00    -0.281 N
ATOM     20  H3  UNL     1       4.827  -0.823 -25.344  1.00  0.00     0.208 HD
HETATM   21  C4  UNL     1       1.684  -0.816 -25.123  1.00  0.00     0.112 A
ATOM     22  H4  UNL     1       3.094  -0.163 -23.674  1.00  0.00     0.188 HD
HETATM   23  C11 UNL     1       1.924  -1.339 -26.373  1.00  0.00     0.188 A
BRANCH  21  24
HETATM   24  C5  UNL     1       0.391  -0.578 -24.462  1.00  0.00    -0.004 A
HETATM   25  C6  UNL     1      -0.592  -1.537 -24.367  1.00  0.00     0.014 A
HETATM   26  C7  UNL     1      -1.788  -1.291 -23.738  1.00  0.00     0.001 A
HETATM   27  C8  UNL     1      -2.018  -0.057 -23.183  1.00  0.00     0.000 A
HETATM   28  C9  UNL     1      -1.044   0.905 -23.272  1.00  0.00     0.001 A
HETATM   29  C10 UNL     1       0.154   0.655 -23.906  1.00  0.00     0.014 A
ENDBRANCH  21  24
BRANCH  23  30
HETATM   30  O1  UNL     1       0.905  -1.737 -27.249  1.00  0.00    -0.343 OA
ATOM     31  H1  UNL     1       0.142  -2.264 -27.042  1.00  0.00     0.219 HD
ENDBRANCH  23  30
ENDBRANCH  16  17
ENDBRANCH  10  16
ENDBRANCH   8  10
ENDBRANCH   1   8
BRANCH   7  32
HETATM   32  O5  UNL     1       4.636  -6.480 -26.406  1.00  0.00    -0.390 OA
ATOM     33  H5  UNL     1       4.858  -7.404 -26.421  1.00  0.00     0.210 HD
ENDBRANCH   7  32
BRANCH   4  34
HETATM   34  C14 UNL     1      -0.058  -6.134 -27.791  1.00  0.00     0.143 A
HETATM   35  N7  UNL     1      -0.205  -7.259 -27.097  1.00  0.00    -0.270 N
HETATM   36  N8  UNL     1      -1.423  -7.270 -26.602  1.00  0.00    -0.227 N
ATOM     37  H7  UNL     1       0.502  -7.984 -26.972  1.00  0.00     0.190 HD
HETATM   38  N9  UNL     1      -2.030  -6.167 -26.984  1.00  0.00    -0.222 N
ATOM     39  H8  UNL     1      -1.827  -8.006 -26.022  1.00  0.00     0.210 HD
HETATM   40  N10 UNL     1      -1.203  -5.456 -27.717  1.00  0.00    -0.227 N
ATOM     41  H9  UNL     1      -2.988  -5.906 -26.749  1.00  0.00     0.210 HD
BRANCH  40  42
HETATM   42  C15 UNL     1      -1.554  -4.170 -28.296  1.00  0.00     0.340 C
HETATM   43  N11 UNL     1      -1.565  -4.307 -29.717  1.00  0.00    -0.047 N
HETATM   44  C16 UNL     1      -2.838  -4.861 -30.098  1.00  0.00     0.269 C
ATOM     45 2H11 UNL     1      -1.354  -3.434 -30.200  1.00  0.00     0.279 HD
ATOM     46 1H11 UNL     1      -0.776  -4.850 -30.069  1.00  0.00     0.279 HD
HETATM   47  C17 UNL     1      -3.799  -4.499 -29.003  1.00  0.00     0.176 C
HETATM   48  C18 UNL     1      -3.000  -3.803 -27.950  1.00  0.00     0.200 C
BRANCH  47  49
HETATM   49  O2  UNL     1      -4.750  -3.576 -29.477  1.00  0.00    -0.391 OA
ATOM     50  H2  UNL     1      -5.131  -3.096 -28.752  1.00  0.00     0.210 HD
ENDBRANCH  47  49
BRANCH  48  51
HETATM   51  O3  UNL     1      -3.096  -2.414 -28.113  1.00  0.00    -0.389 OA
ATOM     52  H3  UNL     1      -4.020  -2.228 -28.236  1.00  0.00     0.210 HD
ENDBRANCH  48  51
ENDBRANCH  40  42
ENDBRANCH   4  34
BRANCH   6  53
HETATM   53  N12 UNL     1       4.076  -8.034 -28.187  1.00  0.00    -0.070 N
ATOM     54 3H12 UNL     1       4.012  -9.047 -28.088  1.00  0.00     0.274 HD
ATOM     55 2H12 UNL     1       4.141  -8.002 -29.204  1.00  0.00     0.274 HD
ATOM     56 1H12 UNL     1       4.897  -7.643 -27.724  1.00  0.00     0.274 HD
ENDBRANCH   6  53
BRANCH   5  57
HETATM   57  O4  UNL     1       3.005  -6.369 -29.810  1.00  0.00    -0.391 OA
ATOM     58  H4  UNL     1       2.698  -6.682 -30.653  1.00  0.00     0.210 HD
ENDBRANCH   5  57
TORSDOF 15
ENDMDL