MODEL 5
REMARK VINA RESULT: -5.574678634      2.828      6.938
REMARK  16 active torsions:
REMARK  status: ('A' for Active; 'I' for Inactive)
REMARK    1  A    between atoms: C2_2  and  O1_3
REMARK    2  A    between atoms: O1_3  and  C3_4
REMARK    3  A    between atoms: C3_4  and  C4_6
REMARK    4  A    between atoms: C4_6  and  O3_7
REMARK    5  A    between atoms: C6_11  and  C7_12
REMARK    6  A    between atoms: C7_12  and  O5_13
REMARK    7  A    between atoms: C7_12  and  C8_15
REMARK    8  A    between atoms: C8_15  and  O6_16
REMARK    9  A    between atoms: C9_19  and  O8_20
REMARK   10  A    between atoms: O8_20  and  C10_21
REMARK   11  A    between atoms: C11_25  and  O9_26
REMARK   12  A    between atoms: C12_28  and  C13_29
REMARK   13  A    between atoms: C13_29  and  O10_30
REMARK   14  A    between atoms: C15_34  and  O12_35
REMARK   15  A    between atoms: O12_35  and  C16_36
REMARK   16  A    between atoms: C19_45  and  O13_47
ROOT
HETATM    1  C4  UNL     1       0.276  -0.636 -27.161  1.00  0.00     0.281 C
HETATM    2  O4  UNL     1       0.336   0.300 -26.149  1.00  0.00    -0.336 OA
HETATM    3  C5  UNL     1      -0.623   0.046 -25.216  1.00  0.00     0.169 C
HETATM    4  C6  UNL     1      -1.849   0.883 -25.440  1.00  0.00     0.185 C
HETATM    5  O7  UNL     1      -2.956   0.093 -25.295  1.00  0.00    -0.350 OA
HETATM    6  C9  UNL     1      -2.578  -1.198 -25.037  1.00  0.00     0.274 C
HETATM    7  C14 UNL     1      -1.165  -1.358 -25.514  1.00  0.00     0.108 C
HETATM    8  C15 UNL     1      -1.040  -1.383 -27.023  1.00  0.00     0.208 C
ENDROOT
BRANCH   8   9
HETATM    9  O12 UNL     1      -0.856  -2.613 -27.540  1.00  0.00    -0.350 OA
BRANCH   9  10
HETATM   10  C16 UNL     1      -1.425  -3.701 -27.006  1.00  0.00     0.278 C
HETATM   11  N2  UNL     1      -0.397  -4.448 -26.304  1.00  0.00    -0.346 N
HETATM   12  C17 UNL     1       0.123  -5.702 -26.675  1.00  0.00     0.120 A
ATOM     13  H2  UNL     1      -0.013  -4.022 -25.460  1.00  0.00     0.163 HD
HETATM   14  C18 UNL     1      -0.872  -6.566 -27.210  1.00  0.00     0.249 A
HETATM   15  N3  UNL     1       0.475  -7.009 -27.100  1.00  0.00    -0.349 N
HETATM   16  N4  UNL     1      -2.162  -5.932 -27.235  1.00  0.00    -0.362 N
HETATM   17  C19 UNL     1      -2.240  -4.601 -27.822  1.00  0.00     0.170 C
ATOM     18  H4  UNL     1      -2.989  -6.396 -26.859  1.00  0.00     0.158 HD
HETATM   19  C20 UNL     1      -1.791  -4.757 -29.255  1.00  0.00     0.075 C
ATOM     20  H3  UNL     1       1.180  -7.735 -27.232  1.00  0.00     0.163 HD
BRANCH  17  21
HETATM   21  O13 UNL     1      -3.603  -4.294 -27.856  1.00  0.00    -0.367 OA
ATOM     22  H13 UNL     1      -4.163  -4.994 -28.169  1.00  0.00     0.212 HD
ENDBRANCH  17  21
ENDBRANCH   9  10
ENDBRANCH   8   9
BRANCH   1  23
HETATM   23  C3  UNL     1       1.451  -1.527 -27.010  1.00  0.00     0.325 C
HETATM   24  O2  UNL     1       2.136  -1.934 -27.982  1.00  0.00    -0.259 OA
BRANCH  23  25
HETATM   25  O1  UNL     1       1.841  -1.950 -25.749  1.00  0.00    -0.318 OA
BRANCH  25  26
HETATM   26  C2  UNL     1       3.197  -2.027 -25.422  1.00  0.00     0.174 C
HETATM   27  C1  UNL     1       3.813  -0.710 -25.074  1.00  0.00     0.034 C
ENDBRANCH  25  26
ENDBRANCH  23  25
ENDBRANCH   1  23
BRANCH   1  28
HETATM   28  O3  UNL     1       0.368   0.049 -28.364  1.00  0.00    -0.356 OA
ATOM     29  H3  UNL     1       1.265   0.329 -28.501  1.00  0.00     0.213 HD
ENDBRANCH   1  28
BRANCH   6  30
HETATM   30  O8  UNL     1      -2.539  -1.347 -23.637  1.00  0.00    -0.308 OA
BRANCH  30  31
HETATM   31  C10 UNL     1      -3.815  -1.526 -23.106  1.00  0.00     0.475 C
HETATM   32  N1  UNL     1      -4.389  -0.277 -22.724  1.00  0.00     0.004 N
HETATM   33  C11 UNL     1      -5.680  -0.165 -23.355  1.00  0.00     0.355 C
ATOM     34  H12 UNL     1      -4.434  -0.158 -21.711  1.00  0.00     0.286 HD
ATOM     35  H11 UNL     1      -3.780   0.515 -22.929  1.00  0.00     0.286 HD
HETATM   36  C12 UNL     1      -5.806  -1.437 -24.126  1.00  0.00     0.206 C
HETATM   37  O11 UNL     1      -4.599  -2.081 -24.107  1.00  0.00    -0.327 OA
BRANCH  33  38
HETATM   38  O9  UNL     1      -5.750   0.935 -24.206  1.00  0.00    -0.368 OA
ATOM     39  H9  UNL     1      -6.070   0.696 -25.068  1.00  0.00     0.212 HD
ENDBRANCH  33  38
BRANCH  36  40
HETATM   40  C13 UNL     1      -6.906  -2.332 -23.577  1.00  0.00     0.200 C
BRANCH  40  41
HETATM   41  O10 UNL     1      -8.033  -1.580 -23.268  1.00  0.00    -0.398 OA
ATOM     42  H10 UNL     1      -8.799  -1.937 -23.704  1.00  0.00     0.209 HD
ENDBRANCH  40  41
ENDBRANCH  36  40
ENDBRANCH  30  31
ENDBRANCH   6  30
BRANCH   4  43
HETATM   43  C7  UNL     1      -1.871   2.150 -24.639  1.00  0.00     0.173 C
BRANCH  43  44
HETATM   44  O5  UNL     1      -2.330   1.892 -23.368  1.00  0.00    -0.391 OA
ATOM     45  H5  UNL     1      -3.250   2.119 -23.305  1.00  0.00     0.210 HD
ENDBRANCH  43  44
BRANCH  43  46
HETATM   46  C8  UNL     1      -2.633   3.261 -25.321  1.00  0.00     0.198 C
BRANCH  46  47
HETATM   47  O6  UNL     1      -3.990   3.074 -24.970  1.00  0.00    -0.398 OA
ATOM     48  H6  UNL     1      -4.338   3.942 -24.802  1.00  0.00     0.209 HD
ENDBRANCH  46  47
ENDBRANCH  43  46
ENDBRANCH   4  43
TORSDOF 16
ENDMDL