MODEL 4
REMARK VINA RESULT: -6.921439625      4.257      8.575
REMARK  13 active torsions:
REMARK  status: ('A' for Active; 'I' for Inactive)
REMARK    1  A    between atoms: O1_2  and  N1_3
REMARK    2  A    between atoms: C3_6  and  S1_7
REMARK    3  A    between atoms: S1_7  and  C4_8
REMARK    4  A    between atoms: C4_8  and  C5_9
REMARK    5  A    between atoms: C6_12  and  N3_13
REMARK    6  A    between atoms: C11_28  and  N10_29
REMARK    7  A    between atoms: C12_34  and  N12_35
REMARK    8  A    between atoms: C14_40  and  C15_41
REMARK    9  A    between atoms: C15_41  and  O3_42
REMARK   10  A    between atoms: C16_44  and  N13_45
REMARK   11  A    between atoms: N13_45  and  C17_48
REMARK   12  A    between atoms: C17_48  and  O4_49
REMARK   13  A    between atoms: C17_48  and  O5_51
ROOT
HETATM    1  C5  UNL     1       0.804  -0.723 -27.242  1.00  0.00     0.053 A
HETATM    2  N2  UNL     1      -0.361  -0.710 -26.516  1.00  0.00    -0.193 N
ATOM      3  H2  UNL     1      -1.235  -0.862 -27.018  1.00  0.00     0.184 HD
HETATM    4  C6  UNL     1      -0.428  -0.514 -25.199  1.00  0.00     0.690 A
HETATM    5  N8  UNL     1       0.765  -0.315 -24.559  1.00  0.00    -0.175 N
ATOM      6  H8  UNL     1       0.754  -0.163 -23.551  1.00  0.00     0.186 HD
HETATM    7  C10 UNL     1       1.943  -0.311 -25.188  1.00  0.00     0.152 A
HETATM    8  N9  UNL     1       3.105  -0.128 -24.521  1.00  0.00    -0.175 N
ATOM      9  H9  UNL     1       3.089   0.025 -23.513  1.00  0.00     0.186 HD
HETATM   10  C11 UNL     1       4.279  -0.145 -25.172  1.00  0.00     0.679 A
HETATM   11  N11 UNL     1       4.354  -0.340 -26.494  1.00  0.00    -0.176 N
ATOM     12  H11 UNL     1       5.262  -0.348 -26.959  1.00  0.00     0.186 HD
HETATM   13  C12 UNL     1       3.204  -0.532 -27.225  1.00  0.00     0.130 A
HETATM   14  C13 UNL     1       1.999  -0.517 -26.564  1.00  0.00     0.077 A
ENDROOT
BRANCH   1  15
HETATM   15  C4  UNL     1       0.852  -0.937 -28.684  1.00  0.00     0.135 C
BRANCH  15  16
HETATM   16  S1  UNL     1      -0.149  -2.462 -29.012  1.00  0.00    -0.125 SA
BRANCH  16  17
HETATM   17  C3  UNL     1       0.689  -3.811 -28.302  1.00  0.00     0.233 C
HETATM   18  C2  UNL     1       2.001  -4.245 -28.868  1.00  0.00     0.082 C
HETATM   19  N1  UNL     1       2.689  -3.817 -29.751  1.00  0.00    -0.270 N
HETATM   20  C16 UNL     1       2.271  -5.384 -27.903  1.00  0.00     0.273 C
ATOM     21  H1  UNL     1       3.505  -4.427 -29.803  1.00  0.00     0.194 HD
HETATM   22  C14 UNL     1       1.912  -4.638 -26.630  1.00  0.00     0.183 C
HETATM   23  O2  UNL     1       0.968  -3.657 -26.948  1.00  0.00    -0.360 OA
BRANCH  19  24
HETATM   24  O1  UNL     1       2.846  -2.913 -30.670  1.00  0.00    -0.285 OA
HETATM   25  C1  UNL     1       3.947  -2.645 -31.484  1.00  0.00     0.237 C
ENDBRANCH  19  24
BRANCH  20  26
HETATM   26  N13 UNL     1       3.526  -5.975 -27.968  1.00  0.00    -0.013 N
ATOM     27 2H13 UNL     1       3.865  -5.994 -28.931  1.00  0.00     0.284 HD
ATOM     28 1H13 UNL     1       4.232  -5.368 -27.551  1.00  0.00     0.284 HD
BRANCH  26  29
HETATM   29  C17 UNL     1       3.576  -7.283 -27.388  1.00  0.00     0.465 C
BRANCH  29  30
HETATM   30  O4  UNL     1       4.278  -7.296 -26.182  1.00  0.00    -0.350 OA
ATOM     31  H4  UNL     1       5.203  -7.471 -26.309  1.00  0.00     0.214 HD
ENDBRANCH  29  30
BRANCH  29  32
HETATM   32  O5  UNL     1       4.305  -8.165 -28.224  1.00  0.00    -0.350 OA
ATOM     33  H5  UNL     1       5.014  -8.570 -27.739  1.00  0.00     0.214 HD
ENDBRANCH  29  32
ENDBRANCH  26  29
ENDBRANCH  20  26
BRANCH  22  34
HETATM   34  C15 UNL     1       3.132  -4.059 -25.968  1.00  0.00     0.198 C
BRANCH  34  35
HETATM   35  O3  UNL     1       3.994  -3.453 -26.842  1.00  0.00    -0.398 OA
ATOM     36  H3  UNL     1       4.904  -3.504 -26.575  1.00  0.00     0.209 HD
ENDBRANCH  34  35
ENDBRANCH  22  34
ENDBRANCH  16  17
ENDBRANCH  15  16
ENDBRANCH   1  15
BRANCH   4  37
HETATM   37  N3  UNL     1      -1.617  -0.484 -24.407  1.00  0.00    -0.138 N
HETATM   38  C7  UNL     1      -1.645   0.489 -23.333  1.00  0.00     0.276 A
HETATM   39  N4  UNL     1      -2.867   0.434 -22.586  1.00  0.00    -0.347 N
HETATM   40  C8  UNL     1      -3.856  -0.338 -22.791  1.00  0.00     0.191 A
ATOM     41  H4  UNL     1      -2.952   1.085 -21.806  1.00  0.00     0.163 HD
HETATM   42  N5  UNL     1      -4.981  -0.225 -21.926  1.00  0.00    -0.063 NA
HETATM   43  N6  UNL     1      -3.824  -1.286 -23.857  1.00  0.00    -0.304 N
HETATM   44  C9  UNL     1      -2.736  -1.313 -24.596  1.00  0.00     0.213 A
ATOM     45  H6  UNL     1      -4.607  -1.913 -24.037  1.00  0.00     0.171 HD
HETATM   46  N7  UNL     1      -2.664  -2.241 -25.669  1.00  0.00    -0.062 NA
ENDBRANCH   4  37
BRANCH  13  47
HETATM   47  N12 UNL     1       3.306  -0.717 -28.487  1.00  0.00    -0.384 N
ATOM     48 2H12 UNL     1       4.011  -1.323 -28.906  1.00  0.00     0.157 HD
ATOM     49 1H12 UNL     1       2.652  -0.235 -29.105  1.00  0.00     0.157 HD
ENDBRANCH  13  47
BRANCH  10  50
HETATM   50  N10 UNL     1       5.355   0.037 -24.483  1.00  0.00    -0.234 N
ATOM     51 2H10 UNL     1       6.250   0.161 -24.956  1.00  0.00     0.174 HD
ATOM     52 1H10 UNL     1       5.273   0.054 -23.467  1.00  0.00     0.174 HD
ENDBRANCH  10  50
TORSDOF 13
ENDMDL