MODEL 1
REMARK VINA RESULT: -5.954337910      0.000      0.000
REMARK  16 active torsions:
REMARK  status: ('A' for Active; 'I' for Inactive)
REMARK    1  A    between atoms: C2_2  and  O1_3
REMARK    2  A    between atoms: O1_3  and  C3_4
REMARK    3  A    between atoms: C3_4  and  O2_5
REMARK    4  A    between atoms: C8_15  and  C9_16
REMARK    5  A    between atoms: C8_15  and  C11_18
REMARK    6  A    between atoms: C12_22  and  N3_23
REMARK    7  A    between atoms: N3_23  and  C13_25
REMARK    8  A    between atoms: C14_26  and  O7_27
REMARK    9  A    between atoms: C15_29  and  N4_30
REMARK   10  A    between atoms: C17_35  and  N5_36
REMARK   11  A    between atoms: C18_40  and  N6_41
REMARK   12  A    between atoms: N6_41  and  C19_43
REMARK   13  A    between atoms: C19_43  and  N7_44
REMARK   14  A    between atoms: C19_43  and  O8_48
REMARK   15  A    between atoms: C20_50  and  N8_51
REMARK   16  A    between atoms: N8_51  and  O9_52
ROOT
HETATM    1  C3  UNL     1       3.758  -4.621 -28.773  1.00  0.00     0.244 C
HETATM    2  C4  UNL     1       2.486  -3.985 -29.472  1.00  0.00     0.246 C
HETATM    3  O3  UNL     1       1.899  -5.227 -29.806  1.00  0.00    -0.356 OA
HETATM    4  C5  UNL     1       1.739  -5.874 -28.580  1.00  0.00     0.216 C
HETATM    5  C6  UNL     1       1.777  -7.314 -28.762  1.00  0.00     0.136 C
HETATM    6  C7  UNL     1       3.033  -8.027 -28.895  1.00  0.00     0.117 C
HETATM    7  N1  UNL     1       4.040  -8.630 -29.000  1.00  0.00    -0.190 NA
HETATM    8  N2  UNL     1       0.688  -7.958 -28.783  1.00  0.00    -0.341 N
ATOM      9  H2  UNL     1       0.725  -8.969 -28.915  1.00  0.00     0.163 HD
HETATM   10  C8  UNL     1      -0.572  -7.350 -28.632  1.00  0.00     0.227 C
HETATM   11  O6  UNL     1      -0.601  -6.156 -27.920  1.00  0.00    -0.322 OA
HETATM   12  C12 UNL     1       0.501  -5.390 -27.851  1.00  0.00     0.273 C
HETATM   13  C20 UNL     1       3.025  -5.484 -27.834  1.00  0.00     0.204 C
ENDROOT
BRANCH  12  14
HETATM   14  N3  UNL     1       0.897  -4.979 -26.547  1.00  0.00    -0.363 N
ATOM     15  H3  UNL     1       1.432  -5.621 -25.961  1.00  0.00     0.162 HD
BRANCH  14  16
HETATM   16  C13 UNL     1       0.563  -3.694 -26.044  1.00  0.00     0.040 C
HETATM   17  C14 UNL     1      -0.395  -2.910 -26.935  1.00  0.00     0.196 C
HETATM   18  C15 UNL     1      -1.347  -2.170 -25.979  1.00  0.00     0.219 C
HETATM   19  C16 UNL     1      -0.697  -1.948 -24.643  1.00  0.00     0.071 C
HETATM   20  C17 UNL     1       0.776  -1.723 -24.677  1.00  0.00     0.213 C
HETATM   21  C18 UNL     1       1.561  -2.832 -25.386  1.00  0.00     0.159 C
BRANCH  17  22
HETATM   22  O7  UNL     1       0.235  -2.037 -27.788  1.00  0.00    -0.388 OA
ATOM     23  H7  UNL     1       0.735  -1.364 -27.342  1.00  0.00     0.210 HD
ENDBRANCH  17  22
BRANCH  18  24
HETATM   24  N4  UNL     1      -1.965  -1.025 -26.558  1.00  0.00    -0.072 N
ATOM     25  H43 UNL     1      -1.546  -0.811 -27.463  1.00  0.00     0.274 HD
ATOM     26  H42 UNL     1      -2.916  -1.241 -26.855  1.00  0.00     0.274 HD
ATOM     27  H41 UNL     1      -1.955  -0.204 -25.953  1.00  0.00     0.274 HD
ENDBRANCH  18  24
BRANCH  20  28
HETATM   28  N5  UNL     1       0.983  -0.427 -25.258  1.00  0.00    -0.073 N
ATOM     29  H53 UNL     1       0.293  -0.192 -25.972  1.00  0.00     0.274 HD
ATOM     30  H52 UNL     1       0.773   0.339 -24.618  1.00  0.00     0.274 HD
ATOM     31  H51 UNL     1       1.942  -0.410 -25.604  1.00  0.00     0.274 HD
ENDBRANCH  20  28
BRANCH  21  32
HETATM   32  N6  UNL     1       2.599  -2.226 -26.085  1.00  0.00    -0.364 N
ATOM     33  H6  UNL     1       2.455  -1.889 -27.037  1.00  0.00     0.158 HD
BRANCH  32  34
HETATM   34  C19 UNL     1       3.872  -2.082 -25.451  1.00  0.00     0.420 C
BRANCH  34  35
HETATM   35  N7  UNL     1       4.775  -1.194 -26.114  1.00  0.00    -0.035 N
ATOM     36  H73 UNL     1       4.914  -0.351 -25.556  1.00  0.00     0.279 HD
ATOM     37  H72 UNL     1       5.721  -1.575 -26.098  1.00  0.00     0.279 HD
ATOM     38  H71 UNL     1       4.509  -0.948 -27.067  1.00  0.00     0.279 HD
ENDBRANCH  34  35
BRANCH  34  39
HETATM   39  O8  UNL     1       4.430  -3.364 -25.410  1.00  0.00    -0.355 OA
ATOM     40  H8  UNL     1       5.159  -3.314 -24.803  1.00  0.00     0.213 HD
ENDBRANCH  34  39
ENDBRANCH  32  34
ENDBRANCH  21  32
ENDBRANCH  14  16
ENDBRANCH  12  14
BRANCH  13  41
HETATM   41  N8  UNL     1       3.355  -5.814 -26.717  1.00  0.00    -0.283 NA
BRANCH  41  42
HETATM   42  O9  UNL     1       3.670  -6.407 -25.656  1.00  0.00    -0.218 OA
ATOM     43  H9  UNL     1       3.721  -6.800 -24.794  1.00  0.00     0.261 HD
ENDBRANCH  41  42
ENDBRANCH  13  41
BRANCH  10  44
HETATM   44  C9  UNL     1      -1.215  -7.053 -29.962  1.00  0.00     0.069 C
HETATM   45  C10 UNL     1      -1.028  -8.166 -30.934  1.00  0.00     0.010 C
ENDBRANCH  10  44
BRANCH  10  46
HETATM   46  C11 UNL     1      -1.443  -8.366 -27.956  1.00  0.00     0.231 C
HETATM   47  O4  UNL     1      -1.091  -9.529 -27.770  1.00  0.00    -0.644 OA
HETATM   48  O5  UNL     1      -2.706  -7.930 -27.539  1.00  0.00    -0.644 OA
ENDBRANCH  10  46
BRANCH   1  49
HETATM   49  O1  UNL     1       4.525  -3.617 -28.297  1.00  0.00    -0.348 OA
BRANCH  49  50
HETATM   50  C2  UNL     1       5.306  -3.035 -29.269  1.00  0.00     0.167 C
HETATM   51  C1  UNL     1       6.706  -2.714 -28.755  1.00  0.00     0.033 C
ENDBRANCH  49  50
ENDBRANCH   1  49
BRANCH   1  52
HETATM   52  O2  UNL     1       4.351  -5.280 -29.860  1.00  0.00    -0.358 OA
ATOM     53  H2  UNL     1       4.811  -6.069 -29.599  1.00  0.00     0.213 HD
ENDBRANCH   1  52
TORSDOF 16
ENDMDL