MODEL 1
REMARK VINA RESULT: -6.943175483      0.000      0.000
REMARK  15 active torsions:
REMARK  status: ('A' for Active; 'I' for Inactive)
REMARK       I    between atoms: C1_4  and  N3_6
REMARK    1  A    between atoms: N3_6  and  N4_8
REMARK    2  A    between atoms: N5_10  and  O1_11
REMARK    3  A    between atoms: N5_10  and  N6_13
REMARK       I    between atoms: N6_13  and  C2_15
REMARK       I    between atoms: C2_15  and  N8_19
REMARK    4  A    between atoms: N8_19  and  C3_21
REMARK    5  A    between atoms: C4_24  and  N10_25
REMARK    6  A    between atoms: N12_31  and  N13_32
REMARK    7  A    between atoms: C6_34  and  C7_35
REMARK    8  A    between atoms: C8_37  and  C9_38
REMARK    9  A    between atoms: C9_38  and  O3_39
REMARK   10  A    between atoms: C9_38  and  O4_41
REMARK   11  A    between atoms: N14_45  and  C12_47
REMARK   12  A    between atoms: C12_47  and  O5_48
REMARK   13  A    between atoms: C12_47  and  C13_50
REMARK   14  A    between atoms: C13_50  and  N15_51
REMARK   15  A    between atoms: C14_55  and  O6_56
ROOT
HETATM    1  C3  UNL     1       1.287  -0.625 -25.630  1.00  0.00     0.748 A
HETATM    2  N9  UNL     1       1.543  -0.298 -26.900  1.00  0.00    -0.019 N
ATOM      3  H9  UNL     1       2.400  -0.642 -27.331  1.00  0.00     0.203 HD
HETATM    4  C4  UNL     1       0.694   0.485 -27.648  1.00  0.00     0.705 A
HETATM    5  N11 UNL     1      -0.449   0.936 -27.055  1.00  0.00    -0.018 N
ATOM      6  H11 UNL     1      -1.100   1.518 -27.581  1.00  0.00     0.203 HD
HETATM    7  C5  UNL     1      -0.714   0.621 -25.805  1.00  0.00     0.755 A
HETATM    8  N12 UNL     1      -1.779   0.958 -25.038  1.00  0.00    -0.078 N
HETATM    9  C15 UNL     1      -1.529   0.354 -23.830  1.00  0.00     0.243 A
HETATM   10  N16 UNL     1      -0.366  -0.301 -23.908  1.00  0.00    -0.258 N
ATOM     11  H16 UNL     1       0.058  -0.836 -23.151  1.00  0.00     0.189 HD
HETATM   12  N17 UNL     1       0.145  -0.151 -25.102  1.00  0.00     0.094 N
ENDROOT
BRANCH   8  13
HETATM   13  N13 UNL     1      -2.900   1.710 -25.274  1.00  0.00    -0.287 N
HETATM   14  C6  UNL     1      -2.972   2.956 -25.386  1.00  0.00     0.148 C
ATOM     15  H13 UNL     1      -3.776   1.197 -25.371  1.00  0.00     0.187 HD
BRANCH  14  16
HETATM   16  C7  UNL     1      -4.272   3.627 -25.644  1.00  0.00     0.128 A
HETATM   17  O2  UNL     1      -4.654   4.609 -24.888  1.00  0.00    -0.306 OA
HETATM   18  C8  UNL     1      -5.790   5.251 -25.054  1.00  0.00     0.110 A
HETATM   19  C10 UNL     1      -6.610   4.850 -26.091  1.00  0.00     0.070 A
HETATM   20  C11 UNL     1      -6.267   3.820 -26.927  1.00  0.00     0.069 A
HETATM   21  N14 UNL     1      -7.015   3.441 -27.888  1.00  0.00    -0.360 N
HETATM   22  C14 UNL     1      -5.054   3.191 -26.688  1.00  0.00     0.128 A
ATOM     23  H14 UNL     1      -6.724   2.670 -28.489  1.00  0.00     0.162 HD
BRANCH  18  24
HETATM   24  C9  UNL     1      -6.128   6.362 -24.127  1.00  0.00     0.312 C
BRANCH  24  25
HETATM   25  O3  UNL     1      -6.089   5.809 -22.829  1.00  0.00    -0.365 OA
ATOM     26  H3  UNL     1      -6.995   5.676 -22.575  1.00  0.00     0.213 HD
ENDBRANCH  24  25
BRANCH  24  27
HETATM   27  O4  UNL     1      -5.061   7.281 -24.165  1.00  0.00    -0.365 OA
ATOM     28  H4  UNL     1      -5.429   8.137 -24.351  1.00  0.00     0.213 HD
ENDBRANCH  24  27
ENDBRANCH  18  24
BRANCH  21  29
HETATM   29  C12 UNL     1      -8.286   4.112 -28.126  1.00  0.00     0.243 C
BRANCH  29  30
HETATM   30  O5  UNL     1      -8.101   4.897 -29.275  1.00  0.00    -0.375 OA
ATOM     31  H5  UNL     1      -8.960   4.988 -29.670  1.00  0.00     0.212 HD
ENDBRANCH  29  30
BRANCH  29  32
HETATM   32  C13 UNL     1      -9.378   3.119 -28.450  1.00  0.00     0.282 C
BRANCH  32  33
HETATM   33  N15 UNL     1      -9.723   2.468 -27.179  1.00  0.00    -0.075 N
ATOM     34 3H15 UNL     1     -10.031   3.120 -26.458  1.00  0.00     0.274 HD
ATOM     35 2H15 UNL     1     -10.581   1.919 -27.224  1.00  0.00     0.274 HD
ATOM     36 1H15 UNL     1      -8.904   1.922 -26.912  1.00  0.00     0.274 HD
ENDBRANCH  32  33
ENDBRANCH  29  32
ENDBRANCH  21  29
BRANCH  22  37
HETATM   37  O6  UNL     1      -4.594   2.139 -27.463  1.00  0.00    -0.356 OA
ATOM     38  H6  UNL     1      -4.773   2.152 -28.396  1.00  0.00     0.218 HD
ENDBRANCH  22  37
ENDBRANCH  14  16
ENDBRANCH   8  13
BRANCH   4  39
HETATM   39  N10 UNL     1       1.012   0.728 -28.795  1.00  0.00    -0.234 N
ATOM     40 2H10 UNL     1       0.980   0.049 -29.557  1.00  0.00     0.174 HD
ATOM     41 1H10 UNL     1       1.334   1.671 -29.010  1.00  0.00     0.174 HD
ENDBRANCH   4  39
BRANCH   1  42
HETATM   42  N8  UNL     1       2.060  -1.348 -24.918  1.00  0.00    -0.018 N
HETATM   43  C2  UNL     1       2.747  -2.488 -25.352  1.00  0.00     0.708 C
HETATM   44  N6  UNL     1       4.162  -2.539 -25.551  1.00  0.00    -0.089 N
HETATM   45  N7  UNL     1       2.085  -3.566 -25.591  1.00  0.00    -0.233 N
ATOM     46  H6  UNL     1       4.800  -2.028 -24.941  1.00  0.00     0.210 HD
ATOM     47  H72 UNL     1       2.585  -4.396 -25.907  1.00  0.00     0.174 HD
ATOM     48  H71 UNL     1       1.076  -3.529 -25.449  1.00  0.00     0.174 HD
ATOM     49  H8  UNL     1       2.189  -1.070 -23.945  1.00  0.00     0.203 HD
BRANCH  44  50
HETATM   50  N5  UNL     1       4.637  -3.310 -26.603  1.00  0.00    -0.065 N
HETATM   51  N4  UNL     1       5.253  -2.754 -27.547  1.00  0.00    -0.198 N
ATOM     52  H4  UNL     1       5.378  -1.744 -27.495  1.00  0.00     0.212 HD
BRANCH  51  53
HETATM   53  N3  UNL     1       5.776  -3.408 -28.654  1.00  0.00    -0.256 N
HETATM   54  C1  UNL     1       6.841  -2.770 -29.347  1.00  0.00     0.202 C
HETATM   55  N1  UNL     1       7.953  -2.551 -28.767  1.00  0.00    -0.372 N
HETATM   56  N2  UNL     1       6.671  -2.371 -30.695  1.00  0.00    -0.062 NA
ATOM     57  H12 UNL     1       8.717  -2.093 -29.264  1.00  0.00     0.158 HD
ATOM     58  H11 UNL     1       8.076  -2.838 -27.796  1.00  0.00     0.158 HD
ATOM     59  H3  UNL     1       5.411  -4.310 -28.959  1.00  0.00     0.191 HD
ENDBRANCH  51  53
BRANCH  50  60
HETATM   60  O1  UNL     1       4.445  -4.659 -26.629  1.00  0.00    -0.252 OA
ATOM     61  H1  UNL     1       3.810  -5.053 -26.041  1.00  0.00     0.248 HD
ENDBRANCH  50  60
ENDBRANCH  44  50
ENDBRANCH   1  42
TORSDOF 15
ENDMDL