MODEL 2
REMARK VINA RESULT: -8.148628216      3.879      6.634
REMARK  10 active torsions:
REMARK  status: ('A' for Active; 'I' for Inactive)
REMARK    1  A    between atoms: C1_4  and  C2_6
REMARK    2  A    between atoms: C4_9  and  C5_10
REMARK    3  A    between atoms: C5_10  and  N4_11
REMARK    4  A    between atoms: C5_10  and  N5_15
REMARK    5  A    between atoms: N6_19  and  N7_20
REMARK    6  A    between atoms: N7_20  and  C6_22
REMARK    7  A    between atoms: C8_24  and  O1_25
REMARK    8  A    between atoms: C12_36  and  N11_37
REMARK    9  A    between atoms: C13_42  and  C14_43
REMARK   10  A    between atoms: C15_46  and  N15_47
ROOT
HETATM    1  C2  UNL     1      17.069 -15.365   1.070  1.00  0.00     0.079 A
HETATM    2  C3  UNL     1      15.878 -15.998   1.407  1.00  0.00     0.092 A
HETATM    3  N3  UNL     1      15.582 -17.395   1.347  1.00  0.00    -0.099 NA
HETATM    4  C4  UNL     1      15.033 -15.008   1.814  1.00  0.00     0.118 A
HETATM    5  N6  UNL     1      15.669 -13.775   1.739  1.00  0.00    -0.235 N
HETATM    6  C12 UNL     1      16.900 -13.988   1.289  1.00  0.00     0.168 A
ENDROOT
BRANCH   5   7
HETATM    7  N7  UNL     1      14.974 -12.609   1.971  1.00  0.00    -0.290 N
ATOM      8  H7  UNL     1      14.120 -12.555   1.415  1.00  0.00     0.187 HD
BRANCH   7   9
HETATM    9  C6  UNL     1      15.145 -11.489   2.771  1.00  0.00     0.078 A
HETATM   10  C7  UNL     1      16.103 -10.519   2.705  1.00  0.00     0.072 A
HETATM   11  C8  UNL     1      16.152  -9.381   3.480  1.00  0.00     0.099 A
HETATM   12  C9  UNL     1      15.160  -9.187   4.405  1.00  0.00     0.120 A
HETATM   13  N8  UNL     1      14.917  -8.229   5.284  1.00  0.00    -0.237 N
HETATM   14  C10 UNL     1      14.162 -10.118   4.535  1.00  0.00     0.114 A
HETATM   15  O2  UNL     1      13.841  -8.532   5.924  1.00  0.00    -0.156 OA
ATOM     16  H8  UNL     1      15.483  -7.393   5.430  1.00  0.00     0.197 HD
HETATM   17  N9  UNL     1      13.345  -9.669   5.505  1.00  0.00    -0.237 N
ATOM     18  H9  UNL     1      12.501 -10.127   5.849  1.00  0.00     0.197 HD
HETATM   19  C11 UNL     1      14.154 -11.235   3.742  1.00  0.00     0.105 A
HETATM   20  N10 UNL     1      13.109 -12.168   3.901  1.00  0.00    -0.097 NA
BRANCH  11  21
HETATM   21  O1  UNL     1      17.197  -8.450   3.313  1.00  0.00    -0.358 OA
ATOM     22  H1  UNL     1      17.287  -7.717   3.910  1.00  0.00     0.217 HD
ENDBRANCH  11  21
ENDBRANCH   7   9
ENDBRANCH   5   7
BRANCH   4  23
HETATM   23  C5  UNL     1      13.645 -15.300   2.273  1.00  0.00     0.431 C
BRANCH  23  24
HETATM   24  N4  UNL     1      12.934 -15.859   1.130  1.00  0.00    -0.045 N
ATOM     25  H43 UNL     1      12.410 -15.160   0.601  1.00  0.00     0.277 HD
ATOM     26  H42 UNL     1      13.553 -16.152   0.374  1.00  0.00     0.277 HD
ATOM     27  H41 UNL     1      12.350 -16.615   1.488  1.00  0.00     0.277 HD
ENDBRANCH  23  24
BRANCH  23  28
HETATM   28  N5  UNL     1      13.659 -16.313   3.331  1.00  0.00    -0.045 N
ATOM     29  H53 UNL     1      14.597 -16.458   3.706  1.00  0.00     0.277 HD
ATOM     30  H52 UNL     1      13.206 -15.979   4.182  1.00  0.00     0.277 HD
ATOM     31  H51 UNL     1      13.245 -17.184   2.997  1.00  0.00     0.277 HD
ENDBRANCH  23  28
ENDBRANCH   4  23
BRANCH   6  32
HETATM   32  N11 UNL     1      17.972 -13.119   0.966  1.00  0.00    -0.198 N
HETATM   33  N12 UNL     1      19.126 -12.979   1.571  1.00  0.00    -0.232 N
HETATM   34  N13 UNL     1      19.892 -12.106   1.048  1.00  0.00    -0.277 N
ATOM     35  H12 UNL     1      19.388 -13.523   2.393  1.00  0.00     0.209 HD
HETATM   36  C13 UNL     1      19.230 -11.570  -0.032  1.00  0.00     0.167 A
ATOM     37  H13 UNL     1      20.825 -11.851   1.370  1.00  0.00     0.189 HD
HETATM   38  C15 UNL     1      18.017 -12.213  -0.086  1.00  0.00     0.231 A
BRANCH  36  39
HETATM   39  C14 UNL     1      19.768 -10.553  -0.882  1.00  0.00     0.286 C
HETATM   40  N14 UNL     1      21.152 -10.713  -1.314  1.00  0.00    -0.056 NA
HETATM   41  O3  UNL     1      19.192  -9.556  -1.291  1.00  0.00    -0.269 OA
ENDBRANCH  36  39
BRANCH  38  42
HETATM   42  N15 UNL     1      16.976 -12.098  -1.027  1.00  0.00    -0.093 N
HETATM   43  O4  UNL     1      16.063 -11.246  -0.818  1.00  0.00    -0.530 OA
HETATM   44  O5  UNL     1      16.875 -12.876  -2.126  1.00  0.00    -0.530 OA
ENDBRANCH  38  42
ENDBRANCH   6  32
BRANCH   1  45
HETATM   45  C1  UNL     1      18.202 -16.112   0.582  1.00  0.00     0.126 C
HETATM   46  N1  UNL     1      18.101 -16.742  -0.561  1.00  0.00    -0.387 N
ATOM     47  H12 UNL     1      18.901 -17.270  -0.907  1.00  0.00     0.157 HD
ATOM     48  H11 UNL     1      17.211 -16.684  -1.057  1.00  0.00     0.157 HD
HETATM   49  N2  UNL     1      19.424 -16.192   1.264  1.00  0.00    -0.082 NA
ENDBRANCH   1  45
TORSDOF 10
ENDMDL