MODEL 1
REMARK VINA RESULT: -8.949015912      0.000      0.000
REMARK  11 active torsions:
REMARK  status: ('A' for Active; 'I' for Inactive)
REMARK    1  A    between atoms: N1_1  and  C1_4
REMARK    2  A    between atoms: C4_10  and  N4_11
REMARK    3  A    between atoms: C6_14  and  N6_15
REMARK    4  A    between atoms: C7_18  and  N7_19
REMARK    5  A    between atoms: C8_24  and  N9_25
REMARK    6  A    between atoms: N9_25  and  C9_27
REMARK    7  A    between atoms: C9_27  and  C10_28
REMARK    8  A    between atoms: C10_28  and  N10_29
REMARK       I    between atoms: N10_29  and  C11_31
REMARK    9  A    between atoms: C11_31  and  C12_33
REMARK   10  A    between atoms: C13_38  and  C14_39
REMARK   11  A    between atoms: C15_43  and  N13_44
ROOT
HETATM    1  N4  UNL     1      16.118 -12.310   2.048  1.00  0.00    -0.265 N
HETATM    2  C5  UNL     1      16.177 -13.599   2.431  1.00  0.00     0.163 C
HETATM    3  N5  UNL     1      17.470 -14.212   2.519  1.00  0.00    -0.079 NA
HETATM    4  C6  UNL     1      15.074 -14.398   2.752  1.00  0.00     0.187 C
HETATM    5  C7  UNL     1      13.766 -14.024   2.988  1.00  0.00     0.137 C
HETATM    6  N8  UNL     1      13.350 -12.746   3.253  1.00  0.00    -0.324 N
ATOM      7  H8  UNL     1      12.422 -12.660   3.668  1.00  0.00     0.169 HD
HETATM    8  C8  UNL     1      14.004 -11.590   3.039  1.00  0.00     0.148 C
HETATM    9  C15 UNL     1      15.133 -11.413   2.249  1.00  0.00     0.153 C
ENDROOT
BRANCH   8  10
HETATM   10  N9  UNL     1      13.474 -10.469   3.706  1.00  0.00    -0.372 N
ATOM     11  H9  UNL     1      13.226  -9.652   3.149  1.00  0.00     0.161 HD
BRANCH  10  12
HETATM   12  C9  UNL     1      13.262 -10.410   5.134  1.00  0.00     0.141 C
BRANCH  12  13
HETATM   13  C10 UNL     1      14.413  -9.856   5.908  1.00  0.00     0.142 C
BRANCH  13  14
HETATM   14  N10 UNL     1      15.055  -8.771   5.192  1.00  0.00    -0.354 N
HETATM   15  C11 UNL     1      15.049  -7.442   5.637  1.00  0.00     0.276 C
HETATM   16  O3  UNL     1      14.509  -7.025   6.668  1.00  0.00    -0.265 OA
ATOM     17  H10 UNL     1      15.537  -8.986   4.319  1.00  0.00     0.162 HD
BRANCH  15  18
HETATM   18  C12 UNL     1      15.741  -6.416   4.823  1.00  0.00     0.159 A
HETATM   19  N11 UNL     1      16.603  -6.608   3.829  1.00  0.00    -0.288 N
HETATM   20  N12 UNL     1      17.108  -5.616   3.234  1.00  0.00    -0.287 N
ATOM     21  H11 UNL     1      16.856  -7.555   3.548  1.00  0.00     0.188 HD
HETATM   22  C13 UNL     1      16.774  -4.384   3.606  1.00  0.00     0.168 A
ATOM     23  H12 UNL     1      17.770  -5.758   2.472  1.00  0.00     0.188 HD
HETATM   24  S1  UNL     1      15.676  -4.710   4.878  1.00  0.00    -0.040 SA
BRANCH  22  25
HETATM   25  C14 UNL     1      17.243  -3.097   3.052  1.00  0.00     0.235 C
HETATM   26  O4  UNL     1      18.150  -2.448   3.586  1.00  0.00    -0.642 OA
HETATM   27  O5  UNL     1      16.633  -2.642   1.911  1.00  0.00    -0.642 OA
ENDBRANCH  22  25
ENDBRANCH  15  18
ENDBRANCH  13  14
ENDBRANCH  12  13
ENDBRANCH  10  12
ENDBRANCH   8  10
BRANCH   9  28
HETATM   28  N13 UNL     1      15.215 -10.269   1.664  1.00  0.00    -0.382 N
ATOM     29 2H13 UNL     1      16.029  -9.710   1.920  1.00  0.00     0.157 HD
ATOM     30 1H13 UNL     1      14.482 -10.006   1.006  1.00  0.00     0.157 HD
ENDBRANCH   9  28
BRANCH   5  31
HETATM   31  N7  UNL     1      12.870 -14.949   2.955  1.00  0.00    -0.383 N
ATOM     32  H72 UNL     1      12.094 -14.878   3.613  1.00  0.00     0.157 HD
ATOM     33  H71 UNL     1      12.991 -15.695   2.271  1.00  0.00     0.157 HD
ENDBRANCH   5  31
BRANCH   1  34
HETATM   34  C4  UNL     1      17.236 -11.857   1.349  1.00  0.00     0.133 A
HETATM   35  C3  UNL     1      17.209 -11.774  -0.027  1.00  0.00     0.095 A
HETATM   36  C2  UNL     1      18.341 -11.318  -0.668  1.00  0.00     0.135 A
HETATM   37  N2  UNL     1      19.424 -10.973   0.072  1.00  0.00    -0.179 N
HETATM   38  N3  UNL     1      18.340 -11.220  -2.085  1.00  0.00    -0.082 NA
HETATM   39  C1  UNL     1      19.419 -11.067   1.415  1.00  0.00     0.678 A
ATOM     40  H2  UNL     1      20.262 -10.635  -0.400  1.00  0.00     0.185 HD
HETATM   41  N14 UNL     1      18.324 -11.508   2.054  1.00  0.00    -0.176 N
ATOM     42  H14 UNL     1      18.320 -11.578   3.071  1.00  0.00     0.186 HD
BRANCH  39  43
HETATM   43  N1  UNL     1      20.487 -10.720   2.051  1.00  0.00    -0.234 N
ATOM     44  H12 UNL     1      20.898  -9.792   1.948  1.00  0.00     0.174 HD
ATOM     45  H11 UNL     1      20.920 -11.406   2.670  1.00  0.00     0.174 HD
ENDBRANCH  39  43
ENDBRANCH   1  34
BRANCH   4  46
HETATM   46  N6  UNL     1      15.355 -15.779   2.844  1.00  0.00    -0.108 N
HETATM   47  O1  UNL     1      15.394 -16.453   1.807  1.00  0.00    -0.532 OA
HETATM   48  O2  UNL     1      15.584 -16.393   4.042  1.00  0.00    -0.532 OA
ENDBRANCH   4  46
TORSDOF 11
ENDMDL