MODEL 4
REMARK VINA RESULT: -8.776070630      1.582      2.115
REMARK  10 active torsions:
REMARK  status: ('A' for Active; 'I' for Inactive)
REMARK    1  A    between atoms: O1_2  and  C2_3
REMARK    2  A    between atoms: C3_4  and  C4_5
REMARK    3  A    between atoms: C4_5  and  C5_6
REMARK    4  A    between atoms: C6_9  and  C7_10
REMARK    5  A    between atoms: C8_20  and  N6_21
REMARK       I    between atoms: N6_21  and  C9_23
REMARK    6  A    between atoms: C9_23  and  C10_25
REMARK    7  A    between atoms: C11_29  and  C12_30
REMARK    8  A    between atoms: C13_44  and  C14_45
REMARK    9  A    between atoms: C14_45  and  O4_46
REMARK   10  A    between atoms: C15_48  and  O5_49
ROOT
HETATM    1  C5  UNL     1      15.332 -11.318   1.627  1.00  0.00     0.046 A
HETATM    2  N1  UNL     1      14.915 -12.560   1.681  1.00  0.00    -0.348 N
ATOM      3  H1  UNL     1      14.998 -13.150   0.853  1.00  0.00     0.166 HD
HETATM    4  C6  UNL     1      14.400 -13.057   2.765  1.00  0.00     0.123 A
HETATM    5  S1  UNL     1      14.472 -11.748   3.829  1.00  0.00    -0.049 SA
HETATM    6  C8  UNL     1      15.216 -10.551   2.733  1.00  0.00     0.102 A
ENDROOT
BRANCH   6   7
HETATM    7  N6  UNL     1      15.534  -9.245   3.149  1.00  0.00    -0.313 N
HETATM    8  C9  UNL     1      16.638  -8.491   3.451  1.00  0.00     0.292 C
HETATM    9  O2  UNL     1      17.826  -8.811   3.437  1.00  0.00    -0.264 OA
ATOM     10  H6  UNL     1      14.685  -8.691   3.259  1.00  0.00     0.170 HD
BRANCH   8  11
HETATM   11  C10 UNL     1      16.429  -7.050   3.867  1.00  0.00     0.197 A
HETATM   12  N7  UNL     1      15.804  -6.616   4.937  1.00  0.00    -0.238 N
HETATM   13  O3  UNL     1      15.814  -5.322   4.967  1.00  0.00    -0.219 OA
ATOM     14  H7  UNL     1      15.371  -7.212   5.642  1.00  0.00     0.196 HD
HETATM   15  C11 UNL     1      16.452  -4.894   3.910  1.00  0.00     0.190 A
HETATM   16  N13 UNL     1      16.849  -5.961   3.200  1.00  0.00    -0.316 N
ATOM     17  H13 UNL     1      17.369  -5.948   2.324  1.00  0.00     0.169 HD
BRANCH  15  18
HETATM   18  C12 UNL     1      16.685  -3.484   3.570  1.00  0.00     0.288 C
HETATM   19  N8  UNL     1      16.306  -3.151   2.211  1.00  0.00    -0.292 N
HETATM   20  N9  UNL     1      16.870  -2.184   1.580  1.00  0.00    -0.232 N
ATOM     21  H8  UNL     1      15.578  -3.693   1.746  1.00  0.00     0.184 HD
HETATM   22  N10 UNL     1      17.863  -1.439   2.202  1.00  0.00    -0.215 N
ATOM     23  H9  UNL     1      16.590  -1.965   0.624  1.00  0.00     0.209 HD
HETATM   24  N11 UNL     1      18.299  -1.770   3.473  1.00  0.00    -0.012 NA
ATOM     25  H10 UNL     1      18.274  -0.640   1.719  1.00  0.00     0.206 HD
HETATM   26  N12 UNL     1      18.084  -3.112   3.738  1.00  0.00    -0.089 NA
ENDBRANCH  15  18
ENDBRANCH   8  11
ENDBRANCH   6   7
BRANCH   1  27
HETATM   27  C4  UNL     1      15.880 -10.814   0.300  1.00  0.00     0.096 C
BRANCH  27  28
HETATM   28  C3  UNL     1      17.336 -11.091   0.248  1.00  0.00     0.223 C
HETATM   29  C2  UNL     1      17.685 -12.355  -0.490  1.00  0.00     0.182 C
HETATM   30  C15 UNL     1      19.151 -12.180  -0.750  1.00  0.00     0.181 C
HETATM   31  C13 UNL     1      19.384 -10.703  -0.609  1.00  0.00     0.240 C
HETATM   32  N14 UNL     1      18.089 -10.075  -0.465  1.00  0.00    -0.059 N
ATOM     33 2H14 UNL     1      17.664  -9.756  -1.336  1.00  0.00     0.278 HD
ATOM     34 1H14 UNL     1      18.101  -9.157  -0.023  1.00  0.00     0.278 HD
BRANCH  29  35
HETATM   35  O1  UNL     1      16.923 -12.558  -1.617  1.00  0.00    -0.386 OA
HETATM   36  C1  UNL     1      16.472 -13.855  -1.767  1.00  0.00     0.202 C
ENDBRANCH  29  35
BRANCH  30  37
HETATM   37  O5  UNL     1      19.936 -12.828   0.203  1.00  0.00    -0.391 OA
ATOM     38  H5  UNL     1      20.847 -12.561   0.158  1.00  0.00     0.210 HD
ENDBRANCH  30  37
BRANCH  31  39
HETATM   39  C14 UNL     1      20.162 -10.130  -1.773  1.00  0.00     0.199 C
BRANCH  39  40
HETATM   40  O4  UNL     1      19.403 -10.393  -2.925  1.00  0.00    -0.399 OA
ATOM     41  H4  UNL     1      18.493 -10.392  -2.651  1.00  0.00     0.209 HD
ENDBRANCH  39  40
ENDBRANCH  31  39
ENDBRANCH  27  28
ENDBRANCH   1  27
BRANCH   4  42
HETATM   42  C7  UNL     1      13.901 -14.434   2.943  1.00  0.00     0.171 A
HETATM   43  N2  UNL     1      14.653 -15.483   3.288  1.00  0.00    -0.266 N
HETATM   44  N3  UNL     1      13.860 -16.543   3.349  1.00  0.00    -0.227 N
ATOM     45  H2  UNL     1      15.656 -15.471   3.471  1.00  0.00     0.190 HD
HETATM   46  N4  UNL     1      12.644 -16.141   3.044  1.00  0.00    -0.227 N
ATOM     47  H3  UNL     1      14.139 -17.494   3.588  1.00  0.00     0.210 HD
HETATM   48  N5  UNL     1      12.641 -14.825   2.786  1.00  0.00    -0.266 N
ATOM     49  H4  UNL     1      11.823 -16.744   3.009  1.00  0.00     0.210 HD
ATOM     50  H5  UNL     1      11.841 -14.248   2.525  1.00  0.00     0.190 HD
ENDBRANCH   4  42
TORSDOF 10
ENDMDL