MODEL 5
REMARK VINA RESULT: -7.350932242      1.575      1.699
REMARK  12 active torsions:
REMARK  status: ('A' for Active; 'I' for Inactive)
REMARK    1  A    between atoms: O1_2  and  C2_3
REMARK    2  A    between atoms: C2_3  and  N15_45
REMARK    3  A    between atoms: N1_4  and  C3_6
REMARK    4  A    between atoms: C4_9  and  N3_10
REMARK    5  A    between atoms: C6_12  and  C7_13
REMARK    6  A    between atoms: N4_15  and  C9_16
REMARK    7  A    between atoms: C9_16  and  C10_17
REMARK    8  A    between atoms: C10_17  and  O2_18
REMARK    9  A    between atoms: C11_28  and  O3_29
REMARK   10  A    between atoms: C13_31  and  N9_32
REMARK   11  A    between atoms: N9_32  and  C14_34
REMARK   12  A    between atoms: N13_41  and  N14_42
REMARK       I    between atoms: N15_45  and  C16_47
ROOT
HETATM    1  C3  UNL     1      17.749 -13.012   1.066  1.00  0.00     0.709 A
HETATM    2  N2  UNL     1      17.080 -12.266   1.941  1.00  0.00    -0.170 N
ATOM      3  H2  UNL     1      17.601 -11.588   2.497  1.00  0.00     0.186 HD
HETATM    4  C4  UNL     1      15.756 -12.358   2.129  1.00  0.00     0.180 A
HETATM    5  C11 UNL     1      15.065 -13.275   1.374  1.00  0.00     0.162 A
HETATM    6  C13 UNL     1      15.725 -14.089   0.435  1.00  0.00     0.184 A
HETATM    7  N13 UNL     1      17.040 -13.913   0.330  1.00  0.00    -0.073 N
ENDROOT
BRANCH   4   8
HETATM    8  N3  UNL     1      15.135 -11.515   3.085  1.00  0.00    -0.231 N
HETATM    9  C5  UNL     1      15.577 -10.290   3.504  1.00  0.00     0.153 A
HETATM   10  C6  UNL     1      14.680  -9.845   4.418  1.00  0.00     0.096 A
HETATM   11  N7  UNL     1      13.746 -10.807   4.511  1.00  0.00    -0.282 N
HETATM   12  N8  UNL     1      14.012 -11.821   3.711  1.00  0.00    -0.234 N
ATOM     13  H7  UNL     1      12.933 -10.759   5.125  1.00  0.00     0.188 HD
ATOM     14  H8  UNL     1      13.459 -12.672   3.597  1.00  0.00     0.209 HD
BRANCH  10  15
HETATM   15  C7  UNL     1      14.679  -8.594   5.166  1.00  0.00     0.096 A
HETATM   16  C8  UNL     1      15.505  -7.500   4.933  1.00  0.00     0.145 A
HETATM   17  N4  UNL     1      15.214  -6.538   5.826  1.00  0.00    -0.285 N
HETATM   18  N5  UNL     1      14.247  -6.994   6.592  1.00  0.00    -0.240 N
HETATM   19  N6  UNL     1      13.912  -8.233   6.208  1.00  0.00    -0.283 N
ATOM     20  H5  UNL     1      13.818  -6.482   7.363  1.00  0.00     0.208 HD
ATOM     21  H6  UNL     1      13.190  -8.811   6.639  1.00  0.00     0.188 HD
BRANCH  17  22
HETATM   22  C9  UNL     1      15.877  -5.253   5.885  1.00  0.00     0.175 C
BRANCH  22  23
HETATM   23  C10 UNL     1      15.775  -4.557   4.546  1.00  0.00     0.185 C
BRANCH  23  24
HETATM   24  O2  UNL     1      14.477  -4.219   4.205  1.00  0.00    -0.399 OA
ATOM     25  H2  UNL     1      14.429  -3.501   3.586  1.00  0.00     0.209 HD
ENDBRANCH  23  24
ENDBRANCH  22  23
ENDBRANCH  17  22
ENDBRANCH  10  15
ENDBRANCH   4   8
BRANCH   5  26
HETATM   26  O3  UNL     1      13.691 -13.439   1.503  1.00  0.00    -0.349 OA
HETATM   27  C12 UNL     1      13.176 -14.438   2.360  1.00  0.00     0.210 C
ENDBRANCH   5  26
BRANCH   1  28
HETATM   28  N1  UNL     1      19.151 -12.866   0.911  1.00  0.00    -0.153 N
HETATM   29  C2  UNL     1      19.736 -11.827   0.484  1.00  0.00     0.239 C
ATOM     30  H1  UNL     1      19.736 -13.663   1.164  1.00  0.00     0.188 HD
BRANCH  29  31
HETATM   31  O1  UNL     1      21.108 -11.791   0.372  1.00  0.00    -0.327 OA
HETATM   32  C1  UNL     1      21.830 -12.596  -0.541  1.00  0.00     0.213 C
ENDBRANCH  29  31
BRANCH  29  33
HETATM   33  N15 UNL     1      18.988 -10.687   0.116  1.00  0.00    -0.296 N
HETATM   34  C16 UNL     1      18.093 -10.754  -0.987  1.00  0.00     0.189 C
HETATM   35  N16 UNL     1      17.006 -10.064  -1.013  1.00  0.00    -0.373 N
HETATM   36  N17 UNL     1      18.362 -11.584  -2.100  1.00  0.00    -0.064 NA
ATOM     37 2H16 UNL     1      16.812  -9.466  -0.210  1.00  0.00     0.158 HD
ATOM     38 1H16 UNL     1      16.364 -10.113  -1.804  1.00  0.00     0.158 HD
ATOM     39  H15 UNL     1      19.090  -9.818   0.640  1.00  0.00     0.172 HD
ENDBRANCH  29  33
ENDBRANCH   1  28
BRANCH   6  40
HETATM   40  N9  UNL     1      15.044 -14.905  -0.220  1.00  0.00    -0.320 N
ATOM     41  H9  UNL     1      14.553 -14.479  -1.006  1.00  0.00     0.169 HD
BRANCH  40  42
HETATM   42  C14 UNL     1      14.815 -16.266  -0.106  1.00  0.00     0.165 A
HETATM   43  N10 UNL     1      13.751 -17.073  -0.251  1.00  0.00    -0.281 N
HETATM   44  N11 UNL     1      14.501 -18.102   0.059  1.00  0.00    -0.283 N
ATOM     45  H10 UNL     1      12.770 -16.940  -0.498  1.00  0.00     0.188 HD
HETATM   46  C15 UNL     1      15.603 -17.372   0.222  1.00  0.00     0.176 A
ATOM     47  H11 UNL     1      14.310 -19.100   0.145  1.00  0.00     0.188 HD
HETATM   48  N12 UNL     1      16.951 -17.622   0.571  1.00  0.00    -0.077 NA
ENDBRANCH  40  42
ENDBRANCH   6  40
BRANCH   7  49
HETATM   49  N14 UNL     1      17.768 -14.682  -0.579  1.00  0.00    -0.322 N
ATOM     50 2H14 UNL     1      18.734 -14.931  -0.368  1.00  0.00     0.178 HD
ATOM     51 1H14 UNL     1      17.279 -14.960  -1.431  1.00  0.00     0.178 HD
ENDBRANCH   7  49
TORSDOF 12
ENDMDL