MODEL 3
REMARK VINA RESULT: -8.443636542      2.970      4.292
REMARK  15 active torsions:
REMARK  status: ('A' for Active; 'I' for Inactive)
REMARK    1  A    between atoms: N1_1  and  C1_4
REMARK    2  A    between atoms: C1_4  and  O1_6
REMARK    3  A    between atoms: O1_6  and  N3_7
REMARK    4  A    between atoms: N3_7  and  C2_9
REMARK    5  A    between atoms: C5_17  and  O2_18
REMARK    6  A    between atoms: C6_20  and  N7_21
REMARK    7  A    between atoms: C8_25  and  C9_26
REMARK    8  A    between atoms: N8_28  and  C11_29
REMARK    9  A    between atoms: C11_29  and  C12_30
REMARK   10  A    between atoms: C12_30  and  O5_31
REMARK   11  A    between atoms: C12_30  and  C13_33
REMARK   12  A    between atoms: C13_33  and  N9_34
REMARK   13  A    between atoms: C15_36  and  C16_37
REMARK   14  A    between atoms: C16_37  and  N10_38
REMARK   15  A    between atoms: C16_37  and  O6_42
ROOT
HETATM    1  C2  UNL     1      13.826 -11.079   4.381  1.00  0.00     0.141 A
HETATM    2  N4  UNL     1      12.925 -11.371   5.342  1.00  0.00    -0.314 N
ATOM      3  H4  UNL     1      12.447 -12.271   5.283  1.00  0.00     0.170 HD
HETATM    4  C3  UNL     1      12.616 -10.578   6.354  1.00  0.00     0.194 A
HETATM    5  N5  UNL     1      11.643 -10.947   7.352  1.00  0.00    -0.063 NA
HETATM    6  N6  UNL     1      13.252  -9.403   6.416  1.00  0.00    -0.327 N
ATOM      7  H6  UNL     1      13.035  -8.770   7.185  1.00  0.00     0.168 HD
HETATM    8  C4  UNL     1      14.162  -9.022   5.508  1.00  0.00     0.085 A
HETATM    9  C5  UNL     1      14.812  -7.819   5.629  1.00  0.00     0.126 A
HETATM   10  C6  UNL     1      15.767  -7.469   4.692  1.00  0.00     0.139 A
HETATM   11  C7  UNL     1      16.064  -8.287   3.667  1.00  0.00     0.054 A
HETATM   12  C8  UNL     1      15.418  -9.554   3.488  1.00  0.00     0.012 A
HETATM   13  C17 UNL     1      14.491  -9.878   4.417  1.00  0.00     0.052 A
ENDROOT
BRANCH  12  14
HETATM   14  C9  UNL     1      15.847 -10.312   2.346  1.00  0.00     0.074 A
HETATM   15  C10 UNL     1      17.120 -10.988   2.326  1.00  0.00     0.139 A
HETATM   16  N8  UNL     1      17.289 -11.627   1.188  1.00  0.00    -0.282 N
HETATM   17  N13 UNL     1      16.190 -11.398   0.472  1.00  0.00    -0.020 NA
HETATM   18  N14 UNL     1      15.378 -10.629   1.183  1.00  0.00    -0.282 N
ATOM     19  H14 UNL     1      14.468 -10.316   0.844  1.00  0.00     0.184 HD
BRANCH  16  20
HETATM   20  C11 UNL     1      18.367 -12.435   0.674  1.00  0.00     0.179 C
BRANCH  20  21
HETATM   21  C12 UNL     1      18.151 -13.896   0.884  1.00  0.00     0.157 C
BRANCH  21  22
HETATM   22  O5  UNL     1      16.779 -14.127   0.595  1.00  0.00    -0.392 OA
ATOM     23  H5  UNL     1      16.458 -13.319   0.212  1.00  0.00     0.210 HD
ENDBRANCH  21  22
BRANCH  21  24
HETATM   24  C13 UNL     1      18.273 -14.345   2.335  1.00  0.00     0.183 C
BRANCH  24  25
HETATM   25  N9  UNL     1      17.105 -15.019   2.815  1.00  0.00    -0.285 N
HETATM   26  C14 UNL     1      16.979 -16.365   2.940  1.00  0.00     0.142 A
HETATM   27  C15 UNL     1      15.728 -16.634   3.437  1.00  0.00     0.099 A
HETATM   28  N11 UNL     1      15.119 -15.466   3.605  1.00  0.00    -0.285 N
HETATM   29  N12 UNL     1      15.982 -14.533   3.221  1.00  0.00    -0.241 N
ATOM     30  H11 UNL     1      14.175 -15.316   3.959  1.00  0.00     0.188 HD
ATOM     31  H12 UNL     1      15.777 -13.534   3.244  1.00  0.00     0.208 HD
BRANCH  27  32
HETATM   32  C16 UNL     1      15.116 -17.955   3.747  1.00  0.00     0.370 C
BRANCH  32  33
HETATM   33  N10 UNL     1      15.798 -18.561   4.885  1.00  0.00    -0.047 N
ATOM     34 3H10 UNL     1      15.428 -18.228   5.776  1.00  0.00     0.277 HD
ATOM     35 2H10 UNL     1      15.567 -19.549   4.989  1.00  0.00     0.277 HD
ATOM     36 1H10 UNL     1      16.804 -18.409   4.808  1.00  0.00     0.277 HD
ENDBRANCH  32  33
BRANCH  32  37
HETATM   37  O6  UNL     1      13.782 -17.797   4.115  1.00  0.00    -0.365 OA
ATOM     38  H6  UNL     1      13.686 -17.887   5.056  1.00  0.00     0.212 HD
ENDBRANCH  32  37
ENDBRANCH  27  32
ENDBRANCH  24  25
ENDBRANCH  21  24
ENDBRANCH  20  21
ENDBRANCH  16  20
ENDBRANCH  12  14
BRANCH  10  39
HETATM   39  N7  UNL     1      16.459  -6.197   4.819  1.00  0.00    -0.113 N
HETATM   40  O3  UNL     1      16.294  -5.390   3.881  1.00  0.00    -0.532 OA
HETATM   41  O4  UNL     1      17.228  -5.957   5.919  1.00  0.00    -0.532 OA
ENDBRANCH  10  39
BRANCH   1  42
HETATM   42  N3  UNL     1      14.083 -11.945   3.484  1.00  0.00    -0.241 N
ATOM     43  H3  UNL     1      14.931 -11.883   2.921  1.00  0.00     0.196 HD
BRANCH  42  44
HETATM   44  O1  UNL     1      13.180 -12.969   3.296  1.00  0.00    -0.203 OA
BRANCH  44  45
HETATM   45  C1  UNL     1      12.929 -13.575   2.087  1.00  0.00     0.249 C
HETATM   46  N2  UNL     1      13.937 -13.801   1.104  1.00  0.00    -0.055 NA
BRANCH  45  47
HETATM   47  N1  UNL     1      11.729 -13.954   1.832  1.00  0.00    -0.366 N
ATOM     48  H12 UNL     1      11.087 -14.085   2.614  1.00  0.00     0.159 HD
ATOM     49  H11 UNL     1      11.462 -14.108   0.860  1.00  0.00     0.159 HD
ENDBRANCH  45  47
ENDBRANCH  44  45
ENDBRANCH  42  44
ENDBRANCH   1  42
BRANCH   9  50
HETATM   50  O2  UNL     1      14.560  -6.937   6.644  1.00  0.00    -0.356 OA
ATOM     51  H2  UNL     1      15.247  -6.464   7.100  1.00  0.00     0.218 HD
ENDBRANCH   9  50
TORSDOF 15
ENDMDL