MODEL 4
REMARK VINA RESULT: -7.978431297      1.004      1.073
REMARK  15 active torsions:
REMARK  status: ('A' for Active; 'I' for Inactive)
REMARK       I    between atoms: C2_2  and  N1_4
REMARK    1  A    between atoms: N1_4  and  C3_6
REMARK    2  A    between atoms: C4_7  and  C5_8
REMARK    3  A    between atoms: C5_8  and  O2_9
REMARK    4  A    between atoms: C5_8  and  O3_11
REMARK    5  A    between atoms: C6_14  and  C7_15
REMARK    6  A    between atoms: C7_15  and  O5_16
REMARK    7  A    between atoms: C7_15  and  O6_18
REMARK    8  A    between atoms: C9_21  and  N2_22
REMARK    9  A    between atoms: N2_22  and  N3_24
REMARK   10  A    between atoms: N3_24  and  C10_26
REMARK   11  A    between atoms: C11_27  and  O7_28
REMARK   12  A    between atoms: N5_34  and  C14_35
REMARK   13  A    between atoms: C14_35  and  C15_36
REMARK   14  A    between atoms: N7_40  and  O9_42
REMARK   15  A    between atoms: C18_44  and  N8_45
ROOT
HETATM    1  C15 UNL     1      16.973  -5.236   6.313  1.00  0.00     0.144 C
HETATM    2  C16 UNL     1      17.195  -5.398   7.739  1.00  0.00     0.060 C
HETATM    3  N6  UNL     1      17.402  -5.520   8.892  1.00  0.00    -0.197 NA
ENDROOT
BRANCH   1   4
HETATM    4  C14 UNL     1      15.606  -5.584   5.859  1.00  0.00     0.149 C
BRANCH   4   5
HETATM    5  N5  UNL     1      15.399  -6.922   5.409  1.00  0.00    -0.281 N
HETATM    6  C13 UNL     1      14.541  -7.754   5.964  1.00  0.00     0.332 A
HETATM    7  N4  UNL     1      14.370  -8.989   5.480  1.00  0.00    -0.282 N
HETATM    8  O8  UNL     1      13.837  -7.412   6.992  1.00  0.00    -0.246 OA
HETATM    9  C11 UNL     1      15.054  -9.433   4.422  1.00  0.00     0.178 A
HETATM   10  C12 UNL     1      13.415  -9.869   6.123  1.00  0.00     0.163 C
HETATM   11  C10 UNL     1      15.983  -8.583   3.794  1.00  0.00     0.145 A
HETATM   12  C17 UNL     1      16.138  -7.336   4.306  1.00  0.00     0.164 A
HETATM   13  N7  UNL     1      16.948  -6.497   3.844  1.00  0.00    -0.251 N
ATOM     14  H7  UNL     1      16.930  -5.612   4.351  1.00  0.00     0.196 HD
BRANCH   9  15
HETATM   15  O7  UNL     1      14.861 -10.728   3.926  1.00  0.00    -0.344 OA
ATOM     16  H7  UNL     1      15.455 -11.068   3.267  1.00  0.00     0.219 HD
ENDBRANCH   9  15
BRANCH  11  17
HETATM   17  N3  UNL     1      16.691  -9.107   2.659  1.00  0.00    -0.293 N
ATOM     18  H3  UNL     1      16.714  -8.544   1.809  1.00  0.00     0.187 HD
BRANCH  17  19
HETATM   19  N2  UNL     1      17.338 -10.312   2.646  1.00  0.00    -0.298 N
ATOM     20  H2  UNL     1      17.614 -10.670   3.560  1.00  0.00     0.187 HD
BRANCH  19  21
HETATM   21  C9  UNL     1      17.639 -11.036   1.672  1.00  0.00     0.079 C
HETATM   22  C8  UNL     1      18.347 -10.378   0.637  1.00  0.00     0.071 C
HETATM   23  C6  UNL     1      18.564 -10.780  -0.657  1.00  0.00     0.110 C
HETATM   24  O4  UNL     1      18.225 -11.918  -1.207  1.00  0.00    -0.307 OA
HETATM   25  C4  UNL     1      17.624 -12.999  -0.700  1.00  0.00     0.137 C
HETATM   26  C3  UNL     1      17.480 -13.280   0.635  1.00  0.00     0.098 C
HETATM   27  C18 UNL     1      17.269 -12.356   1.682  1.00  0.00     0.084 C
BRANCH  23  28
HETATM   28  C7  UNL     1      19.278  -9.793  -1.553  1.00  0.00     0.312 C
BRANCH  28  29
HETATM   29  O5  UNL     1      20.568 -10.175  -1.819  1.00  0.00    -0.365 OA
ATOM     30  H5  UNL     1      20.989  -9.600  -2.448  1.00  0.00     0.213 HD
ENDBRANCH  28  29
BRANCH  28  31
HETATM   31  O6  UNL     1      18.551  -9.658  -2.752  1.00  0.00    -0.365 OA
ATOM     32  H6  UNL     1      18.405  -8.734  -2.920  1.00  0.00     0.213 HD
ENDBRANCH  28  31
ENDBRANCH  23  28
BRANCH  25  33
HETATM   33  C5  UNL     1      17.072 -13.968  -1.655  1.00  0.00     0.315 C
BRANCH  33  34
HETATM   34  O2  UNL     1      18.142 -14.722  -2.214  1.00  0.00    -0.365 OA
ATOM     35  H2  UNL     1      18.843 -14.776  -1.575  1.00  0.00     0.213 HD
ENDBRANCH  33  34
BRANCH  33  36
HETATM   36  O3  UNL     1      16.443 -13.400  -2.757  1.00  0.00    -0.365 OA
ATOM     37  H3  UNL     1      16.217 -14.015  -3.444  1.00  0.00     0.213 HD
ENDBRANCH  33  36
ENDBRANCH  25  33
BRANCH  26  38
HETATM   38  N1  UNL     1      17.557 -14.641   0.998  1.00  0.00    -0.323 N
HETATM   39  C2  UNL     1      18.835 -15.191   1.296  1.00  0.00     0.218 C
HETATM   40  C1  UNL     1      19.015 -16.630   1.691  1.00  0.00     0.117 C
HETATM   41  O1  UNL     1      19.860 -14.468   1.233  1.00  0.00    -0.274 OA
ATOM     42  H1  UNL     1      16.717 -15.217   1.046  1.00  0.00     0.169 HD
ENDBRANCH  26  38
BRANCH  27  43
HETATM   43  N8  UNL     1      16.682 -12.808   2.715  1.00  0.00    -0.395 N
ATOM     44  H82 UNL     1      15.702 -13.079   2.633  1.00  0.00     0.156 HD
ATOM     45  H81 UNL     1      17.247 -12.865   3.562  1.00  0.00     0.156 HD
ENDBRANCH  27  43
ENDBRANCH  19  21
ENDBRANCH  17  19
ENDBRANCH  11  17
BRANCH  13  46
HETATM   46  O9  UNL     1      17.802  -6.496   2.869  1.00  0.00    -0.288 OA
ATOM     47  H9  UNL     1      18.659  -6.111   2.733  1.00  0.00     0.244 HD
ENDBRANCH  13  46
ENDBRANCH   4   5
ENDBRANCH   1   4
TORSDOF 15
ENDMDL