MODEL 4
REMARK VINA RESULT: -7.403508911      3.533      7.866
REMARK  14 active torsions:
REMARK  status: ('A' for Active; 'I' for Inactive)
REMARK    1  A    between atoms: C3_7  and  C4_8
REMARK    2  A    between atoms: C4_8  and  C5_9
REMARK    3  A    between atoms: C5_9  and  C6_10
REMARK    4  A    between atoms: C6_10  and  S1_11
REMARK    5  A    between atoms: S1_11  and  C7_12
REMARK    6  A    between atoms: C7_12  and  C8_13
REMARK    7  A    between atoms: C8_13  and  C9_14
REMARK    8  A    between atoms: C10_19  and  N5_20
REMARK    9  A    between atoms: N6_23  and  O1_24
REMARK   10  A    between atoms: C11_26  and  C12_27
REMARK   11  A    between atoms: C12_27  and  O2_28
REMARK   12  A    between atoms: C14_35  and  N9_36
REMARK   13  A    between atoms: C15_41  and  N11_42
REMARK   14  A    between atoms: C16_46  and  N13_47
ROOT
HETATM    1  C4  UNL     1      13.674 -14.384   2.232  1.00  0.00     0.187 C
HETATM    2  N7  UNL     1      13.567 -13.865   3.611  1.00  0.00    -0.190 N
ATOM      3  H7  UNL     1      13.412 -14.503   4.391  1.00  0.00     0.180 HD
HETATM    4  C13 UNL     1      13.682 -12.487   3.833  1.00  0.00     0.715 A
HETATM    5  N8  UNL     1      12.966 -11.816   4.752  1.00  0.00    -0.021 N
ATOM      6  H8  UNL     1      12.287 -12.325   5.320  1.00  0.00     0.203 HD
HETATM    7  C14 UNL     1      13.116 -10.500   4.944  1.00  0.00     0.705 A
HETATM    8  N10 UNL     1      14.015  -9.858   4.185  1.00  0.00    -0.022 N
ATOM      9  H10 UNL     1      14.141  -8.855   4.319  1.00  0.00     0.203 HD
HETATM   10  C15 UNL     1      14.767 -10.492   3.238  1.00  0.00     0.710 A
HETATM   11  N12 UNL     1      14.574 -11.813   3.086  1.00  0.00     0.034 N
HETATM   12  C16 UNL     1      15.305 -12.595   2.106  1.00  0.00     0.425 C
HETATM   13  N14 UNL     1      14.361 -13.476   1.426  1.00  0.00    -0.346 N
ATOM     14  H14 UNL     1      14.212 -13.430   0.418  1.00  0.00     0.160 HD
ENDROOT
BRANCH   1  15
HETATM   15  C3  UNL     1      12.221 -14.622   1.871  1.00  0.00     0.190 A
HETATM   16  N2  UNL     1      11.714 -15.873   2.053  1.00  0.00    -0.278 N
HETATM   17  N1  UNL     1      10.446 -15.856   1.671  1.00  0.00    -0.282 N
ATOM     18  H2  UNL     1      12.221 -16.680   2.417  1.00  0.00     0.189 HD
HETATM   19  C2  UNL     1      10.218 -14.587   1.267  1.00  0.00     0.136 A
ATOM     20  H1  UNL     1       9.784 -16.632   1.680  1.00  0.00     0.189 HD
HETATM   21  C1  UNL     1       8.900 -14.112   0.748  1.00  0.00     0.099 C
HETATM   22  O3  UNL     1      11.311 -13.860   1.401  1.00  0.00    -0.278 OA
ENDBRANCH   1  15
BRANCH   1  23
HETATM   23  C5  UNL     1      14.226 -15.819   2.289  1.00  0.00     0.073 C
BRANCH  23  24
HETATM   24  C6  UNL     1      14.936 -16.073   0.968  1.00  0.00     0.078 C
BRANCH  24  25
HETATM   25  S1  UNL     1      16.290 -17.208   1.071  1.00  0.00    -0.169 SA
BRANCH  25  26
HETATM   26  C7  UNL     1      17.914 -16.349   1.025  1.00  0.00     0.080 C
BRANCH  26  27
HETATM   27  C8  UNL     1      18.105 -15.562  -0.235  1.00  0.00     0.071 C
BRANCH  27  28
HETATM   28  C9  UNL     1      18.200 -14.103  -0.059  1.00  0.00     0.055 A
HETATM   29  N3  UNL     1      19.126 -13.511   0.713  1.00  0.00    -0.288 N
HETATM   30  N4  UNL     1      19.173 -12.168   0.813  1.00  0.00    -0.130 N
ATOM     31  H3  UNL     1      19.799 -14.081   1.226  1.00  0.00     0.187 HD
HETATM   32  C10 UNL     1      18.327 -11.354   0.167  1.00  0.00     0.717 A
ATOM     33  H4  UNL     1      19.887 -11.750   1.410  1.00  0.00     0.205 HD
HETATM   34  N6  UNL     1      17.387 -11.914  -0.615  1.00  0.00    -0.052 N
HETATM   35  C11 UNL     1      17.330 -13.266  -0.721  1.00  0.00     0.106 A
BRANCH  32  36
HETATM   36  N5  UNL     1      18.363 -10.079   0.257  1.00  0.00    -0.231 N
ATOM     37  H52 UNL     1      19.212  -9.595  -0.035  1.00  0.00     0.174 HD
ATOM     38  H51 UNL     1      17.586  -9.515   0.603  1.00  0.00     0.174 HD
ENDBRANCH  32  36
BRANCH  34  39
HETATM   39  O1  UNL     1      16.514 -11.107  -1.291  1.00  0.00    -0.269 OA
ATOM     40  H1  UNL     1      16.125 -11.420  -2.099  1.00  0.00     0.245 HD
ENDBRANCH  34  39
BRANCH  35  41
HETATM   41  C12 UNL     1      16.248 -13.861  -1.560  1.00  0.00     0.226 C
BRANCH  41  42
HETATM   42  O2  UNL     1      16.444 -13.621  -2.908  1.00  0.00    -0.395 OA
ATOM     43  H2  UNL     1      15.673 -13.829  -3.423  1.00  0.00     0.209 HD
ENDBRANCH  41  42
ENDBRANCH  35  41
ENDBRANCH  27  28
ENDBRANCH  26  27
ENDBRANCH  25  26
ENDBRANCH  24  25
ENDBRANCH  23  24
ENDBRANCH   1  23
BRANCH  12  44
HETATM   44  N13 UNL     1      16.339 -13.313   2.802  1.00  0.00    -0.039 N
ATOM     45 3H13 UNL     1      17.037 -12.697   3.218  1.00  0.00     0.279 HD
ATOM     46 2H13 UNL     1      16.009 -13.746   3.664  1.00  0.00     0.279 HD
ATOM     47 1H13 UNL     1      16.742 -13.985   2.150  1.00  0.00     0.279 HD
ENDBRANCH  12  44
BRANCH   7  48
HETATM   48  N9  UNL     1      12.406  -9.866   5.846  1.00  0.00    -0.234 N
ATOM     49  H92 UNL     1      11.408 -10.047   5.961  1.00  0.00     0.174 HD
ATOM     50  H91 UNL     1      12.836  -9.172   6.459  1.00  0.00     0.174 HD
ENDBRANCH   7  48
BRANCH  10  51
HETATM   51  N11 UNL     1      15.641  -9.845   2.522  1.00  0.00    -0.233 N
ATOM     52 2H11 UNL     1      16.059  -8.974   2.850  1.00  0.00     0.174 HD
ATOM     53 1H11 UNL     1      15.931 -10.183   1.604  1.00  0.00     0.174 HD
ENDBRANCH  10  51
TORSDOF 14
ENDMDL