MODEL 4
REMARK VINA RESULT: -8.145930546      1.331      1.732
REMARK  9 active torsions:
REMARK  status: ('A' for Active; 'I' for Inactive)
REMARK    1  A    between atoms: N1_1  and  N2_4
REMARK    2  A    between atoms: N2_4  and  C1_6
REMARK    3  A    between atoms: C1_6  and  C2_7
REMARK    4  A    between atoms: C3_8  and  N3_9
REMARK    5  A    between atoms: N3_9  and  C4_12
REMARK    6  A    between atoms: C6_19  and  N7_20
REMARK    7  A    between atoms: N7_20  and  C7_22
REMARK    8  A    between atoms: C10_26  and  N9_27
REMARK    9  A    between atoms: C12_31  and  N10_32
ROOT
HETATM    1  C4  UNL     1      15.098 -12.291   1.793  1.00  0.00     0.330 C
HETATM    2  N4  UNL     1      14.483 -13.576   1.575  1.00  0.00    -0.334 N
ATOM      3  H4  UNL     1      14.932 -14.374   1.125  1.00  0.00     0.164 HD
HETATM    4  C5  UNL     1      13.296 -13.565   2.028  1.00  0.00     0.187 C
HETATM    5  N5  UNL     1      12.330 -14.646   2.014  1.00  0.00    -0.064 NA
HETATM    6  N6  UNL     1      12.979 -12.302   2.615  1.00  0.00    -0.340 N
ATOM      7  H6  UNL     1      12.059 -11.993   2.927  1.00  0.00     0.164 HD
HETATM    8  C6  UNL     1      14.185 -11.559   2.683  1.00  0.00     0.234 C
ENDROOT
BRANCH   1   9
HETATM    9  N3  UNL     1      16.490 -12.418   2.171  1.00  0.00    -0.036 N
ATOM     10  H32 UNL     1      16.777 -13.383   2.328  1.00  0.00     0.281 HD
ATOM     11  H31 UNL     1      16.685 -12.071   3.111  1.00  0.00     0.281 HD
BRANCH   9  12
HETATM   12  C3  UNL     1      17.266 -11.752   1.146  1.00  0.00     0.288 C
HETATM   13  C2  UNL     1      17.743 -12.516   0.002  1.00  0.00     0.033 C
HETATM   14  C14 UNL     1      19.214 -12.638   0.229  1.00  0.00     0.186 C
HETATM   15  N12 UNL     1      19.507 -11.680   1.227  1.00  0.00    -0.341 N
HETATM   16  N13 UNL     1      19.974 -12.422  -0.977  1.00  0.00    -0.342 N
HETATM   17  S1  UNL     1      19.808 -14.303   0.643  1.00  0.00    -0.104 SA
HETATM   18  C13 UNL     1      18.483 -11.163   1.764  1.00  0.00     0.127 C
ATOM     19  H12 UNL     1      20.459 -11.427   1.491  1.00  0.00     0.164 HD
HETATM   20  N11 UNL     1      18.497 -10.139   2.806  1.00  0.00    -0.085 NA
HETATM   21  C15 UNL     1      21.022 -13.047  -1.162  1.00  0.00     0.101 C
ATOM     22  H13 UNL     1      19.646 -11.756  -1.676  1.00  0.00     0.164 HD
HETATM   23  N14 UNL     1      21.841 -12.882  -2.353  1.00  0.00    -0.087 NA
HETATM   24  C16 UNL     1      21.471 -14.002  -0.120  1.00  0.00     0.151 C
BRANCH  13  25
HETATM   25  C1  UNL     1      17.037 -13.678  -0.529  1.00  0.00     0.117 C
BRANCH  25  26
HETATM   26  N2  UNL     1      16.810 -13.866  -1.880  1.00  0.00    -0.318 N
ATOM     27  H2  UNL     1      16.337 -13.184  -2.474  1.00  0.00     0.185 HD
BRANCH  26  28
HETATM   28  N1  UNL     1      17.289 -15.063  -2.336  1.00  0.00    -0.345 N
ATOM     29  H12 UNL     1      18.279 -15.231  -2.511  1.00  0.00     0.176 HD
ATOM     30  H11 UNL     1      16.553 -15.754  -2.477  1.00  0.00     0.176 HD
ENDBRANCH  26  28
ENDBRANCH  25  26
ENDBRANCH  13  25
ENDBRANCH   9  12
ENDBRANCH   1   9
BRANCH   8  31
HETATM   31  N7  UNL     1      14.605 -11.150   3.958  1.00  0.00    -0.363 N
ATOM     32  H7  UNL     1      14.735 -11.908   4.629  1.00  0.00     0.162 HD
BRANCH  31  33
HETATM   33  C7  UNL     1      14.876  -9.856   4.462  1.00  0.00     0.065 A
HETATM   34  C8  UNL     1      15.817  -9.000   3.931  1.00  0.00     0.060 A
HETATM   35  C9  UNL     1      16.032  -7.689   4.382  1.00  0.00     0.081 A
HETATM   36  N8  UNL     1      17.017  -6.854   3.797  1.00  0.00    -0.100 NA
HETATM   37  C10 UNL     1      15.284  -7.201   5.400  1.00  0.00     0.129 A
HETATM   38  C11 UNL     1      14.342  -8.000   5.956  1.00  0.00     0.076 A
HETATM   39  C12 UNL     1      14.116  -9.314   5.516  1.00  0.00     0.131 A
BRANCH  37  40
HETATM   40  N9  UNL     1      15.441  -5.874   5.923  1.00  0.00    -0.114 N
HETATM   41  O1  UNL     1      16.070  -5.704   7.000  1.00  0.00    -0.532 OA
HETATM   42  O2  UNL     1      14.941  -4.765   5.309  1.00  0.00    -0.532 OA
ENDBRANCH  37  40
BRANCH  39  43
HETATM   43  N10 UNL     1      13.139 -10.012   6.226  1.00  0.00    -0.113 N
HETATM   44  O3  UNL     1      12.425  -9.332   7.053  1.00  0.00    -0.532 OA
HETATM   45  O4  UNL     1      12.827 -11.324   6.188  1.00  0.00    -0.532 OA
ENDBRANCH  39  43
ENDBRANCH  31  33
ENDBRANCH   8  31
TORSDOF 9
ENDMDL