MODEL 1
REMARK VINA RESULT: -7.998517313      0.000      0.000
REMARK  12 active torsions:
REMARK  status: ('A' for Active; 'I' for Inactive)
REMARK    1  A    between atoms: C3_4  and  C4_5
REMARK    2  A    between atoms: C4_5  and  O1_6
REMARK    3  A    between atoms: N2_8  and  O2_10
REMARK    4  A    between atoms: C5_14  and  O3_15
REMARK    5  A    between atoms: C6_17  and  C7_18
REMARK    6  A    between atoms: C8_19  and  N4_20
REMARK    7  A    between atoms: C9_25  and  C10_26
REMARK    8  A    between atoms: C10_26  and  O4_27
REMARK    9  A    between atoms: O4_27  and  C11_28
REMARK   10  A    between atoms: C11_28  and  C12_29
REMARK   11  A    between atoms: N10_36  and  C13_37
REMARK   12  A    between atoms: C14_43  and  N13_44
ROOT
HETATM    1  N1  UNL     1      21.921 -10.109   4.770  1.00  0.00    -0.191 NA
HETATM    2  C1  UNL     1      21.206 -10.835   4.182  1.00  0.00     0.106 C
HETATM    3  C2  UNL     1      20.309 -11.700   3.448  1.00  0.00     0.126 A
HETATM    4  C3  UNL     1      20.498 -13.058   3.526  1.00  0.00     0.112 A
HETATM    5  N3  UNL     1      19.621 -13.826   2.813  1.00  0.00    -0.331 N
ATOM      6  H3  UNL     1      19.714 -14.841   2.833  1.00  0.00     0.168 HD
HETATM    7  C5  UNL     1      18.643 -13.270   2.090  1.00  0.00     0.157 A
HETATM    8  C6  UNL     1      18.424 -11.915   1.986  1.00  0.00     0.099 A
HETATM    9  C15 UNL     1      19.289 -11.105   2.692  1.00  0.00     0.211 A
HETATM   10  O8  UNL     1      19.216  -9.870   2.691  1.00  0.00    -0.286 OA
ENDROOT
BRANCH   4  11
HETATM   11  C4  UNL     1      21.543 -13.702   4.296  1.00  0.00     0.189 C
HETATM   12  N2  UNL     1      21.438 -14.113   5.490  1.00  0.00    -0.246 N
ATOM     13  H2  UNL     1      20.547 -13.990   5.973  1.00  0.00     0.196 HD
BRANCH  11  14
HETATM   14  O1  UNL     1      22.784 -13.893   3.673  1.00  0.00    -0.343 OA
ATOM     15  H1  UNL     1      23.395 -13.166   3.678  1.00  0.00     0.219 HD
ENDBRANCH  11  14
BRANCH  12  16
HETATM   16  O2  UNL     1      22.468 -14.717   6.161  1.00  0.00    -0.288 OA
ATOM     17  H2  UNL     1      23.322 -14.314   6.264  1.00  0.00     0.244 HD
ENDBRANCH  12  16
ENDBRANCH   4  11
BRANCH   8  18
HETATM   18  C7  UNL     1      17.419 -11.366   1.053  1.00  0.00     0.125 A
HETATM   19  C8  UNL     1      16.111 -11.105   1.398  1.00  0.00     0.173 A
HETATM   20  N8  UNL     1      15.596 -10.419   0.317  1.00  0.00    -0.267 N
HETATM   21  N9  UNL     1      16.528 -10.291  -0.596  1.00  0.00    -0.232 N
ATOM     22  H8  UNL     1      14.642 -10.068   0.240  1.00  0.00     0.190 HD
HETATM   23  N10 UNL     1      17.677 -10.875  -0.159  1.00  0.00    -0.215 N
ATOM     24  H9  UNL     1      16.410  -9.826  -1.495  1.00  0.00     0.209 HD
BRANCH  19  25
HETATM   25  N4  UNL     1      15.336 -11.534   2.506  1.00  0.00    -0.207 N
HETATM   26  N5  UNL     1      14.917 -12.845   2.750  1.00  0.00     0.002 NA
HETATM   27  N6  UNL     1      13.813 -12.736   3.609  1.00  0.00    -0.007 NA
HETATM   28  N7  UNL     1      13.954 -11.483   4.197  1.00  0.00    -0.272 N
HETATM   29  C9  UNL     1      14.824 -10.754   3.593  1.00  0.00     0.140 C
ATOM     30  H7  UNL     1      13.427 -11.178   5.016  1.00  0.00     0.185 HD
BRANCH  29  31
HETATM   31  C10 UNL     1      15.274  -9.389   3.921  1.00  0.00     0.247 C
BRANCH  31  32
HETATM   32  O4  UNL     1      15.439  -9.147   5.261  1.00  0.00    -0.373 OA
BRANCH  32  33
HETATM   33  C11 UNL     1      14.619  -8.218   5.811  1.00  0.00     0.281 C
BRANCH  33  34
HETATM   34  C12 UNL     1      15.273  -6.885   5.968  1.00  0.00     0.197 C
HETATM   35  O5  UNL     1      16.178  -6.807   6.839  1.00  0.00    -0.646 OA
HETATM   36  O6  UNL     1      14.923  -5.786   5.215  1.00  0.00    -0.646 OA
ENDBRANCH  33  34
ENDBRANCH  32  33
ENDBRANCH  31  32
ENDBRANCH  29  31
ENDBRANCH  19  25
BRANCH  23  37
HETATM   37  C13 UNL     1      18.874 -10.875  -0.899  1.00  0.00     0.196 A
HETATM   38  N11 UNL     1      19.645  -9.809  -1.273  1.00  0.00    -0.220 N
HETATM   39  O7  UNL     1      20.682 -10.199  -1.918  1.00  0.00    -0.153 OA
ATOM     40  H11 UNL     1      19.425  -8.835  -1.065  1.00  0.00     0.198 HD
HETATM   41  N12 UNL     1      20.669 -11.493  -2.011  1.00  0.00    -0.222 N
HETATM   42  C14 UNL     1      19.554 -11.978  -1.388  1.00  0.00     0.169 A
ATOM     43  H12 UNL     1      21.380 -12.058  -2.476  1.00  0.00     0.198 HD
BRANCH  42  44
HETATM   44  N13 UNL     1      19.252 -13.210  -1.299  1.00  0.00    -0.381 N
ATOM     45 2H13 UNL     1      18.794 -13.639  -0.495  1.00  0.00     0.157 HD
ATOM     46 1H13 UNL     1      19.397 -13.959  -1.977  1.00  0.00     0.157 HD
ENDBRANCH  42  44
ENDBRANCH  23  37
ENDBRANCH   8  18
BRANCH   7  47
HETATM   47  O3  UNL     1      17.798 -14.166   1.415  1.00  0.00    -0.345 OA
ATOM     48  H3  UNL     1      17.109 -13.772   0.894  1.00  0.00     0.219 HD
ENDBRANCH   7  47
TORSDOF 12
ENDMDL