MODEL 2
REMARK VINA RESULT: -7.180192575      5.949      7.780
REMARK  14 active torsions:
REMARK  status: ('A' for Active; 'I' for Inactive)
REMARK    1  A    between atoms: O1_2  and  C2_3
REMARK    2  A    between atoms: C2_3  and  O2_4
REMARK    3  A    between atoms: C2_3  and  C3_6
REMARK    4  A    between atoms: C5_14  and  N3_15
REMARK    5  A    between atoms: N3_15  and  C6_17
REMARK    6  A    between atoms: C6_17  and  O3_18
REMARK    7  A    between atoms: C6_17  and  C7_20
REMARK    8  A    between atoms: C9_24  and  O4_25
REMARK    9  A    between atoms: C10_28  and  N5_29
REMARK   10  A    between atoms: C11_31  and  C13_33
REMARK   11  A    between atoms: C13_33  and  C14_35
REMARK   12  A    between atoms: C14_35  and  O7_36
REMARK   13  A    between atoms: C14_35  and  O8_38
REMARK   14  A    between atoms: C16_43  and  O9_44
ROOT
HETATM    1  C7  UNL     1      13.575 -12.995   3.194  1.00  0.00     0.112 A
HETATM    2  N4  UNL     1      13.185 -12.381   4.338  1.00  0.00    -0.347 N
ATOM      3  H4  UNL     1      12.535 -12.860   4.961  1.00  0.00     0.166 HD
HETATM    4  C8  UNL     1      13.627 -11.172   4.669  1.00  0.00     0.121 A
HETATM    5  C9  UNL     1      13.225 -10.561   5.829  1.00  0.00     0.216 A
HETATM    6  O5  UNL     1      13.690  -9.371   6.109  1.00  0.00    -0.253 OA
HETATM    7  C10 UNL     1      14.532  -8.721   5.328  1.00  0.00     0.231 A
HETATM    8  N6  UNL     1      14.975  -9.256   4.166  1.00  0.00    -0.317 N
ATOM      9  H6  UNL     1      15.625  -8.739   3.575  1.00  0.00     0.169 HD
HETATM   10  C15 UNL     1      14.551 -10.471   3.802  1.00  0.00     0.104 A
HETATM   11  C16 UNL     1      14.942 -11.098   2.644  1.00  0.00     0.147 A
HETATM   12  C17 UNL     1      14.456 -12.352   2.346  1.00  0.00     0.234 A
HETATM   13  O10 UNL     1      14.815 -12.923   1.288  1.00  0.00    -0.283 OA
ENDROOT
BRANCH   1  14
HETATM   14  C6  UNL     1      13.038 -14.328   2.905  1.00  0.00     0.274 C
BRANCH  14  15
HETATM   15  N3  UNL     1      12.508 -14.429   1.567  1.00  0.00    -0.344 N
ATOM     16  H3  UNL     1      13.098 -14.139   0.787  1.00  0.00     0.164 HD
BRANCH  15  17
HETATM   17  C5  UNL     1      11.176 -14.924   1.281  1.00  0.00     0.123 A
HETATM   18  C3  UNL     1      10.995 -16.185   0.773  1.00  0.00     0.084 A
HETATM   19  S1  UNL     1       9.297 -16.273   0.620  1.00  0.00    -0.050 SA
HETATM   20  C4  UNL     1       8.916 -14.721   1.204  1.00  0.00     0.144 A
HETATM   21  N1  UNL     1       7.736 -14.156   1.344  1.00  0.00    -0.380 N
HETATM   22  N2  UNL     1      10.107 -14.200   1.491  1.00  0.00    -0.322 N
ATOM     23  H12 UNL     1       6.824 -14.555   1.123  1.00  0.00     0.158 HD
ATOM     24  H11 UNL     1       7.508 -13.226   1.693  1.00  0.00     0.158 HD
ATOM     25  H2  UNL     1      10.184 -13.256   1.868  1.00  0.00     0.169 HD
BRANCH  18  26
HETATM   26  C2  UNL     1      12.041 -17.220   0.441  1.00  0.00     0.301 C
BRANCH  26  27
HETATM   27  O1  UNL     1      12.895 -16.663  -0.510  1.00  0.00    -0.361 OA
HETATM   28  C1  UNL     1      14.222 -16.964  -0.258  1.00  0.00     0.205 C
ENDBRANCH  26  27
BRANCH  26  29
HETATM   29  O2  UNL     1      12.698 -17.541   1.614  1.00  0.00    -0.366 OA
ATOM     30  H2  UNL     1      13.251 -16.834   1.925  1.00  0.00     0.213 HD
ENDBRANCH  26  29
ENDBRANCH  18  26
ENDBRANCH  15  17
ENDBRANCH  14  15
BRANCH  14  31
HETATM   31  O3  UNL     1      13.994 -15.339   3.119  1.00  0.00    -0.371 OA
ATOM     32  H3  UNL     1      14.683 -15.018   3.688  1.00  0.00     0.212 HD
ENDBRANCH  14  31
ENDBRANCH   1  14
BRANCH  11  33
HETATM   33  O9  UNL     1      15.826 -10.466   1.780  1.00  0.00    -0.355 OA
ATOM     34  H9  UNL     1      16.233 -10.958   1.077  1.00  0.00     0.218 HD
ENDBRANCH  11  33
BRANCH   5  35
HETATM   35  O4  UNL     1      12.330 -11.187   6.717  1.00  0.00    -0.339 OA
ATOM     36  H4  UNL     1      11.460 -11.450   6.441  1.00  0.00     0.220 HD
ENDBRANCH   5  35
BRANCH   7  37
HETATM   37  N5  UNL     1      14.946  -7.441   5.762  1.00  0.00    -0.322 N
HETATM   38  C11 UNL     1      15.848  -6.756   5.147  1.00  0.00     0.059 C
HETATM   39  C12 UNL     1      16.460  -7.364   3.933  1.00  0.00     0.072 C
ATOM     40  H5  UNL     1      14.515  -7.045   6.597  1.00  0.00     0.169 HD
BRANCH  38  41
HETATM   41  C13 UNL     1      16.276  -5.440   5.593  1.00  0.00     0.225 C
HETATM   42  O6  UNL     1      17.049  -5.324   6.563  1.00  0.00    -0.286 OA
BRANCH  41  43
HETATM   43  C14 UNL     1      15.791  -4.239   4.887  1.00  0.00     0.332 C
BRANCH  43  44
HETATM   44  O7  UNL     1      14.538  -4.425   4.331  1.00  0.00    -0.365 OA
ATOM     45  H7  UNL     1      14.436  -3.964   3.507  1.00  0.00     0.213 HD
ENDBRANCH  43  44
BRANCH  43  46
HETATM   46  O8  UNL     1      16.736  -3.913   3.917  1.00  0.00    -0.365 OA
ATOM     47  H8  UNL     1      16.406  -3.163   3.437  1.00  0.00     0.213 HD
ENDBRANCH  43  46
ENDBRANCH  41  43
ENDBRANCH  38  41
ENDBRANCH   7  37
TORSDOF 14
ENDMDL