MODEL 3
REMARK VINA RESULT: -8.420494194      1.294      1.561
REMARK  8 active torsions:
REMARK  status: ('A' for Active; 'I' for Inactive)
REMARK    1  A    between atoms: C4_4  and  O1_5
REMARK    2  A    between atoms: C9_11  and  O2_12
REMARK    3  A    between atoms: C15_22  and  C16_23
REMARK    4  A    between atoms: C16_23  and  C17_24
REMARK    5  A    between atoms: C17_24  and  C18_25
REMARK    6  A    between atoms: C18_25  and  C19_26
REMARK    7  A    between atoms: C19_26  and  C20_27
REMARK    8  A    between atoms: C20_27  and  N2_28
ROOT
HETATM    1  C1  UNL     1      42.457  51.000  57.659  1.00  0.00     0.010 C
HETATM    2  C2  UNL     1      41.575  51.032  58.888  1.00  0.00    -0.011 C
HETATM    3  C3  UNL     1      40.724  49.812  58.971  1.00  0.00     0.037 C
HETATM    4  C4  UNL     1      39.349  50.316  59.436  1.00  0.00     0.127 C
HETATM    5  C5  UNL     1      39.227  51.666  58.744  1.00  0.00    -0.010 C
HETATM    6  C6  UNL     1      38.900  51.334  57.284  1.00  0.00     0.018 C
HETATM    7  C7  UNL     1      40.631  52.193  58.893  1.00  0.00     0.003 C
HETATM    8  C8  UNL     1      41.045  53.174  57.849  1.00  0.00     0.037 C
HETATM    9  C9  UNL     1      39.978  54.240  57.754  1.00  0.00     0.119 C
HETATM   10  C10 UNL     1      39.641  54.648  59.154  1.00  0.00     0.038 C
HETATM   11  C11 UNL     1      38.650  53.864  59.879  1.00  0.00     0.016 C
HETATM   12  C12 UNL     1      37.410  54.716  60.075  1.00  0.00     0.097 C
HETATM   13  N1  UNL     1      36.699  54.865  58.822  1.00  0.00    -0.355 N
ATOM     14  H1  UNL     1      37.236  55.137  57.997  1.00  0.00     0.162 HD
HETATM   15  C13 UNL     1      35.306  54.659  58.669  1.00  0.00     0.218 C
HETATM   16  O3  UNL     1      34.800  54.595  57.478  1.00  0.00    -0.274 OA
HETATM   17  C14 UNL     1      34.430  54.517  59.821  1.00  0.00     0.108 C
HETATM   18  C15 UNL     1      35.207  54.911  61.112  1.00  0.00     0.004 C
HETATM   19  C24 UNL     1      36.487  54.152  61.137  1.00  0.00    -0.019 C
HETATM   20  C25 UNL     1      37.181  54.186  62.455  1.00  0.00     0.018 C
HETATM   21  C26 UNL     1      36.193  52.688  60.850  1.00  0.00     0.012 C
HETATM   22  C27 UNL     1      37.394  51.896  60.428  1.00  0.00     0.007 C
HETATM   23  C28 UNL     1      38.197  52.565  59.327  1.00  0.00     0.003 C
ENDROOT
BRANCH  18  24
HETATM   24  C16 UNL     1      35.273  56.393  61.078  1.00  0.00     0.006 C
BRANCH  24  25
HETATM   25  C17 UNL     1      34.178  57.181  60.475  1.00  0.00     0.000 C
BRANCH  25  26
HETATM   26  C18 UNL     1      33.346  57.970  61.508  1.00  0.00     0.002 C
BRANCH  26  27
HETATM   27  C19 UNL     1      32.914  57.063  62.606  1.00  0.00     0.030 C
BRANCH  27  28
HETATM   28  C20 UNL     1      32.756  57.741  63.920  1.00  0.00     0.272 C
BRANCH  28  29
HETATM   29  N2  UNL     1      32.236  56.915  64.940  1.00  0.00     0.088 N
HETATM   30  C21 UNL     1      31.308  57.359  65.894  1.00  0.00     0.274 A
HETATM   31  C22 UNL     1      30.396  56.186  65.557  1.00  0.00     0.060 A
HETATM   32  C23 UNL     1      31.400  55.854  64.497  1.00  0.00     0.274 A
ENDBRANCH  28  29
ENDBRANCH  27  28
ENDBRANCH  26  27
ENDBRANCH  25  26
ENDBRANCH  24  25
ENDBRANCH  18  24
BRANCH   9  33
HETATM   33  O2  UNL     1      40.612  55.347  57.132  1.00  0.00    -0.396 OA
ATOM     34  H2  UNL     1      40.894  55.906  57.846  1.00  0.00     0.210 HD
ENDBRANCH   9  33
BRANCH   4  35
HETATM   35  O1  UNL     1      38.453  49.369  58.883  1.00  0.00    -0.395 OA
ATOM     36  H1  UNL     1      39.028  48.770  58.422  1.00  0.00     0.210 HD
ENDBRANCH   4  35
TORSDOF 8
ENDMDL