MODEL 4
REMARK VINA RESULT: -7.901466843      2.190      6.384
REMARK  8 active torsions:
REMARK  status: ('A' for Active; 'I' for Inactive)
REMARK    1  A    between atoms: C7_7  and  N1_8
REMARK       I    between atoms: N1_8  and  C8_10
REMARK    2  A    between atoms: C8_10  and  C9_12
REMARK    3  A    between atoms: N2_18  and  C15_19
REMARK    4  A    between atoms: C15_19  and  O2_20
REMARK    5  A    between atoms: C15_19  and  C16_22
REMARK    6  A    between atoms: C16_22  and  N3_23
REMARK    7  A    between atoms: C16_22  and  C22_31
REMARK       I    between atoms: N3_23  and  C17_25
REMARK    8  A    between atoms: C17_25  and  C18_27
ROOT
HETATM    1  C9  UNL     1      37.130  55.236  59.959  1.00  0.00     0.179 C
HETATM    2  C10 UNL     1      36.421  56.045  61.058  1.00  0.00     0.049 C
HETATM    3  C11 UNL     1      34.950  55.980  60.715  1.00  0.00    -0.013 C
HETATM    4  C12 UNL     1      34.146  55.340  61.828  1.00  0.00     0.021 C
HETATM    5  C13 UNL     1      34.467  57.402  60.449  1.00  0.00     0.021 C
HETATM    6  C14 UNL     1      34.842  55.197  59.428  1.00  0.00     0.070 C
HETATM    7  N2  UNL     1      36.167  55.188  58.959  1.00  0.00    -0.352 N
ENDROOT
BRANCH   7   8
HETATM    8  C15 UNL     1      36.464  54.807  57.668  1.00  0.00     0.243 C
BRANCH   8   9
HETATM    9  O2  UNL     1      35.277  54.701  56.906  1.00  0.00    -0.374 OA
ATOM     10  H2  UNL     1      35.106  55.518  56.451  1.00  0.00     0.212 HD
ENDBRANCH   8   9
BRANCH   8  11
HETATM   11  C16 UNL     1      37.357  55.785  56.948  1.00  0.00     0.137 C
BRANCH  11  12
HETATM   12  N3  UNL     1      38.729  55.753  57.325  1.00  0.00    -0.351 N
HETATM   13  C17 UNL     1      39.520  54.575  57.332  1.00  0.00     0.225 C
HETATM   14  O3  UNL     1      39.042  53.458  56.998  1.00  0.00    -0.273 OA
ATOM     15  H3  UNL     1      39.169  56.628  57.606  1.00  0.00     0.163 HD
BRANCH  13  16
HETATM   16  C18 UNL     1      40.957  54.593  57.732  1.00  0.00     0.030 C
HETATM   17  C19 UNL     1      41.649  53.292  57.349  1.00  0.00     0.024 C
HETATM   18  C20 UNL     1      41.675  55.744  57.004  1.00  0.00     0.024 C
HETATM   19  C21 UNL     1      41.171  54.822  59.194  1.00  0.00     0.024 C
ENDBRANCH  13  16
ENDBRANCH  11  12
BRANCH  11  20
HETATM   20  C22 UNL     1      36.717  57.151  57.067  1.00  0.00     0.013 C
HETATM   21  C23 UNL     1      36.312  57.666  55.730  1.00  0.00     0.007 C
HETATM   22  C24 UNL     1      36.460  59.133  55.566  1.00  0.00     0.000 C
HETATM   23  C25 UNL     1      36.139  59.945  56.786  1.00  0.00     0.000 C
HETATM   24  C26 UNL     1      36.626  59.351  58.057  1.00  0.00     0.000 C
HETATM   25  C27 UNL     1      37.560  58.164  57.768  1.00  0.00     0.007 C
ENDBRANCH  11  20
ENDBRANCH   8  11
ENDBRANCH   7   8
BRANCH   1  26
HETATM   26  C8  UNL     1      37.550  53.957  60.566  1.00  0.00     0.241 C
HETATM   27  N1  UNL     1      38.255  52.954  59.862  1.00  0.00    -0.354 N
ATOM     28  H1  UNL     1      38.487  53.113  58.882  1.00  0.00     0.162 HD
HETATM   29  O1  UNL     1      37.283  53.715  61.768  1.00  0.00    -0.271 OA
BRANCH  27  30
HETATM   30  C7  UNL     1      38.670  51.681  60.493  1.00  0.00     0.088 C
HETATM   31  C2  UNL     1      37.703  50.631  60.110  1.00  0.00     0.004 C
HETATM   32  C1  UNL     1      37.039  50.076  61.377  1.00  0.00     0.012 C
HETATM   33  C3  UNL     1      38.331  49.438  59.433  1.00  0.00     0.006 C
HETATM   34  C4  UNL     1      39.340  49.982  58.428  1.00  0.00     0.001 C
HETATM   35  C5  UNL     1      40.517  50.420  59.269  1.00  0.00     0.002 C
HETATM   36  C6  UNL     1      40.098  51.509  60.178  1.00  0.00     0.025 C
ENDBRANCH  27  30
ENDBRANCH   1  26
TORSDOF 8
ENDMDL