MODEL 2
REMARK VINA RESULT: -7.985963462      4.274     10.291
REMARK  7 active torsions:
REMARK  status: ('A' for Active; 'I' for Inactive)
REMARK    1  A    between atoms: O1_2  and  N1_3
REMARK       I    between atoms: N1_3  and  C2_5
REMARK    2  A    between atoms: C2_5  and  C3_7
REMARK    3  A    between atoms: C3_7  and  N2_8
REMARK    4  A    between atoms: N2_8  and  C6_11
REMARK    5  A    between atoms: C6_11  and  C7_12
REMARK    6  A    between atoms: C7_12  and  C10_15
REMARK    7  A    between atoms: C18_26  and  O3_27
ROOT
HETATM    1  C10 UNL     1      40.767  52.918  56.683  1.00  0.00     0.003 C
HETATM    2  C11 UNL     1      41.056  54.322  57.190  1.00  0.00     0.006 C
HETATM    3  C12 UNL     1      39.624  54.807  57.396  1.00  0.00     0.006 C
HETATM    4  C13 UNL     1      38.763  53.584  57.456  1.00  0.00    -0.002 C
HETATM    5  C14 UNL     1      37.622  53.600  58.353  1.00  0.00    -0.005 C
HETATM    6  C15 UNL     1      36.895  54.926  58.140  1.00  0.00     0.007 C
HETATM    7  C16 UNL     1      35.654  55.027  58.961  1.00  0.00     0.034 C
HETATM    8  C17 UNL     1      35.702  54.276  60.244  1.00  0.00     0.197 C
HETATM    9  N3  UNL     1      34.965  55.000  61.284  1.00  0.00    -0.044 N
ATOM     10  H31 UNL     1      34.186  55.555  60.929  1.00  0.00     0.280 HD
ATOM     11  H32 UNL     1      35.484  55.778  61.693  1.00  0.00     0.280 HD
HETATM   12  C18 UNL     1      34.572  53.972  62.251  1.00  0.00     0.319 C
HETATM   13  C19 UNL     1      35.613  52.899  62.321  1.00  0.00     0.062 C
HETATM   14  C20 UNL     1      37.022  53.408  62.082  1.00  0.00     0.016 C
HETATM   15  C21 UNL     1      37.131  54.153  60.753  1.00  0.00    -0.011 C
HETATM   16  C22 UNL     1      37.727  55.477  61.037  1.00  0.00     0.018 C
HETATM   17  C23 UNL     1      37.877  53.280  59.783  1.00  0.00     0.000 C
HETATM   18  C24 UNL     1      39.345  53.260  60.084  1.00  0.00     0.006 C
HETATM   19  C25 UNL     1      40.196  52.517  59.134  1.00  0.00     0.010 C
HETATM   20  C26 UNL     1      39.811  52.476  57.700  1.00  0.00    -0.036 C
HETATM   21  C27 UNL     1      39.060  51.189  57.389  1.00  0.00     0.016 C
ENDROOT
BRANCH   1  22
HETATM   22  C7  UNL     1      41.942  52.158  56.237  1.00  0.00    -0.019 C
HETATM   23  C8  UNL     1      42.963  53.308  55.973  1.00  0.00     0.017 C
HETATM   24  C9  UNL     1      41.704  51.676  54.813  1.00  0.00     0.017 C
BRANCH  22  25
HETATM   25  C6  UNL     1      42.426  51.171  57.175  1.00  0.00     0.251 C
BRANCH  25  26
HETATM   26  N2  UNL     1      42.693  49.810  56.870  1.00  0.00    -0.049 N
HETATM   27  C4  UNL     1      41.853  48.989  57.752  1.00  0.00     0.278 C
HETATM   28  C5  UNL     1      42.566  49.398  55.521  1.00  0.00     0.278 C
BRANCH  26  29
HETATM   29  C3  UNL     1      44.042  49.642  57.378  1.00  0.00     0.277 C
BRANCH  29  30
HETATM   30  C2  UNL     1      44.886  48.627  56.823  1.00  0.00     0.288 C
HETATM   31  N1  UNL     1      44.769  47.267  57.334  1.00  0.00    -0.231 N
ATOM     32  H1  UNL     1      44.088  47.085  58.070  1.00  0.00     0.197 HD
HETATM   33  O2  UNL     1      45.757  48.714  55.922  1.00  0.00    -0.265 OA
BRANCH  31  34
HETATM   34  O1  UNL     1      45.507  46.249  56.888  1.00  0.00    -0.282 OA
HETATM   35  C1  UNL     1      44.743  45.181  56.409  1.00  0.00     0.237 C
ENDBRANCH  31  34
ENDBRANCH  29  30
ENDBRANCH  26  29
ENDBRANCH  25  26
ENDBRANCH  22  25
ENDBRANCH   1  22
BRANCH  12  36
HETATM   36  O3  UNL     1      34.260  54.549  63.458  1.00  0.00    -0.370 OA
ATOM     37  H3  UNL     1      34.410  53.933  64.166  1.00  0.00     0.212 HD
ENDBRANCH  12  36
TORSDOF 7
ENDMDL