MODEL 1
REMARK VINA RESULT: -8.453600779      0.000      0.000
REMARK  8 active torsions:
REMARK  status: ('A' for Active; 'I' for Inactive)
REMARK    1  A    between atoms: C2_2  and  N1_5
REMARK       I    between atoms: N1_5  and  C5_7
REMARK    2  A    between atoms: C5_7  and  C6_9
REMARK    3  A    between atoms: C13_16  and  C14_17
REMARK    4  A    between atoms: C14_17  and  O2_18
REMARK    5  A    between atoms: C14_17  and  C15_20
REMARK    6  A    between atoms: C15_20  and  C16_21
REMARK    7  A    between atoms: C16_21  and  C17_22
REMARK    8  A    between atoms: C20_25  and  C21_26
ROOT
HETATM    1  C6  UNL     1      36.640  54.930  58.127  1.00  0.00     0.214 C
HETATM    2  C7  UNL     1      37.758  54.921  57.118  1.00  0.00     0.048 C
HETATM    3  C8  UNL     1      39.011  54.744  57.956  1.00  0.00     0.018 C
HETATM    4  C9  UNL     1      39.981  53.842  57.312  1.00  0.00     0.008 C
HETATM    5  C10 UNL     1      39.862  52.383  57.660  1.00  0.00     0.010 C
HETATM    6  C11 UNL     1      39.703  52.248  59.133  1.00  0.00    -0.032 C
HETATM    7  C12 UNL     1      40.806  52.966  59.884  1.00  0.00     0.016 C
HETATM    8  C13 UNL     1      39.647  50.860  59.669  1.00  0.00     0.023 C
HETATM    9  C24 UNL     1      38.798  50.990  60.891  1.00  0.00     0.008 C
HETATM   10  C25 UNL     1      38.256  52.433  60.928  1.00  0.00     0.008 C
HETATM   11  C26 UNL     1      38.362  52.858  59.477  1.00  0.00     0.023 C
HETATM   12  C27 UNL     1      38.462  54.331  59.273  1.00  0.00     0.131 C
HETATM   13  O5  UNL     1      37.180  54.867  59.381  1.00  0.00    -0.370 OA
ENDROOT
BRANCH   8  14
HETATM   14  C14 UNL     1      39.209  49.823  58.701  1.00  0.00     0.123 C
BRANCH  14  15
HETATM   15  O2  UNL     1      38.156  49.101  59.215  1.00  0.00    -0.395 OA
ATOM     16  H2  UNL     1      37.634  48.729  58.513  1.00  0.00     0.210 HD
ENDBRANCH  14  15
BRANCH  14  17
HETATM   17  C15 UNL     1      40.312  49.032  58.082  1.00  0.00     0.032 C
BRANCH  17  18
HETATM   18  C16 UNL     1      41.704  49.385  58.446  1.00  0.00     0.007 C
BRANCH  18  19
HETATM   19  C17 UNL     1      42.660  49.191  57.259  1.00  0.00    -0.014 C
HETATM   20  C18 UNL     1      42.085  48.289  56.216  1.00  0.00     0.005 C
HETATM   21  C19 UNL     1      42.909  48.459  54.953  1.00  0.00     0.015 C
HETATM   22  C20 UNL     1      42.662  49.827  54.352  1.00  0.00     0.087 C
HETATM   23  C22 UNL     1      42.069  50.719  55.421  1.00  0.00     0.015 C
HETATM   24  C23 UNL     1      42.889  50.562  56.669  1.00  0.00     0.005 C
BRANCH  22  25
HETATM   25  C21 UNL     1      43.932  50.456  53.917  1.00  0.00     0.177 C
HETATM   26  O3  UNL     1      45.058  49.905  53.987  1.00  0.00    -0.648 OA
HETATM   27  O4  UNL     1      43.876  51.739  53.399  1.00  0.00    -0.648 OA
ENDBRANCH  22  25
ENDBRANCH  18  19
ENDBRANCH  17  18
ENDBRANCH  14  17
ENDBRANCH   8  14
BRANCH   1  28
HETATM   28  C5  UNL     1      35.818  56.163  58.023  1.00  0.00     0.247 C
HETATM   29  N1  UNL     1      36.138  57.190  57.080  1.00  0.00    -0.351 N
ATOM     30  H1  UNL     1      36.945  57.076  56.467  1.00  0.00     0.163 HD
HETATM   31  O1  UNL     1      34.808  56.330  58.775  1.00  0.00    -0.271 OA
BRANCH  29  32
HETATM   32  C2  UNL     1      35.334  58.384  56.986  1.00  0.00     0.022 C
HETATM   33  C1  UNL     1      35.511  59.254  58.199  1.00  0.00     0.037 C
HETATM   34  C3  UNL     1      33.879  58.016  56.772  1.00  0.00     0.037 C
HETATM   35  C4  UNL     1      35.779  59.171  55.767  1.00  0.00     0.037 C
ENDBRANCH  29  32
ENDBRANCH   1  28
TORSDOF 8
ENDMDL