MODEL 4
REMARK VINA RESULT: -9.475911794      2.744      9.284
REMARK  8 active torsions:
REMARK  status: ('A' for Active; 'I' for Inactive)
REMARK       I    between atoms: C1_2  and  N1_3
REMARK    1  A    between atoms: C1_2  and  C11_18
REMARK    2  A    between atoms: N1_3  and  C2_5
REMARK    3  A    between atoms: C5_8  and  O2_9
REMARK    4  A    between atoms: C8_13  and  O3_14
REMARK    5  A    between atoms: C11_18  and  C12_19
REMARK    6  A    between atoms: C11_18  and  C18_25
REMARK    7  A    between atoms: C12_19  and  C13_20
REMARK    8  A    between atoms: N2_28  and  C21_29
ROOT
HETATM    1  C11 UNL     1      36.973  54.247  59.657  1.00  0.00     0.012 C
ENDROOT
BRANCH   1   2
HETATM    2  C1  UNL     1      38.332  53.655  59.557  1.00  0.00     0.248 C
HETATM    3  O1  UNL     1      39.312  54.322  59.937  1.00  0.00    -0.268 OA
HETATM    4  N1  UNL     1      38.579  52.354  59.048  1.00  0.00    -0.352 N
ATOM      5  H1  UNL     1      37.780  51.803  58.735  1.00  0.00     0.163 HD
BRANCH   4   6
HETATM    6  C2  UNL     1      39.874  51.769  58.945  1.00  0.00     0.091 C
HETATM    7  C3  UNL     1      39.805  50.417  59.667  1.00  0.00     0.028 C
HETATM    8  C4  UNL     1      40.604  49.450  58.823  1.00  0.00     0.040 C
HETATM    9  C5  UNL     1      41.284  50.324  57.835  1.00  0.00     0.064 C
HETATM   10  C6  UNL     1      41.728  49.625  56.580  1.00  0.00     0.041 C
HETATM   11  C10 UNL     1      40.189  51.356  57.552  1.00  0.00     0.045 C
HETATM   12  C7  UNL     1      42.320  50.695  55.685  1.00  0.00     0.034 C
HETATM   13  C8  UNL     1      41.273  51.735  55.391  1.00  0.00     0.118 C
HETATM   14  C9  UNL     1      40.790  52.404  56.679  1.00  0.00     0.041 C
BRANCH   9  15
HETATM   15  O2  UNL     1      42.369  50.943  58.399  1.00  0.00    -0.389 OA
ATOM     16  H2  UNL     1      42.853  51.435  57.747  1.00  0.00     0.210 HD
ENDBRANCH   9  15
BRANCH  13  17
HETATM   17  O3  UNL     1      41.810  52.652  54.504  1.00  0.00    -0.396 OA
ATOM     18  H3  UNL     1      41.669  52.331  53.621  1.00  0.00     0.210 HD
ENDBRANCH  13  17
ENDBRANCH   4   6
ENDBRANCH   1   2
BRANCH   1  19
HETATM   19  C12 UNL     1      36.699  55.334  58.703  1.00  0.00    -0.009 C
BRANCH  19  20
HETATM   20  C13 UNL     1      36.291  55.100  57.323  1.00  0.00     0.009 C
HETATM   21  C14 UNL     1      34.725  54.944  57.398  1.00  0.00     0.008 C
HETATM   22  C15 UNL     1      34.269  56.380  57.613  1.00  0.00     0.001 C
HETATM   23  C16 UNL     1      35.365  57.279  57.065  1.00  0.00     0.001 C
HETATM   24  C17 UNL     1      36.298  56.290  56.396  1.00  0.00     0.008 C
ENDBRANCH  19  20
ENDBRANCH   1  19
BRANCH   1  25
HETATM   25  C18 UNL     1      36.312  54.204  60.964  1.00  0.00     0.054 C
HETATM   26  C19 UNL     1      35.534  53.067  61.432  1.00  0.00     0.041 C
HETATM   27  C20 UNL     1      34.679  53.716  62.542  1.00  0.00     0.273 C
HETATM   28  N2  UNL     1      34.245  54.941  61.902  1.00  0.00     0.094 N
HETATM   29  C29 UNL     1      35.307  55.370  61.045  1.00  0.00     0.282 C
BRANCH  28  30
HETATM   30  C21 UNL     1      34.004  55.916  62.953  1.00  0.00     0.227 C
HETATM   31  C22 UNL     1      33.979  55.192  64.286  1.00  0.00     0.041 C
HETATM   32  C23 UNL     1      32.981  55.874  65.171  1.00  0.00    -0.012 C
HETATM   33  C24 UNL     1      33.171  57.369  65.056  1.00  0.00     0.005 C
HETATM   34  C28 UNL     1      31.596  55.489  64.662  1.00  0.00     0.005 C
HETATM   35  C25 UNL     1      32.624  57.800  63.718  1.00  0.00     0.007 C
HETATM   36  C26 UNL     1      32.682  56.613  62.771  1.00  0.00     0.019 C
HETATM   37  C27 UNL     1      31.584  55.655  63.156  1.00  0.00     0.007 C
ENDBRANCH  28  30
ENDBRANCH   1  25
TORSDOF 8
ENDMDL