MODEL 3
REMARK VINA RESULT: -8.269676092      4.493      8.191
REMARK  8 active torsions:
REMARK  status: ('A' for Active; 'I' for Inactive)
REMARK    1  A    between atoms: O1_2  and  N1_3
REMARK    2  A    between atoms: C2_5  and  C3_6
REMARK    3  A    between atoms: C2_5  and  N2_13
REMARK    4  A    between atoms: C3_6  and  C4_7
REMARK    5  A    between atoms: C4_7  and  C5_8
REMARK    6  A    between atoms: C6_9  and  C7_10
REMARK    7  A    between atoms: N2_13  and  C8_15
REMARK    8  A    between atoms: C20_27  and  C21_28
ROOT
HETATM    1  C8  UNL     1      36.146  55.098  60.518  1.00  0.00     0.083 C
HETATM    2  C9  UNL     1      36.071  54.169  59.323  1.00  0.00     0.025 C
HETATM    3  C10 UNL     1      35.951  54.968  58.043  1.00  0.00     0.007 C
HETATM    4  C11 UNL     1      34.905  56.061  58.307  1.00  0.00    -0.006 C
HETATM    5  C12 UNL     1      34.379  56.518  57.010  1.00  0.00     0.006 C
HETATM    6  C13 UNL     1      33.933  57.947  57.000  1.00  0.00     0.006 C
HETATM    7  C14 UNL     1      34.864  58.946  57.597  1.00  0.00    -0.005 C
HETATM    8  C15 UNL     1      35.877  58.375  58.571  1.00  0.00    -0.002 C
HETATM    9  C16 UNL     1      37.266  58.313  57.983  1.00  0.00     0.006 C
HETATM   10  C17 UNL     1      37.670  59.738  57.512  1.00  0.00     0.011 C
HETATM   11  C18 UNL     1      36.845  59.897  56.288  1.00  0.00    -0.028 C
HETATM   12  C19 UNL     1      37.197  58.864  55.286  1.00  0.00     0.016 C
HETATM   13  C20 UNL     1      36.925  61.233  55.589  1.00  0.00     0.083 C
HETATM   14  C22 UNL     1      35.691  61.124  54.680  1.00  0.00     0.015 C
HETATM   15  C23 UNL     1      34.810  60.041  55.291  1.00  0.00     0.007 C
HETATM   16  C24 UNL     1      35.393  59.957  56.680  1.00  0.00    -0.001 C
HETATM   17  C25 UNL     1      35.454  57.121  59.216  1.00  0.00    -0.035 C
HETATM   18  C26 UNL     1      34.374  57.472  60.250  1.00  0.00     0.016 C
HETATM   19  C27 UNL     1      36.579  56.476  59.990  1.00  0.00     0.035 C
ENDROOT
BRANCH   1  20
HETATM   20  N2  UNL     1      37.199  54.646  61.400  1.00  0.00    -0.370 N
ATOM     21  H2  UNL     1      37.502  55.217  62.188  1.00  0.00     0.161 HD
BRANCH  20  22
HETATM   22  C2  UNL     1      37.803  53.377  61.137  1.00  0.00     0.129 C
HETATM   23  N1  UNL     1      38.868  53.373  60.451  1.00  0.00    -0.251 N
ATOM     24  H1  UNL     1      39.307  52.467  60.284  1.00  0.00     0.196 HD
BRANCH  23  25
HETATM   25  O1  UNL     1      39.473  54.447  59.923  1.00  0.00    -0.284 OA
HETATM   26  C1  UNL     1      40.908  54.340  59.772  1.00  0.00     0.237 C
ENDBRANCH  23  25
BRANCH  22  27
HETATM   27  C3  UNL     1      37.262  52.110  61.648  1.00  0.00     0.105 C
BRANCH  27  28
HETATM   28  C4  UNL     1      37.511  50.958  61.299  1.00  0.00    -0.124 C
BRANCH  28  29
HETATM   29  C5  UNL     1      37.778  49.653  60.911  1.00  0.00     0.062 C
HETATM   30  C6  UNL     1      38.584  49.292  59.881  1.00  0.00     0.092 C
BRANCH  30  31
HETATM   31  C7  UNL     1      39.275  50.222  59.045  1.00  0.00     0.199 C
HETATM   32  O2  UNL     1      38.806  50.443  57.872  1.00  0.00    -0.644 OA
HETATM   33  O3  UNL     1      40.404  50.878  59.447  1.00  0.00    -0.644 OA
ENDBRANCH  30  31
ENDBRANCH  28  29
ENDBRANCH  27  28
ENDBRANCH  22  27
ENDBRANCH  20  22
ENDBRANCH   1  20
BRANCH  13  34
HETATM   34  C21 UNL     1      38.119  61.440  54.771  1.00  0.00     0.236 C
HETATM   35  N3  UNL     1      37.937  61.550  53.346  1.00  0.00    -0.062 NA
HETATM   36  O4  UNL     1      39.306  61.530  55.187  1.00  0.00    -0.276 OA
ENDBRANCH  13  34
TORSDOF 8
ENDMDL