MODEL 2
REMARK VINA RESULT: -8.772139865      4.191      9.127
REMARK  8 active torsions:
REMARK  status: ('A' for Active; 'I' for Inactive)
REMARK    1  A    between atoms: C2_2  and  C3_3
REMARK    2  A    between atoms: C2_2  and  C12_16
REMARK       I    between atoms: C3_3  and  N1_5
REMARK    3  A    between atoms: N1_5  and  C4_7
REMARK    4  A    between atoms: C4_7  and  C5_8
REMARK    5  A    between atoms: C5_8  and  C6_9
REMARK    6  A    between atoms: C6_9  and  N2_10
REMARK    7  A    between atoms: C12_16  and  O2_17
REMARK    8  A    between atoms: C20_26  and  O3_27
ROOT
HETATM    1  C12 UNL     1      36.960  54.821  59.104  1.00  0.00     0.077 C
HETATM    2  C13 UNL     1      35.455  54.768  59.030  1.00  0.00     0.040 C
HETATM    3  C14 UNL     1      35.300  54.877  57.503  1.00  0.00     0.009 C
HETATM    4  C15 UNL     1      36.420  55.794  57.075  1.00  0.00     0.001 C
HETATM    5  C16 UNL     1      35.913  57.044  56.438  1.00  0.00    -0.005 C
HETATM    6  C17 UNL     1      34.577  57.497  56.896  1.00  0.00     0.006 C
HETATM    7  C18 UNL     1      34.405  58.989  57.012  1.00  0.00     0.008 C
HETATM    8  C19 UNL     1      35.087  59.667  55.876  1.00  0.00     0.023 C
HETATM    9  C20 UNL     1      35.080  61.176  56.021  1.00  0.00     0.123 C
HETATM   10  C21 UNL     1      36.394  61.624  55.378  1.00  0.00     0.033 C
HETATM   11  C22 UNL     1      37.317  60.529  55.872  1.00  0.00     0.012 C
HETATM   12  C23 UNL     1      36.511  59.291  55.673  1.00  0.00    -0.034 C
HETATM   13  C24 UNL     1      36.663  58.910  54.190  1.00  0.00     0.016 C
HETATM   14  C25 UNL     1      36.978  58.118  56.485  1.00  0.00    -0.001 C
HETATM   15  C26 UNL     1      37.452  58.423  57.851  1.00  0.00     0.007 C
HETATM   16  C27 UNL     1      37.115  57.354  58.889  1.00  0.00     0.013 C
HETATM   17  C28 UNL     1      37.302  56.019  58.299  1.00  0.00    -0.008 C
HETATM   18  C29 UNL     1      38.781  55.885  57.908  1.00  0.00     0.019 C
ENDROOT
BRANCH   1  19
HETATM   19  C2  UNL     1      37.553  54.666  60.447  1.00  0.00     0.109 C
HETATM   20  C1  UNL     1      36.674  54.753  61.632  1.00  0.00     0.023 C
BRANCH  19  21
HETATM   21  C3  UNL     1      38.382  53.439  60.594  1.00  0.00     0.224 C
HETATM   22  O1  UNL     1      39.602  53.474  60.304  1.00  0.00    -0.273 OA
HETATM   23  N1  UNL     1      37.882  52.186  61.053  1.00  0.00    -0.361 N
ATOM     24  H1  UNL     1      36.892  52.134  61.295  1.00  0.00     0.162 HD
BRANCH  23  25
HETATM   25  C4  UNL     1      38.650  51.007  61.199  1.00  0.00     0.124 C
BRANCH  25  26
HETATM   26  C5  UNL     1      38.047  49.750  60.674  1.00  0.00     0.050 C
BRANCH  26  27
HETATM   27  C6  UNL     1      38.443  49.444  59.254  1.00  0.00     0.274 C
BRANCH  27  28
HETATM   28  N2  UNL     1      39.613  50.151  58.832  1.00  0.00     0.088 N
HETATM   29  C7  UNL     1      39.301  50.761  57.537  1.00  0.00     0.272 C
HETATM   30  C8  UNL     1      40.243  51.941  57.282  1.00  0.00     0.030 C
HETATM   31  C9  UNL     1      41.483  51.662  58.132  1.00  0.00     0.003 C
HETATM   32  C10 UNL     1      41.814  50.187  57.923  1.00  0.00     0.030 C
HETATM   33  C11 UNL     1      40.766  49.310  58.620  1.00  0.00     0.272 C
ENDBRANCH  27  28
ENDBRANCH  26  27
ENDBRANCH  25  26
ENDBRANCH  23  25
ENDBRANCH  19  21
ENDBRANCH   1  19
BRANCH   1  34
HETATM   34  O2  UNL     1      37.375  53.725  58.261  1.00  0.00    -0.388 OA
ATOM     35  H2  UNL     1      36.895  53.752  57.441  1.00  0.00     0.210 HD
ENDBRANCH   1  34
BRANCH   9  36
HETATM   36  O3  UNL     1      34.055  61.773  55.287  1.00  0.00    -0.395 OA
ATOM     37  H3  UNL     1      33.490  62.310  55.830  1.00  0.00     0.210 HD
ENDBRANCH   9  36
TORSDOF 8
ENDMDL