MODEL 3
REMARK VINA RESULT: -8.509876079      1.366      1.568
REMARK  6 active torsions:
REMARK  status: ('A' for Active; 'I' for Inactive)
REMARK    1  A    between atoms: C5_6  and  N1_7
REMARK       I    between atoms: N1_7  and  C6_9
REMARK       I    between atoms: C6_9  and  N2_11
REMARK    2  A    between atoms: N2_11  and  C7_13
REMARK    3  A    between atoms: C18_24  and  N3_25
REMARK    4  A    between atoms: N3_25  and  C19_27
REMARK    5  A    between atoms: N4_30  and  C22_31
REMARK    6  A    between atoms: C22_31  and  C23_32
ROOT
HETATM    1  C1  UNL     1      35.178  59.352  58.579  1.00  0.00     0.046 C
HETATM    2  C2  UNL     1      35.924  58.287  58.411  1.00  0.00     0.042 C
HETATM    3  O1  UNL     1      36.618  57.683  59.438  1.00  0.00    -0.341 OA
HETATM    4  C3  UNL     1      36.801  56.246  59.325  1.00  0.00     0.109 C
HETATM    5  C4  UNL     1      37.395  55.925  60.708  1.00  0.00     0.051 C
HETATM    6  C5  UNL     1      35.361  55.739  59.336  1.00  0.00     0.123 C
HETATM    7  C13 UNL     1      35.034  54.656  58.361  1.00  0.00     0.033 C
HETATM    8  C14 UNL     1      35.575  55.138  57.029  1.00  0.00    -0.009 C
HETATM    9  C15 UNL     1      35.164  56.554  56.738  1.00  0.00     0.016 C
HETATM   10  C16 UNL     1      36.124  57.594  57.110  1.00  0.00     0.044 C
HETATM   11  C17 UNL     1      37.560  57.160  57.175  1.00  0.00     0.045 C
HETATM   12  C18 UNL     1      37.626  55.939  58.187  1.00  0.00     0.060 C
HETATM   13  C28 UNL     1      37.019  54.889  57.188  1.00  0.00     0.038 C
ENDROOT
BRANCH   6  14
HETATM   14  N1  UNL     1      34.890  55.290  60.603  1.00  0.00    -0.335 N
HETATM   15  C6  UNL     1      33.994  56.040  61.365  1.00  0.00     0.316 C
HETATM   16  O2  UNL     1      33.604  57.146  60.879  1.00  0.00    -0.247 OA
HETATM   17  N2  UNL     1      33.507  55.619  62.648  1.00  0.00    -0.339 N
ATOM     18  H2  UNL     1      33.819  54.738  63.057  1.00  0.00     0.164 HD
ATOM     19  H1  UNL     1      35.218  54.395  60.964  1.00  0.00     0.164 HD
BRANCH  17  20
HETATM   20  C7  UNL     1      32.573  56.456  63.343  1.00  0.00     0.086 C
HETATM   21  C8  UNL     1      33.197  57.145  64.558  1.00  0.00     0.025 C
HETATM   22  C9  UNL     1      32.038  57.882  65.237  1.00  0.00     0.002 C
HETATM   23  C10 UNL     1      31.180  56.830  65.931  1.00  0.00     0.000 C
HETATM   24  C11 UNL     1      31.348  55.471  65.247  1.00  0.00     0.002 C
HETATM   25  C12 UNL     1      31.319  55.705  63.747  1.00  0.00     0.025 C
ENDBRANCH  17  20
ENDBRANCH   6  14
BRANCH  12  26
HETATM   26  N3  UNL     1      38.922  55.530  58.273  1.00  0.00    -0.405 N
ATOM     27  H3  UNL     1      39.429  56.318  58.675  1.00  0.00     0.154 HD
BRANCH  26  28
HETATM   28  C19 UNL     1      39.825  54.595  58.080  1.00  0.00     0.087 C
HETATM   29  C20 UNL     1      40.899  54.802  57.100  1.00  0.00     0.069 C
HETATM   30  C21 UNL     1      41.985  53.744  57.065  1.00  0.00     0.065 C
HETATM   31  N4  UNL     1      41.594  52.411  57.210  1.00  0.00    -0.373 N
HETATM   32  C26 UNL     1      40.505  52.232  58.077  1.00  0.00     0.065 C
HETATM   33  C27 UNL     1      39.341  53.162  57.799  1.00  0.00     0.069 C
BRANCH  31  34
HETATM   34  C22 UNL     1      41.785  51.506  56.142  1.00  0.00     0.131 C
BRANCH  34  35
HETATM   35  C23 UNL     1      42.411  52.205  54.954  1.00  0.00     0.004 A
HETATM   36  C24 UNL     1      41.911  51.714  53.577  1.00  0.00     0.007 A
HETATM   37  C25 UNL     1      43.334  51.477  54.050  1.00  0.00     0.007 A
ENDBRANCH  34  35
ENDBRANCH  31  34
ENDBRANCH  26  28
ENDBRANCH  12  26
TORSDOF 6
ENDMDL