MODEL 5
REMARK VINA RESULT: -7.674749447      4.115      9.684
REMARK  8 active torsions:
REMARK  status: ('A' for Active; 'I' for Inactive)
REMARK    1  A    between atoms: C3_3  and  O1_4
REMARK    2  A    between atoms: C20_22  and  C21_23
REMARK    3  A    between atoms: C21_23  and  O2_24
REMARK    4  A    between atoms: C21_23  and  C23_26
REMARK    5  A    between atoms: C23_26  and  N1_27
REMARK    6  A    between atoms: C23_26  and  C28_33
REMARK    7  A    between atoms: N1_27  and  C24_29
REMARK    8  A    between atoms: C24_29  and  C25_30
ROOT
HETATM    1  C1  UNL     1      34.238  62.952  56.735  1.00  0.00     0.017 C
HETATM    2  C2  UNL     1      34.510  61.769  56.128  1.00  0.00    -0.052 C
HETATM    3  C3  UNL     1      34.154  61.625  54.726  1.00  0.00     0.147 C
HETATM    4  C4  UNL     1      34.860  60.425  54.140  1.00  0.00     0.037 C
HETATM    5  C5  UNL     1      36.283  60.307  54.615  1.00  0.00     0.013 C
HETATM    6  C6  UNL     1      36.441  60.306  56.109  1.00  0.00    -0.029 C
HETATM    7  C7  UNL     1      37.471  61.402  56.466  1.00  0.00     0.016 C
HETATM    8  C8  UNL     1      35.195  60.681  56.849  1.00  0.00     0.047 C
HETATM    9  C9  UNL     1      34.386  59.530  57.215  1.00  0.00    -0.020 C
HETATM   10  C10 UNL     1      34.684  58.253  57.020  1.00  0.00    -0.024 C
HETATM   11  C11 UNL     1      35.925  57.893  56.363  1.00  0.00     0.017 C
HETATM   12  C12 UNL     1      37.003  58.967  56.555  1.00  0.00     0.003 C
HETATM   13  C13 UNL     1      37.504  58.967  57.954  1.00  0.00     0.007 C
HETATM   14  C14 UNL     1      37.332  57.601  58.668  1.00  0.00     0.010 C
HETATM   15  C15 UNL     1      37.565  56.536  57.724  1.00  0.00    -0.033 C
HETATM   16  C16 UNL     1      38.941  56.814  57.043  1.00  0.00     0.016 C
HETATM   17  C17 UNL     1      36.512  56.562  56.591  1.00  0.00     0.002 C
HETATM   18  C18 UNL     1      35.596  55.427  56.872  1.00  0.00     0.006 C
HETATM   19  C19 UNL     1      36.037  54.912  58.233  1.00  0.00     0.009 C
HETATM   20  C20 UNL     1      37.554  55.093  58.044  1.00  0.00     0.029 C
ENDROOT
BRANCH  20  21
HETATM   21  C21 UNL     1      38.301  54.633  59.216  1.00  0.00     0.182 C
BRANCH  21  22
HETATM   22  O2  UNL     1      39.639  54.317  58.754  1.00  0.00    -0.384 OA
HETATM   23  C22 UNL     1      40.520  54.977  59.645  1.00  0.00     0.202 C
ENDBRANCH  21  22
BRANCH  21  24
HETATM   24  C23 UNL     1      37.981  53.291  59.797  1.00  0.00     0.112 C
BRANCH  24  25
HETATM   25  N1  UNL     1      38.551  52.096  59.390  1.00  0.00    -0.385 N
ATOM     26  H1  UNL     1      38.231  51.680  58.515  1.00  0.00     0.159 HD
BRANCH  25  27
HETATM   27  C24 UNL     1      39.550  51.424  60.123  1.00  0.00     0.123 C
BRANCH  27  28
HETATM   28  C25 UNL     1      39.578  49.921  60.021  1.00  0.00    -0.005 C
HETATM   29  C26 UNL     1      40.426  49.413  58.885  1.00  0.00     0.011 C
HETATM   30  C27 UNL     1      38.176  49.413  59.877  1.00  0.00     0.011 C
ENDBRANCH  27  28
ENDBRANCH  25  27
ENDBRANCH  24  25
BRANCH  24  31
HETATM   31  C28 UNL     1      37.210  53.223  61.028  1.00  0.00     0.224 C
HETATM   32  O3  UNL     1      37.051  54.227  61.832  1.00  0.00    -0.643 OA
HETATM   33  O4  UNL     1      36.532  52.071  61.480  1.00  0.00    -0.643 OA
ENDBRANCH  24  31
ENDBRANCH  21  24
ENDBRANCH  20  21
BRANCH   3  34
HETATM   34  O1  UNL     1      32.770  61.409  54.557  1.00  0.00    -0.391 OA
ATOM     35  H1  UNL     1      32.398  61.999  53.911  1.00  0.00     0.210 HD
ENDBRANCH   3  34
TORSDOF 8
ENDMDL