MODEL 4
REMARK VINA RESULT: -7.951742614      6.536     10.599
REMARK  8 active torsions:
REMARK  status: ('A' for Active; 'I' for Inactive)
REMARK    1  A    between atoms: C2_2  and  O1_4
REMARK    2  A    between atoms: C2_2  and  O2_6
REMARK    3  A    between atoms: O2_6  and  C4_7
REMARK    4  A    between atoms: C4_7  and  C5_8
REMARK    5  A    between atoms: C15_18  and  N1_19
REMARK       I    between atoms: N1_19  and  C16_21
REMARK    6  A    between atoms: C16_21  and  C17_23
REMARK    7  A    between atoms: C17_23  and  C18_24
REMARK    8  A    between atoms: C18_24  and  C19_25
ROOT
HETATM    1  C5  UNL     1      37.438  54.922  59.162  1.00  0.00    -0.008 C
HETATM    2  C6  UNL     1      37.305  56.236  59.964  1.00  0.00    -0.003 C
HETATM    3  C7  UNL     1      36.250  55.875  60.871  1.00  0.00     0.006 C
HETATM    4  C8  UNL     1      36.613  54.416  61.237  1.00  0.00     0.006 C
HETATM    5  C9  UNL     1      37.805  54.077  60.379  1.00  0.00    -0.003 C
HETATM    6  C10 UNL     1      38.016  52.714  59.961  1.00  0.00     0.006 C
HETATM    7  C11 UNL     1      39.394  52.187  59.830  1.00  0.00     0.010 C
HETATM    8  C12 UNL     1      40.418  52.836  59.031  1.00  0.00    -0.038 C
HETATM    9  C13 UNL     1      41.323  53.660  59.962  1.00  0.00     0.015 C
HETATM   10  C14 UNL     1      41.375  51.662  58.631  1.00  0.00     0.034 C
HETATM   11  C15 UNL     1      40.754  51.088  57.398  1.00  0.00     0.085 C
HETATM   12  C23 UNL     1      40.144  52.264  56.757  1.00  0.00     0.030 C
HETATM   13  C24 UNL     1      40.181  53.421  57.737  1.00  0.00    -0.004 C
HETATM   14  C25 UNL     1      39.056  54.294  57.398  1.00  0.00     0.011 C
HETATM   15  C26 UNL     1      38.621  55.314  58.370  1.00  0.00    -0.003 C
HETATM   16  C27 UNL     1      38.137  56.622  57.806  1.00  0.00     0.006 C
HETATM   17  C28 UNL     1      37.259  57.199  58.906  1.00  0.00     0.006 C
ENDROOT
BRANCH  11  18
HETATM   18  N1  UNL     1      41.639  50.412  56.507  1.00  0.00    -0.356 N
HETATM   19  C16 UNL     1      41.880  49.010  56.624  1.00  0.00     0.217 C
HETATM   20  O3  UNL     1      41.339  48.305  57.500  1.00  0.00    -0.274 OA
ATOM     21  H1  UNL     1      42.108  50.942  55.771  1.00  0.00     0.162 HD
BRANCH  19  22
HETATM   22  C17 UNL     1      42.805  48.414  55.663  1.00  0.00     0.103 C
BRANCH  22  23
HETATM   23  C18 UNL     1      43.112  49.200  54.448  1.00  0.00     0.015 C
BRANCH  23  24
HETATM   24  C19 UNL     1      42.294  49.032  53.235  1.00  0.00     0.013 C
HETATM   25  C20 UNL     1      41.893  50.431  52.674  1.00  0.00     0.034 C
HETATM   26  C21 UNL     1      41.580  50.122  51.227  1.00  0.00     0.232 C
HETATM   27  N2  UNL     1      41.738  48.691  51.054  1.00  0.00    -0.075 N
HETATM   28  C22 UNL     1      42.862  48.436  52.006  1.00  0.00     0.237 C
ATOM     29  H22 UNL     1      40.898  48.130  51.197  1.00  0.00     0.277 HD
ATOM     30  H21 UNL     1      41.886  48.373  50.096  1.00  0.00     0.277 HD
ENDBRANCH  23  24
ENDBRANCH  22  23
ENDBRANCH  19  22
ENDBRANCH  11  18
BRANCH   1  31
HETATM   31  C4  UNL     1      36.206  54.525  58.501  1.00  0.00     0.182 C
BRANCH  31  32
HETATM   32  O2  UNL     1      35.990  54.944  57.215  1.00  0.00    -0.355 OA
BRANCH  32  33
HETATM   33  C2  UNL     1      34.759  55.457  56.961  1.00  0.00     0.154 C
HETATM   34  C1  UNL     1      33.943  55.774  58.194  1.00  0.00     0.078 C
HETATM   35  C3  UNL     1      33.910  54.612  56.041  1.00  0.00     0.078 C
BRANCH  33  36
HETATM   36  O1  UNL     1      34.943  56.691  56.293  1.00  0.00    -0.366 OA
ATOM     37  H1  UNL     1      34.177  56.803  55.741  1.00  0.00     0.213 HD
ENDBRANCH  33  36
ENDBRANCH  32  33
ENDBRANCH  31  32
ENDBRANCH   1  31
TORSDOF 8
ENDMDL