MODEL 4
REMARK VINA RESULT: -5.366307870      4.765      7.227
REMARK  6 active torsions:
REMARK  status: ('A' for Active; 'I' for Inactive)
REMARK    1  A    between atoms: C2_2  and  N1_4
REMARK    2  A    between atoms: N1_4  and  C4_5
REMARK    3  A    between atoms: N1_4  and  C16_21
REMARK    4  A    between atoms: C4_5  and  C5_6
REMARK       I    between atoms: N2_10  and  C9_11
REMARK    5  A    between atoms: C9_11  and  C10_13
REMARK    6  A    between atoms: C11_14  and  C12_15
ROOT
HETATM    1  C5  UNL     1      -0.400  24.192  10.727  1.00  0.00     0.115 C
HETATM    2  C6  UNL     1       1.056  24.518  10.222  1.00  0.00     0.029 C
HETATM    3  C7  UNL     1       1.744  24.906  11.536  1.00  0.00     0.022 C
HETATM    4  C8  UNL     1       0.629  24.945  12.554  1.00  0.00     0.126 C
HETATM    5  N2  UNL     1      -0.518  25.301  11.595  1.00  0.00    -0.345 N
HETATM    6  C9  UNL     1      -1.267  26.476  11.778  1.00  0.00     0.226 C
HETATM    7  O1  UNL     1      -0.921  27.134  12.834  1.00  0.00    -0.273 OA
ENDROOT
BRANCH   1   8
HETATM    8  C4  UNL     1      -1.195  23.930   9.555  1.00  0.00     0.298 C
BRANCH   8   9
HETATM    9  N1  UNL     1      -2.376  23.124   9.623  1.00  0.00     0.098 N
BRANCH   9  10
HETATM   10  C2  UNL     1      -2.582  22.576  10.963  1.00  0.00     0.215 C
HETATM   11  C1  UNL     1      -3.836  23.170  11.558  1.00  0.00     0.042 C
HETATM   12  C3  UNL     1      -2.512  21.093  11.038  1.00  0.00     0.042 C
ENDBRANCH   9  10
BRANCH   9  13
HETATM   13  C16 UNL     1      -2.318  22.091   8.645  1.00  0.00     0.215 C
HETATM   14  C17 UNL     1      -3.542  21.768   7.888  1.00  0.00     0.042 C
HETATM   15  C18 UNL     1      -1.167  22.232   7.712  1.00  0.00     0.042 C
ENDBRANCH   9  13
ENDBRANCH   8   9
ENDBRANCH   1   8
BRANCH   6  16
HETATM   16  C10 UNL     1      -2.334  27.060  11.003  1.00  0.00     0.101 A
HETATM   17  C11 UNL     1      -2.306  27.598   9.651  1.00  0.00     0.109 A
HETATM   18  C13 UNL     1      -2.385  28.530  10.818  1.00  0.00    -0.021 A
HETATM   19  C14 UNL     1      -3.758  29.230  11.017  1.00  0.00     0.016 C
HETATM   20  C15 UNL     1      -1.276  29.458  11.176  1.00  0.00     0.016 C
BRANCH  17  21
HETATM   21  C12 UNL     1      -1.211  27.666   8.707  1.00  0.00     0.178 C
HETATM   22  O2  UNL     1       0.007  27.435   8.888  1.00  0.00    -0.648 OA
HETATM   23  O3  UNL     1      -1.496  28.041   7.364  1.00  0.00    -0.648 OA
ENDBRANCH  17  21
ENDBRANCH   6  16
TORSDOF 6
ENDMDL