MODEL 2
REMARK VINA RESULT: -5.473663203      3.927      7.062
REMARK  8 active torsions:
REMARK  status: ('A' for Active; 'I' for Inactive)
REMARK    1  A    between atoms: C2_2  and  C4_4
REMARK    2  A    between atoms: C4_4  and  C5_5
REMARK    3  A    between atoms: C5_5  and  C6_6
REMARK    4  A    between atoms: C5_5  and  C8_9
REMARK    5  A    between atoms: C8_9  and  O1_10
REMARK    6  A    between atoms: C8_9  and  N2_12
REMARK    7  A    between atoms: N2_12  and  C10_14
REMARK    8  A    between atoms: C15_22  and  C16_23
ROOT
HETATM    1  C6  UNL     1       5.342  25.823   2.815  1.00  0.00     0.162 C
HETATM    2  C7  UNL     1       6.666  25.651   2.261  1.00  0.00     0.063 C
HETATM    3  N1  UNL     1       7.731  25.512   1.839  1.00  0.00    -0.197 NA
ENDROOT
BRANCH   1   4
HETATM    4  C5  UNL     1       5.261  26.583   4.093  1.00  0.00    -0.016 C
BRANCH   4   5
HETATM    5  C4  UNL     1       6.167  27.734   4.296  1.00  0.00     0.043 C
BRANCH   5   6
HETATM    6  C2  UNL     1       7.393  27.545   5.104  1.00  0.00    -0.019 C
HETATM    7  C1  UNL     1       8.554  28.081   4.226  1.00  0.00     0.010 C
HETATM    8  C3  UNL     1       7.789  26.191   5.529  1.00  0.00     0.010 C
ENDBRANCH   5   6
ENDBRANCH   4   5
BRANCH   4   9
HETATM    9  C8  UNL     1       3.896  26.711   4.661  1.00  0.00     0.141 C
BRANCH   9  10
HETATM   10  O1  UNL     1       3.472  25.650   5.303  1.00  0.00    -0.346 OA
ATOM     11  H1  UNL     1       3.657  24.826   4.869  1.00  0.00     0.219 HD
ENDBRANCH   9  10
BRANCH   9  12
HETATM   12  N2  UNL     1       3.020  27.800   4.595  1.00  0.00    -0.360 N
HETATM   13  C9  UNL     1       3.477  29.154   4.589  1.00  0.00     0.152 C
BRANCH  12  14
HETATM   14  C10 UNL     1       1.604  27.585   4.544  1.00  0.00     0.101 C
HETATM   15  C11 UNL     1       1.048  28.388   5.744  1.00  0.00     0.051 C
HETATM   16  C12 UNL     1      -0.216  27.706   6.141  1.00  0.00     0.082 C
HETATM   17  C13 UNL     1      -0.774  28.249   7.411  1.00  0.00     0.032 C
HETATM   18  N3  UNL     1      -1.121  27.926   4.999  1.00  0.00    -0.356 N
HETATM   19  C14 UNL     1      -0.604  27.744   3.684  1.00  0.00     0.224 C
ATOM     20  H3  UNL     1      -2.092  28.201   5.147  1.00  0.00     0.162 HD
HETATM   21  O2  UNL     1      -1.412  27.324   2.824  1.00  0.00    -0.273 OA
HETATM   22  C15 UNL     1       0.851  28.052   3.371  1.00  0.00     0.104 C
BRANCH  22  23
HETATM   23  C16 UNL     1       1.099  27.463   2.046  1.00  0.00    -0.008 C
HETATM   24  C17 UNL     1       2.416  27.678   1.401  1.00  0.00     0.010 C
HETATM   25  C18 UNL     1       0.060  28.073   1.084  1.00  0.00     0.010 C
ENDBRANCH  22  23
ENDBRANCH  12  14
ENDBRANCH   9  12
ENDBRANCH   4   9
ENDBRANCH   1   4
TORSDOF 8
ENDMDL