MODEL 4
REMARK VINA RESULT: -7.420657521      3.012      7.870
REMARK  6 active torsions:
REMARK  status: ('A' for Active; 'I' for Inactive)
REMARK    1  A    between atoms: C1_2  and  C2_3
REMARK       I    between atoms: C1_2  and  N2_16
REMARK    2  A    between atoms: C2_3  and  N1_4
REMARK       I    between atoms: N1_4  and  C3_5
REMARK    3  A    between atoms: N1_4  and  C7_10
REMARK    4  A    between atoms: C3_5  and  C4_7
REMARK    5  A    between atoms: N2_16  and  C13_18
REMARK    6  A    between atoms: C13_18  and  C14_19
ROOT
HETATM    1  C2  UNL     1       1.013  28.409   5.736  1.00  0.00     0.228 C
ENDROOT
BRANCH   1   2
HETATM    2  C1  UNL     1       0.036  27.788   6.623  1.00  0.00     0.235 C
HETATM    3  O1  UNL     1       0.040  26.534   6.795  1.00  0.00    -0.272 OA
HETATM    4  N2  UNL     1      -0.906  28.622   7.278  1.00  0.00    -0.357 N
ATOM      5  H2  UNL     1      -0.892  29.630   7.126  1.00  0.00     0.162 HD
BRANCH   4   6
HETATM    6  C13 UNL     1      -1.870  28.044   8.149  1.00  0.00     0.154 C
BRANCH   6   7
HETATM    7  C14 UNL     1      -1.512  28.074   9.594  1.00  0.00     0.139 C
HETATM    8  C15 UNL     1      -2.640  28.383  10.514  1.00  0.00     0.034 C
HETATM    9  C16 UNL     1      -3.616  27.274  10.693  1.00  0.00     0.005 C
HETATM   10  C17 UNL     1      -3.189  25.945  10.220  1.00  0.00     0.026 C
HETATM   11  C18 UNL     1      -1.793  25.791   9.779  1.00  0.00     0.168 C
HETATM   12  O3  UNL     1      -0.966  26.865   9.973  1.00  0.00    -0.384 OA
ENDBRANCH   6   7
ENDBRANCH   4   6
ENDBRANCH   1   2
BRANCH   1  13
HETATM   13  N1  UNL     1       1.151  27.706   4.435  1.00  0.00    -0.338 N
HETATM   14  C3  UNL     1       0.030  27.766   3.598  1.00  0.00     0.224 C
HETATM   15  O2  UNL     1      -1.010  28.439   3.940  1.00  0.00    -0.273 OA
BRANCH  14  16
HETATM   16  C4  UNL     1      -0.076  27.101   2.302  1.00  0.00     0.078 A
HETATM   17  C5  UNL     1      -0.916  27.699   1.224  1.00  0.00     0.015 A
HETATM   18  C6  UNL     1       0.583  27.725   1.097  1.00  0.00     0.015 A
ENDBRANCH  14  16
BRANCH  13  19
HETATM   19  C7  UNL     1       2.368  27.020   4.180  1.00  0.00     0.087 C
HETATM   20  C8  UNL     1       3.415  27.878   3.469  1.00  0.00     0.025 C
HETATM   21  C9  UNL     1       4.819  27.533   3.887  1.00  0.00     0.002 C
HETATM   22  C10 UNL     1       4.960  26.034   3.816  1.00  0.00     0.000 C
HETATM   23  C11 UNL     1       4.011  25.305   4.702  1.00  0.00     0.002 C
HETATM   24  C12 UNL     1       2.957  26.248   5.323  1.00  0.00     0.025 C
ENDBRANCH  13  19
ENDBRANCH   1  13
TORSDOF 6
ENDMDL