MODEL 5
REMARK VINA RESULT: -6.128439767      4.489      8.147
REMARK  6 active torsions:
REMARK  status: ('A' for Active; 'I' for Inactive)
REMARK    1  A    between atoms: C2_2  and  N1_4
REMARK       I    between atoms: N1_4  and  C5_6
REMARK    2  A    between atoms: C5_6  and  C6_8
REMARK    3  A    between atoms: C6_8  and  O2_9
REMARK    4  A    between atoms: O2_9  and  C7_10
REMARK    5  A    between atoms: C15_18  and  C16_19
REMARK    6  A    between atoms: C16_19  and  C17_20
ROOT
HETATM    1  C7  UNL     1      -0.302  25.855   8.377  1.00  0.00     0.135 C
HETATM    2  C8  UNL     1       0.552  24.904   9.239  1.00  0.00     0.016 C
HETATM    3  C9  UNL     1      -0.357  23.963   9.981  1.00  0.00     0.012 C
HETATM    4  C10 UNL     1      -1.168  24.778  10.974  1.00  0.00    -0.013 C
HETATM    5  C11 UNL     1      -0.261  25.520  11.907  1.00  0.00     0.009 C
HETATM    6  C12 UNL     1       0.580  26.488  11.116  1.00  0.00    -0.013 C
HETATM    7  C13 UNL     1       1.438  25.655  10.178  1.00  0.00     0.012 C
HETATM    8  C14 UNL     1      -0.294  27.401  10.336  1.00  0.00     0.017 C
HETATM    9  C15 UNL     1      -1.161  26.625   9.318  1.00  0.00    -0.004 C
HETATM   10  C18 UNL     1      -2.015  25.715  10.164  1.00  0.00     0.017 C
ENDROOT
BRANCH   1  11
HETATM   11  O2  UNL     1       0.550  26.656   7.625  1.00  0.00    -0.376 OA
BRANCH  11  12
HETATM   12  C6  UNL     1       0.369  26.405   6.278  1.00  0.00     0.271 C
BRANCH  12  13
HETATM   13  C5  UNL     1       1.079  27.355   5.387  1.00  0.00     0.243 C
HETATM   14  N1  UNL     1       2.400  27.206   4.949  1.00  0.00    -0.351 N
HETATM   15  C4  UNL     1       3.236  26.087   5.328  1.00  0.00     0.153 C
HETATM   16  O1  UNL     1       0.420  28.382   4.997  1.00  0.00    -0.271 OA
BRANCH  14  17
HETATM   17  C2  UNL     1       3.003  28.210   4.066  1.00  0.00     0.078 C
HETATM   18  C1  UNL     1       3.433  29.425   4.843  1.00  0.00     0.032 C
HETATM   19  C3  UNL     1       4.189  27.663   3.332  1.00  0.00     0.032 C
ENDBRANCH  14  17
ENDBRANCH  12  13
ENDBRANCH  11  12
ENDBRANCH   1  11
BRANCH   9  20
HETATM   20  C16 UNL     1      -2.054  27.650   8.709  1.00  0.00     0.125 C
BRANCH  20  21
HETATM   21  C17 UNL     1      -3.328  27.890   9.404  1.00  0.00     0.173 C
HETATM   22  O3  UNL     1      -3.507  28.665  10.378  1.00  0.00    -0.648 OA
HETATM   23  O4  UNL     1      -4.497  27.217   8.985  1.00  0.00    -0.648 OA
ENDBRANCH  20  21
ENDBRANCH   9  20
TORSDOF 6
ENDMDL