MODEL 1
REMARK VINA RESULT: -6.101456922      0.000      0.000
REMARK  6 active torsions:
REMARK  status: ('A' for Active; 'I' for Inactive)
REMARK    1  A    between atoms: C4_4  and  C5_5
REMARK    2  A    between atoms: C8_12  and  C9_13
REMARK    3  A    between atoms: C9_13  and  C10_14
REMARK       I    between atoms: C10_14  and  N3_16
REMARK    4  A    between atoms: N3_16  and  C12_18
REMARK    5  A    between atoms: C12_18  and  C13_19
REMARK    6  A    between atoms: C13_19  and  N4_20
ROOT
HETATM    1  C1  UNL     1       0.022  27.673   0.198  1.00  0.00     0.049 C
HETATM    2  C2  UNL     1       0.399  27.719   1.616  1.00  0.00    -0.055 A
HETATM    3  C3  UNL     1       1.691  27.433   1.981  1.00  0.00     0.020 A
HETATM    4  C4  UNL     1       2.113  27.460   3.332  1.00  0.00    -0.015 A
HETATM    5  C8  UNL     1       1.201  27.780   4.273  1.00  0.00    -0.032 A
HETATM    6  C16 UNL     1      -0.142  28.080   3.930  1.00  0.00    -0.048 A
HETATM    7  C17 UNL     1      -1.105  28.425   5.017  1.00  0.00     0.049 C
HETATM    8  C18 UNL     1      -0.505  28.040   2.600  1.00  0.00    -0.050 A
HETATM    9  C19 UNL     1      -1.933  28.360   2.245  1.00  0.00     0.049 C
ENDROOT
BRANCH   5  10
HETATM   10  C9  UNL     1       1.540  27.875   5.700  1.00  0.00     0.142 C
BRANCH  10  11
HETATM   11  C10 UNL     1       1.312  26.577   6.384  1.00  0.00     0.223 C
HETATM   12  O1  UNL     1       1.955  25.543   6.043  1.00  0.00    -0.273 OA
HETATM   13  N3  UNL     1       0.376  26.430   7.438  1.00  0.00    -0.355 N
HETATM   14  C11 UNL     1       0.191  25.137   8.063  1.00  0.00     0.152 C
BRANCH  13  15
HETATM   15  C12 UNL     1      -0.425  27.524   7.947  1.00  0.00     0.155 C
BRANCH  15  16
HETATM   16  C13 UNL     1      -0.737  27.279   9.411  1.00  0.00     0.291 C
BRANCH  16  17
HETATM   17  N4  UNL     1       0.044  28.214  10.229  1.00  0.00     0.081 N
HETATM   18  C14 UNL     1      -0.780  28.889  11.188  1.00  0.00     0.309 C
HETATM   19  C15 UNL     1       1.028  27.418  10.956  1.00  0.00     0.309 C
ENDBRANCH  16  17
ENDBRANCH  15  16
ENDBRANCH  13  15
ENDBRANCH  10  11
ENDBRANCH   5  10
BRANCH   4  20
HETATM   20  C5  UNL     1       3.484  27.114   3.642  1.00  0.00     0.008 A
HETATM   21  C6  UNL     1       4.413  28.160   3.853  1.00  0.00     0.120 A
HETATM   22  N1  UNL     1       5.562  27.561   4.151  1.00  0.00    -0.311 N
HETATM   23  N2  UNL     1       5.442  26.255   4.146  1.00  0.00    -0.311 N
ATOM     24  H1  UNL     1       6.430  28.056   4.357  1.00  0.00     0.186 HD
HETATM   25  C7  UNL     1       4.175  25.976   3.837  1.00  0.00     0.120 A
ATOM     26  H2  UNL     1       6.180  25.579   4.342  1.00  0.00     0.186 HD
ENDBRANCH   4  20
TORSDOF 6
ENDMDL