MODEL 1
REMARK VINA RESULT: -6.637729930      0.000      0.000
REMARK  6 active torsions:
REMARK  status: ('A' for Active; 'I' for Inactive)
REMARK    1  A    between atoms: C6_6  and  S1_7
REMARK    2  A    between atoms: S1_7  and  N1_10
REMARK    3  A    between atoms: N1_10  and  C7_11
REMARK    4  A    between atoms: N1_10  and  C9_15
REMARK    5  A    between atoms: C7_11  and  C8_12
REMARK    6  A    between atoms: C9_15  and  C11_17
ROOT
HETATM    1  S1  UNL     1       8.062  26.505   5.165  1.00  0.00     0.265 S
HETATM    2  O1  UNL     1       8.223  25.022   4.996  1.00  0.00    -0.200 OA
HETATM    3  O2  UNL     1       8.052  26.712   6.668  1.00  0.00    -0.200 OA
ENDROOT
BRANCH   1   4
HETATM    4  C6  UNL     1       9.558  27.246   4.641  1.00  0.00     0.086 A
HETATM    5  C4  UNL     1      10.122  28.334   5.256  1.00  0.00    -0.038 A
HETATM    6  C3  UNL     1      11.316  28.895   4.795  1.00  0.00     0.015 A
HETATM    7  C5  UNL     1       9.518  28.968   6.429  1.00  0.00     0.050 C
HETATM    8  C2  UNL     1      11.971  28.382   3.712  1.00  0.00    -0.056 A
HETATM    9  C1  UNL     1      13.254  28.982   3.214  1.00  0.00     0.049 C
HETATM   10  C15 UNL     1      11.415  27.291   3.086  1.00  0.00    -0.055 A
HETATM   11  C14 UNL     1      10.255  26.756   3.544  1.00  0.00     0.033 A
HETATM   12  C16 UNL     1      12.125  26.732   1.909  1.00  0.00     0.049 C
ENDBRANCH   1   4
BRANCH   1  13
HETATM   13  N1  UNL     1       6.783  27.221   4.372  1.00  0.00    -0.271 N
BRANCH  13  14
HETATM   14  C7  UNL     1       6.961  27.175   2.988  1.00  0.00     0.188 C
BRANCH  14  15
HETATM   15  C8  UNL     1       7.005  25.943   2.235  1.00  0.00     0.215 C
HETATM   16  O3  UNL     1       5.867  25.327   2.134  1.00  0.00    -0.643 OA
HETATM   17  O4  UNL     1       8.016  25.298   1.603  1.00  0.00    -0.643 OA
ENDBRANCH  14  15
ENDBRANCH  13  14
BRANCH  13  18
HETATM   18  C9  UNL     1       5.505  27.244   4.856  1.00  0.00     0.100 C
HETATM   19  C10 UNL     1       5.005  25.852   5.160  1.00  0.00     0.034 C
BRANCH  18  20
HETATM   20  C11 UNL     1       4.380  27.908   4.113  1.00  0.00     0.001 C
HETATM   21  C12 UNL     1       3.950  29.234   4.649  1.00  0.00     0.011 C
HETATM   22  C13 UNL     1       3.268  27.027   3.655  1.00  0.00     0.011 C
ENDBRANCH  18  20
ENDBRANCH  13  18
ENDBRANCH   1  13
TORSDOF 6
ENDMDL