MODEL 4
REMARK VINA RESULT: -4.498109810      2.056      3.596
REMARK  7 active torsions:
REMARK  status: ('A' for Active; 'I' for Inactive)
REMARK    1  A    between atoms: S1_2  and  N1_5
REMARK    2  A    between atoms: N1_5  and  C2_6
REMARK    3  A    between atoms: N1_5  and  C6_12
REMARK    4  A    between atoms: C2_6  and  C3_7
REMARK    5  A    between atoms: C3_7  and  C4_8
REMARK    6  A    between atoms: C4_8  and  C5_9
REMARK    7  A    between atoms: C5_9  and  O3_10
ROOT
HETATM    1  C6  UNL     1      -0.957  26.296  10.181  1.00  0.00     0.009 C
HETATM    2  C7  UNL     1      -1.365  25.253   9.148  1.00  0.00     0.054 C
HETATM    3  C8  UNL     1      -0.302  24.600   8.382  1.00  0.00     0.006 C
HETATM    4  C9  UNL     1       0.026  23.262   9.070  1.00  0.00     0.000 C
HETATM    5  C10 UNL     1       1.007  23.711  10.154  1.00  0.00     0.001 C
HETATM    6  C11 UNL     1       0.338  24.547  11.197  1.00  0.00     0.016 C
HETATM    7  C12 UNL     1       0.289  26.040  10.877  1.00  0.00     0.006 C
HETATM    8  C13 UNL     1       1.609  26.556  10.517  1.00  0.00     0.001 C
HETATM    9  C14 UNL     1       2.525  26.019  11.618  1.00  0.00     0.006 C
HETATM   10  C15 UNL     1       1.677  26.345  12.831  1.00  0.00     0.006 C
HETATM   11  C16 UNL     1       0.480  26.914  12.110  1.00  0.00     0.001 C
HETATM   12  C17 UNL     1       1.273  27.866  11.202  1.00  0.00     0.011 C
ENDROOT
BRANCH   1  13
HETATM   13  N1  UNL     1      -1.384  27.546   9.721  1.00  0.00    -0.283 N
BRANCH  13  14
HETATM   14  S1  UNL     1      -2.527  28.371  10.725  1.00  0.00     0.228 S
HETATM   15  C1  UNL     1      -3.842  29.076   9.704  1.00  0.00     0.186 C
HETATM   16  O1  UNL     1      -1.931  29.532  11.458  1.00  0.00    -0.206 OA
HETATM   17  O2  UNL     1      -3.242  27.439  11.652  1.00  0.00    -0.206 OA
ENDBRANCH  13  14
BRANCH  13  18
HETATM   18  C2  UNL     1      -1.712  27.708   8.329  1.00  0.00     0.141 C
BRANCH  18  19
HETATM   19  C3  UNL     1      -0.597  28.407   7.593  1.00  0.00     0.023 C
BRANCH  19  20
HETATM   20  C4  UNL     1      -0.007  27.623   6.462  1.00  0.00     0.028 C
BRANCH  20  21
HETATM   21  C5  UNL     1      -0.244  28.109   5.089  1.00  0.00     0.164 C
BRANCH  21  22
HETATM   22  O3  UNL     1      -1.330  28.948   4.999  1.00  0.00    -0.401 OA
ATOM     23  H3  UNL     1      -1.120  29.783   4.597  1.00  0.00     0.209 HD
ENDBRANCH  21  22
ENDBRANCH  20  21
ENDBRANCH  19  20
ENDBRANCH  18  19
ENDBRANCH  13  18
ENDBRANCH   1  13
TORSDOF 7
ENDMDL