MODEL 5
REMARK VINA RESULT: -6.478823710      2.200      7.212
REMARK  7 active torsions:
REMARK  status: ('A' for Active; 'I' for Inactive)
REMARK    1  A    between atoms: C2_2  and  C3_3
REMARK    2  A    between atoms: C3_3  and  C4_4
REMARK    3  A    between atoms: C4_4  and  C5_6
REMARK    4  A    between atoms: C5_6  and  N1_7
REMARK    5  A    between atoms: C5_6  and  C16_20
REMARK       I    between atoms: N1_7  and  C6_9
REMARK    6  A    between atoms: C6_9  and  C7_11
REMARK    7  A    between atoms: C12_16  and  C13_17
ROOT
HETATM    1  N1  UNL     1      -0.187  27.587   7.316  1.00  0.00    -0.347 N
ATOM      2  H1  UNL     1      -0.121  28.600   7.420  1.00  0.00     0.163 HD
HETATM    3  C6  UNL     1       0.131  27.022   6.057  1.00  0.00     0.227 C
HETATM    4  O2  UNL     1       0.043  25.769   5.954  1.00  0.00    -0.273 OA
ENDROOT
BRANCH   1   5
HETATM    5  C5  UNL     1      -0.597  26.811   8.457  1.00  0.00     0.187 C
BRANCH   5   6
HETATM    6  C4  UNL     1       0.518  26.195   9.179  1.00  0.00     0.154 C
HETATM    7  O1  UNL     1       1.264  26.980   9.794  1.00  0.00    -0.295 OA
BRANCH   6   8
HETATM    8  C3  UNL     1       0.865  24.774   9.264  1.00  0.00     0.107 C
BRANCH   8   9
HETATM    9  C2  UNL     1      -0.302  23.881   9.063  1.00  0.00    -0.029 C
HETATM   10  C1  UNL     1      -0.208  22.842   8.245  1.00  0.00     0.007 C
ENDBRANCH   8   9
ENDBRANCH   6   8
ENDBRANCH   5   6
BRANCH   5  11
HETATM   11  C16 UNL     1      -1.320  27.739   9.409  1.00  0.00     0.255 C
HETATM   12  C17 UNL     1      -2.616  28.277   8.829  1.00  0.00     0.073 C
HETATM   13  C18 UNL     1      -3.349  27.167   9.553  1.00  0.00     0.221 C
HETATM   14  C19 UNL     1      -4.564  27.702  10.246  1.00  0.00     0.043 C
HETATM   15  N2  UNL     1      -2.163  27.043  10.396  1.00  0.00     0.095 N
HETATM   16  C20 UNL     1      -2.339  27.884  11.577  1.00  0.00     0.310 C
ENDBRANCH   5  11
ENDBRANCH   1   5
BRANCH   3  17
HETATM   17  C7  UNL     1       0.547  27.792   4.884  1.00  0.00     0.046 C
HETATM   18  C8  UNL     1      -0.493  28.353   3.995  1.00  0.00     0.020 C
HETATM   19  C9  UNL     1      -0.239  27.822   2.639  1.00  0.00     0.002 C
HETATM   20  C10 UNL     1       1.264  27.601   2.605  1.00  0.00     0.006 C
HETATM   21  C11 UNL     1       1.537  27.074   3.971  1.00  0.00     0.011 C
HETATM   22  C12 UNL     1       2.668  27.614   4.770  1.00  0.00     0.014 C
HETATM   23  C15 UNL     1       1.714  28.780   5.143  1.00  0.00     0.028 C
BRANCH  22  24
HETATM   24  C13 UNL     1       3.856  28.158   4.141  1.00  0.00    -0.032 C
HETATM   25  C14 UNL     1       5.018  27.569   4.136  1.00  0.00     0.007 C
ENDBRANCH  22  24
ENDBRANCH   3  17
TORSDOF 7
ENDMDL