MODEL 4
REMARK VINA RESULT: -7.732502092      4.397      8.897
REMARK  8 active torsions:
REMARK  status: ('A' for Active; 'I' for Inactive)
REMARK    1  A    between atoms: O1_2  and  C2_3
REMARK    2  A    between atoms: C2_3  and  N1_5
REMARK       I    between atoms: N1_5  and  C4_7
REMARK    3  A    between atoms: C4_7  and  C5_9
REMARK    4  A    between atoms: C5_9  and  N2_10
REMARK    5  A    between atoms: N2_10  and  C6_11
REMARK    6  A    between atoms: N2_10  and  C17_24
REMARK    7  A    between atoms: C6_11  and  O3_12
REMARK    8  A    between atoms: C6_11  and  C7_14
ROOT
HETATM    1  N2  UNL     1       9.238  27.590   3.845  1.00  0.00    -0.330 N
ENDROOT
BRANCH   1   2
HETATM    2  C5  UNL     1       9.587  27.890   2.426  1.00  0.00     0.233 C
BRANCH   2   3
HETATM    3  C4  UNL     1      10.850  27.288   2.013  1.00  0.00     0.237 C
HETATM    4  N1  UNL     1      12.013  28.106   2.031  1.00  0.00    -0.334 N
ATOM      5  H1  UNL     1      11.922  29.077   2.330  1.00  0.00     0.165 HD
HETATM    6  O2  UNL     1      11.027  26.102   1.637  1.00  0.00    -0.272 OA
BRANCH   4   7
HETATM    7  C2  UNL     1      13.330  27.617   1.641  1.00  0.00     0.218 C
HETATM    8  C3  UNL     1      14.426  28.261   2.483  1.00  0.00     0.063 C
BRANCH   7   9
HETATM    9  O1  UNL     1      13.594  27.974   0.318  1.00  0.00    -0.372 OA
HETATM   10  C1  UNL     1      14.791  28.676   0.303  1.00  0.00     0.204 C
ENDBRANCH   7   9
ENDBRANCH   4   7
ENDBRANCH   2   3
ENDBRANCH   1   2
BRANCH   1  11
HETATM   11  C6  UNL     1       8.277  26.630   4.048  1.00  0.00     0.127 C
BRANCH  11  12
HETATM   12  O3  UNL     1       8.821  25.512   4.564  1.00  0.00    -0.349 OA
ATOM     13  H3  UNL     1       8.703  25.483   5.506  1.00  0.00     0.219 HD
ENDBRANCH  11  12
BRANCH  11  14
HETATM   14  C7  UNL     1       6.854  26.443   3.888  1.00  0.00     0.026 C
HETATM   15  C8  UNL     1       6.322  25.697   5.145  1.00  0.00     0.022 C
HETATM   16  C9  UNL     1       4.852  25.634   5.218  1.00  0.00    -0.013 C
HETATM   17  C10 UNL     1       4.241  24.995   3.975  1.00  0.00     0.009 C
HETATM   18  C14 UNL     1       4.279  27.014   5.342  1.00  0.00     0.009 C
HETATM   19  C11 UNL     1       4.744  25.777   2.812  1.00  0.00    -0.013 C
HETATM   20  C12 UNL     1       4.206  27.185   2.861  1.00  0.00     0.009 C
HETATM   21  C16 UNL     1       6.277  25.789   2.723  1.00  0.00     0.022 C
HETATM   22  C13 UNL     1       4.738  27.806   4.137  1.00  0.00    -0.013 C
HETATM   23  C15 UNL     1       6.234  27.853   4.025  1.00  0.00     0.022 C
ENDBRANCH  11  14
ENDBRANCH   1  11
BRANCH   1  24
HETATM   24  C17 UNL     1       9.941  28.351   4.807  1.00  0.00    -0.016 C
HETATM   25  C18 UNL     1       9.226  28.594   6.117  1.00  0.00     0.063 C
HETATM   26  C19 UNL     1      11.395  28.033   4.998  1.00  0.00     0.063 C
ENDBRANCH   1  24
TORSDOF 8
ENDMDL