MODEL 3
REMARK VINA RESULT: -7.111289398      1.053      1.067
REMARK  7 active torsions:
REMARK  status: ('A' for Active; 'I' for Inactive)
REMARK    1  A    between atoms: C2_2  and  C3_3
REMARK    2  A    between atoms: C3_3  and  C4_4
REMARK    3  A    between atoms: C4_4  and  N1_5
REMARK    4  A    between atoms: N1_5  and  C5_7
REMARK    5  A    between atoms: C7_11  and  C8_12
REMARK    6  A    between atoms: C8_12  and  C9_13
REMARK    7  A    between atoms: C9_13  and  N3_14
REMARK       I    between atoms: N3_14  and  C10_16
ROOT
HETATM    1  C5  UNL     1       0.245  27.020   7.944  1.00  0.00     0.124 A
HETATM    2  N2  UNL     1       1.198  26.643   7.080  1.00  0.00    -0.339 N
ATOM      3  H2  UNL     1       2.008  26.128   7.424  1.00  0.00     0.167 HD
HETATM    4  C6  UNL     1       1.110  26.932   5.762  1.00  0.00     0.067 A
HETATM    5  C7  UNL     1       2.111  26.532   4.878  1.00  0.00    -0.027 A
HETATM    6  C12 UNL     1       1.960  26.858   3.547  1.00  0.00     0.017 A
HETATM    7  C13 UNL     1       0.876  27.553   3.054  1.00  0.00    -0.053 A
HETATM    8  C14 UNL     1       0.732  27.894   1.620  1.00  0.00     0.049 C
HETATM    9  C15 UNL     1      -0.114  27.948   3.927  1.00  0.00    -0.027 A
HETATM   10  C16 UNL     1      -1.292  28.692   3.460  1.00  0.00     0.051 C
HETATM   11  C17 UNL     1       0.027  27.625   5.282  1.00  0.00     0.066 A
HETATM   12  N4  UNL     1      -0.951  28.017   6.132  1.00  0.00    -0.355 N
ATOM     13  H4  UNL     1      -1.761  28.533   5.788  1.00  0.00     0.166 HD
HETATM   14  C18 UNL     1      -0.835  27.714   7.452  1.00  0.00     0.050 A
HETATM   15  C19 UNL     1      -1.928  28.162   8.351  1.00  0.00     0.072 C
ENDROOT
BRANCH   5  16
HETATM   16  C8  UNL     1       3.280  25.786   5.392  1.00  0.00     0.060 C
BRANCH  16  17
HETATM   17  C9  UNL     1       4.277  25.499   4.264  1.00  0.00     0.127 C
BRANCH  17  18
HETATM   18  N3  UNL     1       5.607  25.876   4.688  1.00  0.00    -0.361 N
HETATM   19  C10 UNL     1       6.133  27.131   4.320  1.00  0.00     0.213 C
HETATM   20  C11 UNL     1       7.488  27.550   4.733  1.00  0.00     0.117 C
HETATM   21  O1  UNL     1       5.432  27.906   3.627  1.00  0.00    -0.274 OA
ATOM     22  H3  UNL     1       6.164  25.234   5.252  1.00  0.00     0.162 HD
ENDBRANCH  17  18
ENDBRANCH  16  17
ENDBRANCH   5  16
BRANCH   1  23
HETATM   23  N1  UNL     1       0.355  26.731   9.191  1.00  0.00    -0.374 N
ATOM     24  H1  UNL     1       0.747  27.441   9.811  1.00  0.00     0.161 HD
BRANCH  23  25
HETATM   25  C4  UNL     1      -0.035  25.483   9.770  1.00  0.00     0.125 C
BRANCH  25  26
HETATM   26  C3  UNL     1       1.206  24.708  10.225  1.00  0.00     0.046 C
BRANCH  26  27
HETATM   27  C2  UNL     1       1.670  25.134  11.556  1.00  0.00    -0.035 C
HETATM   28  C1  UNL     1       2.805  25.833  11.703  1.00  0.00     0.007 C
ENDBRANCH  26  27
ENDBRANCH  25  26
ENDBRANCH  23  25
ENDBRANCH   1  23
TORSDOF 7
ENDMDL