MODEL 1
REMARK VINA RESULT: -10.851509973      0.000      0.000
REMARK  4 active torsions:
REMARK  status: ('A' for Active; 'I' for Inactive)
REMARK    1  A    between atoms: C4_6  and  C5_7
REMARK    2  A    between atoms: C8_10  and  C9_11
REMARK    3  A    between atoms: C9_11  and  C10_12
REMARK    4  A    between atoms: N2_17  and  C15_18
ROOT
HETATM    1  C5  UNL     1      27.123   9.129  -3.523  1.00  0.00    -0.025 A
HETATM    2  C6  UNL     1      26.600   8.198  -2.653  1.00  0.00     0.013 A
HETATM    3  C7  UNL     1      26.235   6.911  -3.072  1.00  0.00     0.008 A
HETATM    4  C8  UNL     1      26.391   6.530  -4.381  1.00  0.00    -0.052 A
HETATM    5  C18 UNL     1      26.922   7.479  -5.254  1.00  0.00     0.008 A
HETATM    6  C19 UNL     1      27.282   8.752  -4.838  1.00  0.00     0.013 A
ENDROOT
BRANCH   4   7
HETATM    7  C9  UNL     1      26.038   5.199  -4.937  1.00  0.00     0.096 C
BRANCH   7   8
HETATM    8  C10 UNL     1      26.953   4.119  -4.605  1.00  0.00     0.022 A
HETATM    9  C11 UNL     1      28.332   4.380  -4.642  1.00  0.00     0.026 A
HETATM   10  C12 UNL     1      29.278   3.426  -4.338  1.00  0.00     0.003 A
HETATM   11  C13 UNL     1      28.863   2.162  -3.983  1.00  0.00     0.018 A
HETATM   12  C14 UNL     1      27.513   1.921  -3.952  1.00  0.00     0.099 A
HETATM   13  N2  UNL     1      26.583   2.887  -4.258  1.00  0.00    -0.305 N
BRANCH  13  14
HETATM   14  C15 UNL     1      25.202   2.562  -4.191  1.00  0.00     0.170 A
HETATM   15  C16 UNL     1      24.551   1.671  -5.011  1.00  0.00     0.146 A
HETATM   16  N3  UNL     1      23.249   1.619  -4.658  1.00  0.00    -0.352 N
HETATM   17  C17 UNL     1      23.125   2.475  -3.631  1.00  0.00     0.235 A
ATOM     18  H3  UNL     1      22.516   1.049  -5.081  1.00  0.00     0.166 HD
HETATM   19  O1  UNL     1      24.290   3.020  -3.373  1.00  0.00    -0.287 OA
ENDBRANCH  13  14
ENDBRANCH   7   8
ENDBRANCH   4   7
BRANCH   1  20
HETATM   20  C4  UNL     1      27.481  10.449  -3.026  1.00  0.00    -0.011 A
HETATM   21  C3  UNL     1      28.109  11.392  -3.819  1.00  0.00     0.099 A
HETATM   22  N1  UNL     1      28.452  12.612  -3.396  1.00  0.00    -0.374 N
HETATM   23  C2  UNL     1      28.193  12.990  -2.133  1.00  0.00     0.087 A
ATOM     24  H1  UNL     1      28.913  13.259  -4.036  1.00  0.00     0.164 HD
HETATM   25  C1  UNL     1      27.562  12.090  -1.282  1.00  0.00     0.018 A
HETATM   26  C20 UNL     1      27.209  10.833  -1.720  1.00  0.00     0.015 A
ENDBRANCH   1  20
TORSDOF 4
ENDMDL