MODEL 2
REMARK VINA RESULT: -10.696801090      1.057      1.057
REMARK  3 active torsions:
REMARK  status: ('A' for Active; 'I' for Inactive)
REMARK    1  A    between atoms: S1_2  and  C1_3
REMARK    2  A    between atoms: S1_2  and  C14_16
REMARK    3  A    between atoms: C1_3  and  C2_4
ROOT
HETATM    1  C2  UNL     1      27.340  11.299  -3.478  1.00  0.00    -0.045 A
HETATM    2  C3  UNL     1      28.413  11.521  -4.333  1.00  0.00     0.008 A
HETATM    3  C4  UNL     1      28.922  10.443  -5.007  1.00  0.00     0.001 A
HETATM    4  C5  UNL     1      28.438   9.177  -4.883  1.00  0.00     0.012 A
HETATM    5  C6  UNL     1      27.369   8.970  -4.029  1.00  0.00    -0.025 A
HETATM    6  C7  UNL     1      26.833   7.638  -3.874  1.00  0.00    -0.026 A
HETATM    7  C8  UNL     1      26.257   7.202  -2.700  1.00  0.00     0.012 A
HETATM    8  C9  UNL     1      25.749   5.914  -2.566  1.00  0.00     0.001 A
HETATM    9  C10 UNL     1      25.814   5.046  -3.611  1.00  0.00     0.000 A
HETATM   10  C11 UNL     1      26.376   5.447  -4.781  1.00  0.00     0.001 A
HETATM   11  C12 UNL     1      26.886   6.731  -4.923  1.00  0.00     0.012 A
HETATM   12  C13 UNL     1      26.818  10.029  -3.326  1.00  0.00     0.020 A
ENDROOT
BRANCH   1  13
HETATM   13  C1  UNL     1      26.752  12.423  -2.721  1.00  0.00     0.154 C
BRANCH  13  14
HETATM   14  S1  UNL     1      27.613  12.934  -1.317  1.00  0.00     0.070 S
HETATM   15  O1  UNL     1      27.904  11.856  -0.135  1.00  0.00    -0.251 OA
BRANCH  14  16
HETATM   16  C14 UNL     1      28.612  14.311  -1.430  1.00  0.00     0.100 A
HETATM   17  C15 UNL     1      29.147  14.704  -2.642  1.00  0.00     0.039 A
HETATM   18  C16 UNL     1      29.952  15.819  -2.757  1.00  0.00     0.004 A
HETATM   19  C17 UNL     1      30.255  16.588  -1.654  1.00  0.00     0.017 A
HETATM   20  C18 UNL     1      29.707  16.177  -0.439  1.00  0.00     0.089 A
HETATM   21  N1  UNL     1      28.935  15.099  -0.359  1.00  0.00    -0.359 N
ATOM     22  H1  UNL     1      28.560  14.844   0.555  1.00  0.00     0.166 HD
ENDBRANCH  14  16
ENDBRANCH  13  14
ENDBRANCH   1  13
TORSDOF 3
ENDMDL