MODEL 1
REMARK VINA RESULT: -9.643086163      0.000      0.000
REMARK  5 active torsions:
REMARK  status: ('A' for Active; 'I' for Inactive)
REMARK    1  A    between atoms: C6_7  and  C7_8
REMARK    2  A    between atoms: C7_8  and  O1_9
REMARK    3  A    between atoms: C7_8  and  C8_11
REMARK    4  A    between atoms: C7_8  and  C14_18
REMARK    5  A    between atoms: C8_11  and  N2_12
ROOT
HETATM    1  N1  UNL     1      26.892   9.514  -1.913  1.00  0.00    -0.191 NA
HETATM    2  C1  UNL     1      26.693   8.737  -2.756  1.00  0.00     0.099 C
HETATM    3  C2  UNL     1      26.462   7.783  -3.815  1.00  0.00     0.045 A
HETATM    4  C3  UNL     1      25.998   8.183  -5.061  1.00  0.00     0.022 A
HETATM    5  C4  UNL     1      25.795   7.243  -6.029  1.00  0.00     0.002 A
HETATM    6  C5  UNL     1      26.053   5.898  -5.761  1.00  0.00     0.011 A
HETATM    7  C6  UNL     1      26.509   5.471  -4.547  1.00  0.00    -0.016 A
HETATM    8  C20 UNL     1      26.708   6.447  -3.581  1.00  0.00     0.033 A
ENDROOT
BRANCH   7   9
HETATM    9  C7  UNL     1      26.770   4.047  -4.307  1.00  0.00     0.128 C
BRANCH   9  10
HETATM   10  O1  UNL     1      27.563   3.603  -5.392  1.00  0.00    -0.378 OA
ATOM     11  H1  UNL     1      27.405   2.670  -5.471  1.00  0.00     0.211 HD
ENDBRANCH   9  10
BRANCH   9  12
HETATM   12  C8  UNL     1      27.576   3.862  -3.039  1.00  0.00     0.175 C
BRANCH  12  13
HETATM   13  N2  UNL     1      27.893   2.459  -2.809  1.00  0.00    -0.363 N
HETATM   14  C9  UNL     1      27.542   1.880  -1.631  1.00  0.00     0.090 A
HETATM   15  C10 UNL     1      27.800   0.571  -1.343  1.00  0.00     0.017 A
HETATM   16  C11 UNL     1      28.436  -0.214  -2.256  1.00  0.00     0.003 A
HETATM   17  C12 UNL     1      28.809   0.350  -3.473  1.00  0.00     0.017 A
HETATM   18  C13 UNL     1      28.519   1.679  -3.703  1.00  0.00     0.090 A
ENDBRANCH  12  13
ENDBRANCH   9  12
BRANCH   9  19
HETATM   19  C14 UNL     1      25.528   3.238  -4.327  1.00  0.00    -0.018 A
HETATM   20  C15 UNL     1      25.382   2.212  -5.233  1.00  0.00     0.010 A
HETATM   21  C16 UNL     1      24.249   1.430  -5.307  1.00  0.00     0.001 A
HETATM   22  C17 UNL     1      23.220   1.705  -4.419  1.00  0.00     0.000 A
HETATM   23  C18 UNL     1      23.313   2.720  -3.493  1.00  0.00     0.001 A
HETATM   24  C19 UNL     1      24.461   3.473  -3.456  1.00  0.00     0.010 A
ENDBRANCH   9  19
ENDBRANCH   7   9
TORSDOF 5
ENDMDL