MODEL 4
REMARK VINA RESULT: -7.449524911      2.510      4.271
REMARK  6 active torsions:
REMARK  status: ('A' for Active; 'I' for Inactive)
REMARK    1  A    between atoms: C2_2  and  N1_3
REMARK    2  A    between atoms: N1_3  and  C3_4
REMARK    3  A    between atoms: N1_3  and  C15_18
REMARK    4  A    between atoms: C3_4  and  C4_5
REMARK    5  A    between atoms: C4_5  and  N2_6
REMARK    6  A    between atoms: C7_9  and  C9_11
ROOT
HETATM    1  N2  UNL     1      27.899   4.197  -4.021  1.00  0.00    -0.347 N
HETATM    2  C5  UNL     1      26.633   3.790  -3.439  1.00  0.00     0.127 C
HETATM    3  C6  UNL     1      26.311   2.352  -3.770  1.00  0.00     0.030 C
HETATM    4  C7  UNL     1      27.500   1.451  -3.666  1.00  0.00    -0.028 C
HETATM    5  C8  UNL     1      28.044   1.390  -2.246  1.00  0.00     0.016 C
HETATM    6  C13 UNL     1      28.613   1.838  -4.573  1.00  0.00     0.112 C
HETATM    7  C14 UNL     1      28.864   3.296  -4.483  1.00  0.00     0.220 C
HETATM    8  O1  UNL     1      29.995   3.762  -4.835  1.00  0.00    -0.273 OA
ENDROOT
BRANCH   1   9
HETATM    9  C4  UNL     1      28.161   5.631  -4.126  1.00  0.00     0.170 C
BRANCH   9  10
HETATM   10  C3  UNL     1      26.955   6.431  -3.647  1.00  0.00     0.083 C
BRANCH  10  11
HETATM   11  N1  UNL     1      27.022   7.717  -4.219  1.00  0.00    -0.364 N
BRANCH  11  12
HETATM   12  C2  UNL     1      26.790   7.864  -5.596  1.00  0.00     0.059 C
HETATM   13  C1  UNL     1      25.639   7.040  -6.128  1.00  0.00     0.055 C
ENDBRANCH  11  12
BRANCH  11  14
HETATM   14  C15 UNL     1      26.977   8.848  -3.385  1.00  0.00     0.024 C
HETATM   15  C16 UNL     1      26.659  10.150  -4.064  1.00  0.00     0.038 C
HETATM   16  C17 UNL     1      26.016   8.627  -2.247  1.00  0.00     0.038 C
HETATM   17  C18 UNL     1      28.382   9.024  -2.785  1.00  0.00     0.038 C
ENDBRANCH  11  14
ENDBRANCH  10  11
ENDBRANCH   9  10
ENDBRANCH   1   9
BRANCH   4  18
HETATM   18  C9  UNL     1      26.994   0.042  -3.977  1.00  0.00    -0.044 C
HETATM   19  C10 UNL     1      25.570   0.152  -4.483  1.00  0.00     0.015 C
HETATM   20  C11 UNL     1      27.798  -0.619  -5.061  1.00  0.00     0.015 C
HETATM   21  C12 UNL     1      26.972  -0.819  -2.750  1.00  0.00     0.015 C
ENDBRANCH   4  18
TORSDOF 6
ENDMDL