MODEL 1
REMARK VINA RESULT: -10.130229386      0.000      0.000
REMARK  4 active torsions:
REMARK  status: ('A' for Active; 'I' for Inactive)
REMARK    1  A    between atoms: O1_2  and  C2_3
REMARK    2  A    between atoms: C5_6  and  C6_7
REMARK    3  A    between atoms: C7_8  and  C8_9
REMARK    4  A    between atoms: C19_21  and  O2_22
ROOT
HETATM    1  C6  UNL     1      26.214   5.595  -4.979  1.00  0.00     0.012 C
HETATM    2  C7  UNL     1      26.438   6.244  -3.871  1.00  0.00     0.013 C
ENDROOT
BRANCH   2   3
HETATM    3  C8  UNL     1      26.942   7.621  -3.899  1.00  0.00    -0.020 A
HETATM    4  C9  UNL     1      26.739   8.444  -2.781  1.00  0.00     0.026 A
HETATM    5  C10 UNL     1      27.175   9.745  -2.720  1.00  0.00    -0.009 A
HETATM    6  C11 UNL     1      26.967  10.547  -1.606  1.00  0.00     0.014 A
HETATM    7  C15 UNL     1      27.844  10.265  -3.805  1.00  0.00     0.044 A
HETATM    8  C12 UNL     1      27.407  11.853  -1.551  1.00  0.00     0.001 A
HETATM    9  C13 UNL     1      28.076  12.375  -2.637  1.00  0.00     0.002 A
HETATM   10  C14 UNL     1      28.287  11.579  -3.749  1.00  0.00     0.030 A
HETATM   11  N1  UNL     1      28.046   9.489  -4.882  1.00  0.00    -0.360 N
HETATM   12  C16 UNL     1      28.747  10.023  -6.029  1.00  0.00     0.156 C
HETATM   13  C17 UNL     1      27.610   8.191  -4.944  1.00  0.00     0.102 A
ENDBRANCH   2   3
BRANCH   1  14
HETATM   14  C5  UNL     1      25.716   4.235  -4.973  1.00  0.00    -0.033 A
HETATM   15  C4  UNL     1      24.574   3.972  -4.205  1.00  0.00     0.014 A
HETATM   16  C3  UNL     1      24.073   2.694  -4.176  1.00  0.00     0.040 A
HETATM   17  C2  UNL     1      24.678   1.673  -4.890  1.00  0.00     0.101 A
HETATM   18  C19 UNL     1      25.806   1.929  -5.651  1.00  0.00     0.102 A
HETATM   19  C18 UNL     1      26.316   3.221  -5.682  1.00  0.00     0.051 A
BRANCH  17  20
HETATM   20  O1  UNL     1      24.145   0.389  -4.839  1.00  0.00    -0.353 OA
HETATM   21  C1  UNL     1      23.027   0.087  -5.627  1.00  0.00     0.210 C
ENDBRANCH  17  20
BRANCH  18  22
HETATM   22  O2  UNL     1      26.380   0.878  -6.349  1.00  0.00    -0.353 OA
HETATM   23  C20 UNL     1      27.673   0.401  -6.075  1.00  0.00     0.210 C
ENDBRANCH  18  22
ENDBRANCH   1  14
TORSDOF 4
ENDMDL