MODEL 5
REMARK VINA RESULT: -7.053204376      2.996      9.742
REMARK  7 active torsions:
REMARK  status: ('A' for Active; 'I' for Inactive)
REMARK    1  A    between atoms: C3_3  and  S1_6
REMARK    2  A    between atoms: S1_6  and  C6_7
REMARK    3  A    between atoms: C6_7  and  C7_8
REMARK    4  A    between atoms: C8_9  and  C9_10
REMARK    5  A    between atoms: C9_10  and  C10_11
REMARK    6  A    between atoms: C12_14  and  C13_15
REMARK    7  A    between atoms: C13_15  and  N1_16
ROOT
HETATM    1  C1  UNL     1      23.547   2.776  -3.462  1.00  0.00     0.098 C
HETATM    2  C2  UNL     1      24.703   3.106  -3.706  1.00  0.00    -0.167 C
HETATM    3  C3  UNL     1      26.075   3.470  -4.028  1.00  0.00     0.052 C
HETATM    4  C4  UNL     1      27.002   2.560  -3.232  1.00  0.00     0.039 C
HETATM    5  C5  UNL     1      26.379   3.174  -5.496  1.00  0.00     0.039 C
ENDROOT
BRANCH   3   6
HETATM    6  S1  UNL     1      26.427   5.186  -3.675  1.00  0.00    -0.136 SA
BRANCH   6   7
HETATM    7  C6  UNL     1      26.188   6.243  -5.073  1.00  0.00     0.169 C
BRANCH   7   8
HETATM    8  C7  UNL     1      26.991   7.451  -5.007  1.00  0.00    -0.096 C
HETATM    9  C8  UNL     1      27.688   8.449  -4.971  1.00  0.00    -0.101 C
BRANCH   9  10
HETATM   10  C9  UNL     1      28.502   9.661  -4.926  1.00  0.00     0.133 C
BRANCH  10  11
HETATM   11  C10 UNL     1      28.065  10.470  -3.716  1.00  0.00    -0.040 A
HETATM   12  C11 UNL     1      27.872   9.807  -2.530  1.00  0.00     0.058 A
HETATM   13  S2  UNL     1      27.401  11.087  -1.480  1.00  0.00    -0.104 SA
HETATM   14  C12 UNL     1      27.465  12.395  -2.569  1.00  0.00     0.009 A
HETATM   15  C17 UNL     1      27.851  11.799  -3.716  1.00  0.00     0.024 A
BRANCH  14  16
HETATM   16  C13 UNL     1      27.143  13.771  -2.188  1.00  0.00     0.282 C
BRANCH  16  17
HETATM   17  N1  UNL     1      28.248  14.653  -2.021  1.00  0.00    -0.074 N
HETATM   18  C14 UNL     1      28.711  14.650  -0.669  1.00  0.00     0.272 C
HETATM   19  C15 UNL     1      28.003  15.986  -2.535  1.00  0.00     0.272 C
HETATM   20  C16 UNL     1      29.338  14.113  -2.850  1.00  0.00     0.272 C
ENDBRANCH  16  17
ENDBRANCH  14  16
ENDBRANCH  10  11
ENDBRANCH   9  10
ENDBRANCH   7   8
ENDBRANCH   6   7
ENDBRANCH   3   6
TORSDOF 7
ENDMDL