MODEL 5
REMARK VINA RESULT: -10.199661920      1.873      3.691
REMARK  4 active torsions:
REMARK  status: ('A' for Active; 'I' for Inactive)
REMARK    1  A    between atoms: O1_2  and  C2_3
REMARK    2  A    between atoms: C5_6  and  C6_7
REMARK    3  A    between atoms: C7_8  and  C8_9
REMARK    4  A    between atoms: C19_21  and  O2_22
ROOT
HETATM    1  C6  UNL     1      25.995   5.755  -5.115  1.00  0.00     0.014 C
HETATM    2  C7  UNL     1      26.710   6.328  -4.206  1.00  0.00     0.030 C
ENDROOT
BRANCH   2   3
HETATM    3  C8  UNL     1      27.115   7.705  -4.038  1.00  0.00     0.034 A
HETATM    4  C9  UNL     1      27.936   8.274  -5.042  1.00  0.00     0.030 A
HETATM    5  C10 UNL     1      28.386   9.560  -5.021  1.00  0.00     0.016 A
HETATM    6  C11 UNL     1      28.039  10.370  -3.973  1.00  0.00    -0.009 A
HETATM    7  C12 UNL     1      28.506  11.688  -3.914  1.00  0.00     0.014 A
HETATM    8  C16 UNL     1      27.239   9.839  -2.984  1.00  0.00     0.044 A
HETATM    9  C13 UNL     1      28.143  12.446  -2.829  1.00  0.00     0.001 A
HETATM   10  C14 UNL     1      27.347  11.936  -1.827  1.00  0.00     0.002 A
HETATM   11  C15 UNL     1      26.888  10.616  -1.901  1.00  0.00     0.030 A
HETATM   12  N1  UNL     1      26.802   8.536  -3.046  1.00  0.00    -0.351 N
HETATM   13  C17 UNL     1      25.831   8.144  -2.037  1.00  0.00     0.156 C
ENDBRANCH   2   3
BRANCH   1  14
HETATM   14  C5  UNL     1      25.739   4.305  -5.042  1.00  0.00    -0.033 A
HETATM   15  C4  UNL     1      26.624   3.368  -5.484  1.00  0.00     0.014 A
HETATM   16  C3  UNL     1      26.326   2.003  -5.392  1.00  0.00     0.040 A
HETATM   17  C2  UNL     1      25.148   1.579  -4.860  1.00  0.00     0.101 A
HETATM   18  C19 UNL     1      24.253   2.522  -4.413  1.00  0.00     0.102 A
HETATM   19  C18 UNL     1      24.536   3.868  -4.499  1.00  0.00     0.051 A
BRANCH  17  20
HETATM   20  O1  UNL     1      24.810   0.229  -4.748  1.00  0.00    -0.353 OA
HETATM   21  C1  UNL     1      24.663  -0.616  -5.856  1.00  0.00     0.210 C
ENDBRANCH  17  20
BRANCH  18  22
HETATM   22  O2  UNL     1      23.048   2.137  -3.867  1.00  0.00    -0.353 OA
HETATM   23  C20 UNL     1      21.929   1.748  -4.606  1.00  0.00     0.210 C
ENDBRANCH  18  22
ENDBRANCH   1  14
TORSDOF 4
ENDMDL