MODEL 4
REMARK VINA RESULT: -9.357921636      0.876      1.050
REMARK  4 active torsions:
REMARK  status: ('A' for Active; 'I' for Inactive)
REMARK    1  A    between atoms: O1_2  and  C2_3
REMARK    2  A    between atoms: C5_6  and  C6_7
REMARK    3  A    between atoms: C7_8  and  C8_9
REMARK    4  A    between atoms: C18_20  and  O2_21
ROOT
HETATM    1  C6  UNL     1      26.359   6.901  -3.759  1.00  0.00     0.015 C
HETATM    2  C7  UNL     1      26.144   5.924  -2.882  1.00  0.00     0.013 C
ENDROOT
BRANCH   2   3
HETATM    3  C8  UNL     1      25.920   4.562  -3.351  1.00  0.00    -0.022 A
HETATM    4  C9  UNL     1      24.672   4.004  -3.368  1.00  0.00     0.029 A
HETATM    5  C10 UNL     1      24.477   2.721  -3.812  1.00  0.00     0.091 A
HETATM    6  N1  UNL     1      25.469   1.943  -4.251  1.00  0.00    -0.360 N
HETATM    7  C11 UNL     1      25.202   0.603  -4.705  1.00  0.00     0.155 C
HETATM    8  C12 UNL     1      26.701   2.481  -4.239  1.00  0.00     0.044 A
HETATM    9  C13 UNL     1      27.736   1.695  -4.685  1.00  0.00     0.030 A
HETATM   10  C17 UNL     1      26.978   3.764  -3.806  1.00  0.00     0.001 A
HETATM   11  C14 UNL     1      29.023   2.187  -4.698  1.00  0.00     0.002 A
HETATM   12  C15 UNL     1      29.322   3.456  -4.275  1.00  0.00     0.001 A
HETATM   13  C16 UNL     1      28.259   4.253  -3.820  1.00  0.00     0.014 A
ENDBRANCH   2   3
BRANCH   1  14
HETATM   14  C5  UNL     1      26.588   8.290  -3.305  1.00  0.00    -0.003 A
HETATM   15  C4  UNL     1      25.982   8.800  -2.209  1.00  0.00     0.017 A
HETATM   16  C3  UNL     1      26.196  10.118  -1.771  1.00  0.00     0.038 A
HETATM   17  C2  UNL     1      27.064  10.870  -2.527  1.00  0.00     0.070 A
HETATM   18  C20 UNL     1      27.695  10.383  -3.646  1.00  0.00     0.074 A
HETATM   19  C18 UNL     1      27.459   9.093  -4.037  1.00  0.00     0.081 A
BRANCH  17  20
HETATM   20  O1  UNL     1      27.297  12.187  -2.119  1.00  0.00    -0.356 OA
HETATM   21  C1  UNL     1      28.444  12.886  -2.612  1.00  0.00     0.210 C
ENDBRANCH  17  20
BRANCH  19  22
HETATM   22  O2  UNL     1      28.073   8.534  -5.170  1.00  0.00    -0.355 OA
HETATM   23  C19 UNL     1      28.418   9.410  -6.226  1.00  0.00     0.210 C
ENDBRANCH  19  22
ENDBRANCH   1  14
TORSDOF 4
ENDMDL