MODEL 5
REMARK VINA RESULT: -10.202086133      1.943      3.716
REMARK  4 active torsions:
REMARK  status: ('A' for Active; 'I' for Inactive)
REMARK    1  A    between atoms: C4_6  and  C5_7
REMARK    2  A    between atoms: N2_12  and  C10_13
REMARK    3  A    between atoms: C10_13  and  C11_14
REMARK    4  A    between atoms: C11_14  and  C12_15
ROOT
HETATM    1  C5  UNL     1      25.559   1.668  -3.771  1.00  0.00     0.045 A
HETATM    2  C6  UNL     1      24.552   0.773  -4.196  1.00  0.00     0.030 A
HETATM    3  C7  UNL     1      23.352   1.280  -4.612  1.00  0.00     0.004 A
HETATM    4  C8  UNL     1      23.161   2.644  -4.605  1.00  0.00     0.017 A
HETATM    5  C9  UNL     1      24.141   3.504  -4.192  1.00  0.00     0.091 A
HETATM    6  N2  UNL     1      25.346   2.985  -3.775  1.00  0.00    -0.356 N
ENDROOT
BRANCH   6   7
HETATM    7  C10 UNL     1      26.379   3.895  -3.343  1.00  0.00     0.134 C
BRANCH   7   8
HETATM    8  C11 UNL     1      25.805   5.133  -2.776  1.00  0.00     0.077 C
BRANCH   8   9
HETATM    9  C12 UNL     1      26.459   6.403  -3.215  1.00  0.00     0.011 A
HETATM   10  C13 UNL     1      27.248   6.468  -4.353  1.00  0.00     0.026 A
HETATM   11  C14 UNL     1      27.843   7.650  -4.769  1.00  0.00     0.015 A
HETATM   12  C15 UNL     1      27.654   8.808  -4.041  1.00  0.00    -0.009 A
HETATM   13  C16 UNL     1      28.221  10.013  -4.411  1.00  0.00     0.013 A
HETATM   14  C20 UNL     1      26.863   8.718  -2.911  1.00  0.00     0.042 A
HETATM   15  C17 UNL     1      28.026  11.170  -3.673  1.00  0.00     0.001 A
HETATM   16  C18 UNL     1      27.242  11.090  -2.547  1.00  0.00     0.002 A
HETATM   17  C19 UNL     1      26.681   9.884  -2.190  1.00  0.00     0.030 A
HETATM   18  N3  UNL     1      26.297   7.548  -2.530  1.00  0.00    -0.359 N
ATOM     19  H3  UNL     1      25.722   7.536  -1.688  1.00  0.00     0.166 HD
ENDBRANCH   8   9
ENDBRANCH   7   8
ENDBRANCH   6   7
BRANCH   1  20
HETATM   20  C4  UNL     1      26.796   1.085  -3.296  1.00  0.00     0.006 A
HETATM   21  C3  UNL     1      27.809   0.722  -4.148  1.00  0.00     0.101 A
HETATM   22  N1  UNL     1      28.966   0.167  -3.706  1.00  0.00    -0.374 N
HETATM   23  C2  UNL     1      29.198  -0.065  -2.402  1.00  0.00     0.087 A
ATOM     24  H1  UNL     1      29.684  -0.083  -4.386  1.00  0.00     0.164 HD
HETATM   25  C1  UNL     1      28.211   0.282  -1.502  1.00  0.00     0.018 A
HETATM   26  C21 UNL     1      27.016   0.854  -1.943  1.00  0.00     0.016 A
ENDBRANCH   1  20
TORSDOF 4
ENDMDL