MODEL 1
REMARK VINA RESULT: -12.438455194      0.000      0.000
REMARK  4 active torsions:
REMARK  status: ('A' for Active; 'I' for Inactive)
REMARK    1  A    between atoms: C3_4  and  C4_5
REMARK    2  A    between atoms: N2_8  and  C7_9
REMARK    3  A    between atoms: C7_9  and  C8_10
REMARK    4  A    between atoms: C12_14  and  C13_15
ROOT
HETATM    1  N1  UNL     1      28.672   2.831  -4.911  1.00  0.00    -0.192 NA
HETATM    2  C1  UNL     1      27.596   3.301  -5.005  1.00  0.00     0.087 C
HETATM    3  C2  UNL     1      26.286   3.813  -5.122  1.00  0.00     0.094 C
HETATM    4  C3  UNL     1      25.837   5.003  -5.102  1.00  0.00     0.024 C
ENDROOT
BRANCH   4   5
HETATM    5  C4  UNL     1      26.490   6.268  -4.955  1.00  0.00    -0.017 A
HETATM    6  C5  UNL     1      27.485   6.573  -4.066  1.00  0.00     0.031 A
HETATM    7  C6  UNL     1      28.007   7.863  -4.063  1.00  0.00     0.111 A
HETATM    8  N2  UNL     1      27.611   8.845  -4.868  1.00  0.00    -0.299 N
HETATM    9  N3  UNL     1      26.651   8.545  -5.722  1.00  0.00    -0.309 N
HETATM   10  C20 UNL     1      26.091   7.336  -5.798  1.00  0.00     0.118 A
ATOM     11  H3  UNL     1      26.321   9.273  -6.356  1.00  0.00     0.186 HD
BRANCH   8  12
HETATM   12  C7  UNL     1      28.172  10.180  -4.844  1.00  0.00     0.186 C
BRANCH  12  13
HETATM   13  C8  UNL     1      27.846  10.859  -3.547  1.00  0.00    -0.038 A
HETATM   14  C9  UNL     1      27.037  10.275  -2.608  1.00  0.00     0.009 A
HETATM   15  C10 UNL     1      26.764  10.933  -1.433  1.00  0.00     0.001 A
HETATM   16  C11 UNL     1      27.318  12.194  -1.211  1.00  0.00     0.012 A
HETATM   17  C12 UNL     1      28.132  12.792  -2.147  1.00  0.00    -0.025 A
HETATM   18  C19 UNL     1      28.387  12.111  -3.312  1.00  0.00     0.021 A
BRANCH  17  19
HETATM   19  C13 UNL     1      28.733  14.104  -1.964  1.00  0.00    -0.026 A
HETATM   20  C14 UNL     1      29.356  14.753  -3.001  1.00  0.00     0.012 A
HETATM   21  C15 UNL     1      29.942  16.005  -2.875  1.00  0.00     0.001 A
HETATM   22  C16 UNL     1      29.875  16.595  -1.626  1.00  0.00     0.000 A
HETATM   23  C17 UNL     1      29.261  15.990  -0.544  1.00  0.00     0.001 A
HETATM   24  C18 UNL     1      28.692  14.736  -0.736  1.00  0.00     0.012 A
ENDBRANCH  17  19
ENDBRANCH  12  13
ENDBRANCH   8  12
ENDBRANCH   4   5
TORSDOF 4
ENDMDL