MODEL 4
REMARK VINA RESULT: -6.927626087      5.814      8.396
REMARK  5 active torsions:
REMARK  status: ('A' for Active; 'I' for Inactive)
REMARK    1  A    between atoms: C6_7  and  C7_8
REMARK       I    between atoms: C7_8  and  N1_10
REMARK    2  A    between atoms: N1_10  and  C8_12
REMARK    3  A    between atoms: N2_19  and  C14_20
REMARK    4  A    between atoms: C14_20  and  C15_21
REMARK    5  A    between atoms: C15_21  and  N3_22
ROOT
HETATM    1  O1  UNL     1       5.842  -1.728   5.771  1.00  0.00    -0.273 OA
HETATM    2  C1  UNL     1       5.854  -2.800   5.117  1.00  0.00     0.225 C
HETATM    3  C2  UNL     1       4.711  -3.282   4.310  1.00  0.00     0.097 C
HETATM    4  C3  UNL     1       3.488  -3.249   5.211  1.00  0.00     0.015 C
HETATM    5  C4  UNL     1       3.666  -4.478   6.103  1.00  0.00     0.002 C
HETATM    6  C5  UNL     1       4.381  -5.465   5.221  1.00  0.00     0.022 C
HETATM    7  C6  UNL     1       5.043  -4.728   4.116  1.00  0.00     0.069 C
HETATM    8  C13 UNL     1       6.563  -4.815   4.182  1.00  0.00     0.146 C
HETATM    9  N2  UNL     1       6.940  -3.715   5.036  1.00  0.00    -0.349 N
ENDROOT
BRANCH   7  10
HETATM   10  C7  UNL     1       4.554  -5.162   2.780  1.00  0.00     0.229 C
HETATM   11  O2  UNL     1       3.633  -4.507   2.233  1.00  0.00    -0.273 OA
HETATM   12  N1  UNL     1       5.133  -6.300   2.150  1.00  0.00    -0.356 N
ATOM     13  H1  UNL     1       5.880  -6.811   2.619  1.00  0.00     0.162 HD
BRANCH  12  14
HETATM   14  C8  UNL     1       4.672  -6.739   0.851  1.00  0.00     0.088 C
HETATM   15  C9  UNL     1       4.702  -8.224   0.669  1.00  0.00     0.051 C
HETATM   16  C10 UNL     1       5.673  -8.563  -0.440  1.00  0.00     0.169 C
HETATM   17  O3  UNL     1       5.357  -7.960  -1.646  1.00  0.00    -0.391 OA
HETATM   18  C11 UNL     1       5.173  -6.605  -1.532  1.00  0.00     0.169 C
HETATM   19  C12 UNL     1       5.550  -6.069  -0.188  1.00  0.00     0.051 C
ENDBRANCH  12  14
ENDBRANCH   7  10
BRANCH   9  20
HETATM   20  C14 UNL     1       8.226  -3.593   5.699  1.00  0.00     0.156 C
BRANCH  20  21
HETATM   21  C15 UNL     1       9.285  -3.701   4.658  1.00  0.00     0.292 C
BRANCH  21  22
HETATM   22  N3  UNL     1      10.590  -4.083   5.139  1.00  0.00     0.090 N
HETATM   23  C16 UNL     1      11.557  -3.192   4.524  1.00  0.00     0.272 C
HETATM   24  C17 UNL     1      12.984  -3.577   4.840  1.00  0.00     0.030 C
HETATM   25  C18 UNL     1      12.980  -4.878   5.597  1.00  0.00     0.003 C
HETATM   26  C19 UNL     1      12.234  -5.882   4.731  1.00  0.00     0.030 C
HETATM   27  C20 UNL     1      10.822  -5.424   4.594  1.00  0.00     0.272 C
ENDBRANCH  21  22
ENDBRANCH  20  21
ENDBRANCH   9  20
TORSDOF 5
ENDMDL