MODEL 1
REMARK VINA RESULT: -6.429868815      0.000      0.000
REMARK  6 active torsions:
REMARK  status: ('A' for Active; 'I' for Inactive)
REMARK    1  A    between atoms: C2_2  and  C4_4
REMARK    2  A    between atoms: N1_9  and  C9_10
REMARK    3  A    between atoms: C9_10  and  C10_11
REMARK    4  A    between atoms: C10_11  and  O1_12
REMARK    5  A    between atoms: C10_11  and  C11_14
REMARK    6  A    between atoms: C11_14  and  N2_15
ROOT
HETATM    1  C4  UNL     1       7.435  -2.961   5.973  1.00  0.00     0.092 C
HETATM    2  C5  UNL     1       5.979  -2.906   5.750  1.00  0.00     0.037 C
HETATM    3  C6  UNL     1       5.367  -3.991   4.954  1.00  0.00    -0.008 C
HETATM    4  C7  UNL     1       6.272  -4.819   4.143  1.00  0.00     0.056 C
HETATM    5  C8  UNL     1       7.722  -4.431   4.116  1.00  0.00     0.064 C
HETATM    6  N1  UNL     1       8.168  -4.031   5.375  1.00  0.00    -0.366 N
HETATM    7  C17 UNL     1       4.193  -3.488   4.097  1.00  0.00     0.151 C
HETATM    8  S1  UNL     1       3.291  -4.986   4.392  1.00  0.00     0.146 S
HETATM    9  O2  UNL     1       1.870  -4.740   4.781  1.00  0.00    -0.228 OA
HETATM   10  O3  UNL     1       3.541  -6.086   3.438  1.00  0.00    -0.228 OA
HETATM   11  C18 UNL     1       4.413  -4.898   5.752  1.00  0.00     0.151 C
ENDROOT
BRANCH   6  12
HETATM   12  C9  UNL     1       9.547  -3.877   5.599  1.00  0.00     0.100 C
BRANCH  12  13
HETATM   13  C10 UNL     1      10.479  -4.521   4.562  1.00  0.00     0.195 C
BRANCH  13  14
HETATM   14  O1  UNL     1      11.542  -3.632   4.397  1.00  0.00    -0.385 OA
ATOM     15  H1  UNL     1      12.332  -4.161   4.415  1.00  0.00     0.210 HD
ENDBRANCH  13  14
BRANCH  13  16
HETATM   16  C11 UNL     1      11.075  -5.722   5.252  1.00  0.00     0.099 C
BRANCH  16  17
HETATM   17  N2  UNL     1      10.878  -6.969   4.674  1.00  0.00    -0.371 N
HETATM   18  C12 UNL     1       9.592  -7.530   4.902  1.00  0.00     0.127 C
HETATM   19  C13 UNL     1       9.185  -8.526   3.831  1.00  0.00     0.021 C
HETATM   20  C14 UNL     1      10.197  -9.648   3.921  1.00  0.00     0.007 C
HETATM   21  C15 UNL     1      11.535  -9.086   3.605  1.00  0.00     0.044 C
HETATM   22  C16 UNL     1      11.910  -7.822   4.318  1.00  0.00     0.063 C
ENDBRANCH  16  17
ENDBRANCH  13  16
ENDBRANCH  12  13
ENDBRANCH   6  12
BRANCH   1  23
HETATM   23  C2  UNL     1       7.827  -2.710   7.417  1.00  0.00     0.001 C
HETATM   24  C1  UNL     1       7.387  -1.294   7.837  1.00  0.00     0.011 C
HETATM   25  C3  UNL     1       7.141  -3.624   8.397  1.00  0.00     0.011 C
ENDBRANCH   1  23
TORSDOF 6
ENDMDL