MODEL 3
REMARK VINA RESULT: -6.098343950      0.851      1.030
REMARK  6 active torsions:
REMARK  status: ('A' for Active; 'I' for Inactive)
REMARK    1  A    between atoms: C1_2  and  C2_3
REMARK    2  A    between atoms: N1_5  and  C4_6
REMARK    3  A    between atoms: C4_6  and  C5_7
REMARK       I    between atoms: C5_7  and  N2_9
REMARK    4  A    between atoms: N2_9  and  C6_10
REMARK       I    between atoms: N3_17  and  C13_18
REMARK    5  A    between atoms: C13_18  and  O4_20
REMARK    6  A    between atoms: O4_20  and  C14_21
ROOT
HETATM    1  C2  UNL     1       6.282  -4.523   3.919  1.00  0.00     0.179 C
HETATM    2  C3  UNL     1       4.790  -4.196   3.674  1.00  0.00     0.305 C
HETATM    3  N1  UNL     1       4.075  -4.935   4.724  1.00  0.00     0.102 N
HETATM    4  C11 UNL     1       4.237  -4.310   5.995  1.00  0.00     0.293 C
HETATM    5  C12 UNL     1       5.505  -3.486   6.095  1.00  0.00     0.159 C
HETATM    6  N3  UNL     1       6.559  -3.923   5.207  1.00  0.00    -0.314 N
HETATM    7  C13 UNL     1       7.929  -3.741   5.619  1.00  0.00     0.363 C
HETATM    8  O3  UNL     1       8.294  -3.256   6.684  1.00  0.00    -0.238 OA
ENDROOT
BRANCH   3   9
HETATM    9  C4  UNL     1       2.713  -4.966   4.310  1.00  0.00     0.390 C
BRANCH   9  10
HETATM   10  C5  UNL     1       2.372  -6.085   3.352  1.00  0.00     0.315 C
HETATM   11  O2  UNL     1       1.925  -7.110   3.925  1.00  0.00    -0.256 OA
HETATM   12  N2  UNL     1       2.555  -5.956   2.013  1.00  0.00    -0.408 NA
BRANCH  12  13
HETATM   13  C6  UNL     1       2.740  -5.826   0.659  1.00  0.00     0.167 C
HETATM   14  C7  UNL     1       4.253  -5.975   0.254  1.00  0.00     0.039 C
HETATM   15  C8  UNL     1       3.994  -5.870  -1.263  1.00  0.00     0.003 C
HETATM   16  C9  UNL     1       3.177  -4.580  -1.315  1.00  0.00     0.003 C
HETATM   17  C10 UNL     1       2.538  -4.438   0.081  1.00  0.00     0.039 C
ENDBRANCH  12  13
ENDBRANCH   9  10
ENDBRANCH   3   9
BRANCH   1  18
HETATM   18  C1  UNL     1       6.475  -5.971   4.028  1.00  0.00     0.258 C
HETATM   19  O1  UNL     1       6.216  -6.698   3.037  1.00  0.00    -0.305 OA
ENDBRANCH   1  18
BRANCH   7  20
HETATM   20  O4  UNL     1       8.920  -4.159   4.706  1.00  0.00    -0.298 OA
BRANCH  20  21
HETATM   21  C14 UNL     1      10.072  -4.801   5.261  1.00  0.00     0.133 C
HETATM   22  C15 UNL     1      10.151  -6.187   4.655  1.00  0.00     0.032 C
HETATM   23  C16 UNL     1      11.613  -6.557   4.739  1.00  0.00     0.002 C
HETATM   24  C17 UNL     1      12.381  -5.269   4.788  1.00  0.00     0.002 C
HETATM   25  C18 UNL     1      11.339  -4.164   4.763  1.00  0.00     0.032 C
ENDBRANCH  20  21
ENDBRANCH   7  20
TORSDOF 6
ENDMDL