MODEL 2
REMARK VINA RESULT: -5.099276021      1.261      5.709
REMARK  4 active torsions:
REMARK  status: ('A' for Active; 'I' for Inactive)
REMARK    1  A    between atoms: C2_2  and  C3_3
REMARK    2  A    between atoms: C3_3  and  C4_4
REMARK    3  A    between atoms: C4_4  and  C5_5
REMARK    4  A    between atoms: N1_7  and  C7_8
ROOT
HETATM    1  C5  UNL     1       7.659  -4.244   4.223  1.00  0.00     0.107 C
HETATM    2  C6  UNL     1       6.661  -5.360   4.370  1.00  0.00     0.133 C
HETATM    3  N1  UNL     1       5.398  -5.105   3.778  1.00  0.00    -0.203 NA
HETATM    4  S1  UNL     1       4.208  -4.504   4.833  1.00  0.00     0.227 S
HETATM    5  O1  UNL     1       2.899  -4.447   4.058  1.00  0.00    -0.210 OA
HETATM    6  O2  UNL     1       3.952  -5.408   6.005  1.00  0.00    -0.210 OA
HETATM    7  C13 UNL     1       4.523  -2.891   5.443  1.00  0.00     0.320 C
HETATM    8  S2  UNL     1       6.244  -2.797   5.925  1.00  0.00     0.241 S
HETATM    9  O3  UNL     1       6.467  -1.398   6.484  1.00  0.00    -0.205 OA
HETATM   10  O4  UNL     1       6.567  -3.752   7.009  1.00  0.00    -0.205 OA
HETATM   11  N2  UNL     1       7.181  -2.951   4.524  1.00  0.00    -0.313 N
ATOM     12  H2  UNL     1       7.390  -2.151   3.928  1.00  0.00     0.172 HD
ENDROOT
BRANCH   3  13
HETATM   13  C7  UNL     1       4.887  -6.109   2.915  1.00  0.00     0.074 C
HETATM   14  C8  UNL     1       5.434  -7.488   3.094  1.00  0.00     0.021 C
HETATM   15  C9  UNL     1       4.485  -8.462   2.421  1.00  0.00     0.002 C
HETATM   16  C10 UNL     1       3.682  -7.831   1.327  1.00  0.00     0.000 C
HETATM   17  C11 UNL     1       4.611  -6.873   0.577  1.00  0.00     0.002 C
HETATM   18  C12 UNL     1       4.955  -5.679   1.443  1.00  0.00     0.021 C
ENDBRANCH   3  13
BRANCH   1  19
HETATM   19  C4  UNL     1       8.864  -4.573   5.045  1.00  0.00     0.027 C
BRANCH  19  20
HETATM   20  C3  UNL     1      10.023  -3.628   4.776  1.00  0.00     0.002 C
BRANCH  20  21
HETATM   21  C2  UNL     1      11.278  -4.513   4.751  1.00  0.00    -0.004 C
HETATM   22  C1  UNL     1      10.906  -5.958   4.729  1.00  0.00     0.005 C
ENDBRANCH  20  21
ENDBRANCH  19  20
ENDBRANCH   1  19
TORSDOF 4
ENDMDL