MODEL 1
REMARK VINA RESULT: -6.480783117      0.000      0.000
REMARK  5 active torsions:
REMARK  status: ('A' for Active; 'I' for Inactive)
REMARK    1  A    between atoms: C2_2  and  C3_3
REMARK       I    between atoms: C3_3  and  N1_5
REMARK    2  A    between atoms: N1_5  and  C4_7
REMARK    3  A    between atoms: N3_17  and  C13_18
REMARK    4  A    between atoms: C13_18  and  C14_19
REMARK    5  A    between atoms: C14_19  and  N4_20
ROOT
HETATM    1  C4  UNL     1       2.030  -2.791   2.521  1.00  0.00     0.122 C
HETATM    2  C5  UNL     1       1.047  -1.746   2.899  1.00  0.00     0.091 C
HETATM    3  N2  UNL     1       0.278  -0.927   3.176  1.00  0.00    -0.195 NA
HETATM    4  C6  UNL     1       1.271  -4.097   2.557  1.00  0.00     0.046 C
HETATM    5  C7  UNL     1       0.525  -4.376   1.278  1.00  0.00     0.004 C
HETATM    6  C8  UNL     1       1.636  -4.566   0.236  1.00  0.00     0.000 C
HETATM    7  C9  UNL     1       2.242  -3.210   0.028  1.00  0.00     0.004 C
HETATM    8  C10 UNL     1       2.722  -2.521   1.250  1.00  0.00     0.046 C
ENDROOT
BRANCH   1   9
HETATM    9  N1  UNL     1       3.008  -2.829   3.602  1.00  0.00    -0.338 N
HETATM   10  C3  UNL     1       4.055  -3.744   3.673  1.00  0.00     0.229 C
HETATM   11  O1  UNL     1       4.205  -4.604   2.780  1.00  0.00    -0.273 OA
ATOM     12  H1  UNL     1       2.919  -2.144   4.353  1.00  0.00     0.164 HD
BRANCH  10  13
HETATM   13  C2  UNL     1       5.007  -3.722   4.803  1.00  0.00     0.065 C
HETATM   14  C1  UNL     1       4.425  -4.477   5.988  1.00  0.00     0.027 C
HETATM   15  C11 UNL     1       5.230  -2.257   5.184  1.00  0.00     0.051 C
HETATM   16  C12 UNL     1       6.590  -2.415   5.898  1.00  0.00     0.273 C
HETATM   17  N3  UNL     1       7.345  -3.207   4.914  1.00  0.00     0.091 N
HETATM   18  C19 UNL     1       6.385  -4.199   4.461  1.00  0.00     0.291 C
BRANCH  17  19
HETATM   19  C13 UNL     1       8.453  -3.805   5.630  1.00  0.00     0.302 C
BRANCH  19  20
HETATM   20  C14 UNL     1       9.717  -3.578   4.822  1.00  0.00     0.302 C
BRANCH  20  21
HETATM   21  N4  UNL     1      10.793  -4.449   5.129  1.00  0.00     0.094 N
HETATM   22  C15 UNL     1      12.091  -4.013   4.661  1.00  0.00     0.298 C
HETATM   23  C16 UNL     1      13.095  -4.671   5.617  1.00  0.00     0.198 C
HETATM   24  O2  UNL     1      12.718  -5.989   5.824  1.00  0.00    -0.388 OA
HETATM   25  C17 UNL     1      11.955  -6.506   4.802  1.00  0.00     0.198 C
HETATM   26  C18 UNL     1      10.601  -5.808   4.669  1.00  0.00     0.298 C
ENDBRANCH  20  21
ENDBRANCH  19  20
ENDBRANCH  17  19
ENDBRANCH  10  13
ENDBRANCH   1   9
TORSDOF 5
ENDMDL