MODEL 1
REMARK VINA RESULT: -6.763812786      0.000      0.000
REMARK  5 active torsions:
REMARK  status: ('A' for Active; 'I' for Inactive)
REMARK    1  A    between atoms: C2_2  and  O1_3
REMARK    2  A    between atoms: O1_3  and  C3_4
REMARK       I    between atoms: C3_4  and  N1_6
REMARK    3  A    between atoms: C9_13  and  N2_14
REMARK       I    between atoms: N2_14  and  C10_16
REMARK    4  A    between atoms: C10_16  and  C11_18
REMARK    5  A    between atoms: C11_18  and  N3_19
ROOT
HETATM    1  C3  UNL     1      11.550 -11.777   4.432  1.00  0.00     0.364 C
HETATM    2  O2  UNL     1      10.456 -11.294   4.857  1.00  0.00    -0.238 OA
HETATM    3  N1  UNL     1      12.271 -11.182   3.371  1.00  0.00    -0.305 N
HETATM    4  C4  UNL     1      13.515 -11.679   2.820  1.00  0.00     0.136 C
HETATM    5  C5  UNL     1      14.087 -10.531   2.014  1.00  0.00     0.022 C
HETATM    6  C6  UNL     1      14.916 -11.000   0.861  1.00  0.00     0.017 C
HETATM    7  C7  UNL     1      14.107 -11.897  -0.014  1.00  0.00     0.075 C
HETATM    8  S1  UNL     1      12.396 -11.279   0.259  1.00  0.00    -0.160 SA
HETATM    9  C8  UNL     1      12.792  -9.957   1.443  1.00  0.00     0.095 C
HETATM   10  C9  UNL     1      11.899  -9.988   2.670  1.00  0.00     0.205 C
ENDROOT
BRANCH  10  11
HETATM   11  N2  UNL     1      12.387  -8.868   3.492  1.00  0.00    -0.337 N
HETATM   12  C10 UNL     1      11.519  -7.995   4.187  1.00  0.00     0.247 C
HETATM   13  O3  UNL     1      10.284  -8.185   4.094  1.00  0.00    -0.272 OA
ATOM     14  H2  UNL     1      13.392  -8.717   3.563  1.00  0.00     0.164 HD
BRANCH  12  15
HETATM   15  C11 UNL     1      12.028  -6.875   5.012  1.00  0.00     0.374 C
BRANCH  15  16
HETATM   16  N3  UNL     1      11.593  -5.583   4.606  1.00  0.00     0.097 N
HETATM   17  C12 UNL     1      12.513  -4.611   5.139  1.00  0.00     0.273 C
HETATM   18  C13 UNL     1      12.708  -3.394   4.301  1.00  0.00     0.030 C
HETATM   19  C14 UNL     1      11.529  -2.482   4.220  1.00  0.00     0.002 C
HETATM   20  C15 UNL     1      10.364  -2.912   5.086  1.00  0.00     0.002 C
HETATM   21  C16 UNL     1       9.679  -4.150   4.532  1.00  0.00     0.030 C
HETATM   22  C17 UNL     1      10.293  -5.339   5.218  1.00  0.00     0.273 C
ENDBRANCH  15  16
ENDBRANCH  12  15
ENDBRANCH  10  11
BRANCH   1  23
HETATM   23  O1  UNL     1      11.995 -12.929   5.082  1.00  0.00    -0.304 OA
BRANCH  23  24
HETATM   24  C2  UNL     1      11.837 -14.236   4.584  1.00  0.00     0.176 C
HETATM   25  C1  UNL     1      10.434 -14.725   4.512  1.00  0.00     0.034 C
ENDBRANCH  23  24
ENDBRANCH   1  23
TORSDOF 5
ENDMDL