MODEL 3
REMARK VINA RESULT: -6.524578056      1.326      1.573
REMARK  5 active torsions:
REMARK  status: ('A' for Active; 'I' for Inactive)
REMARK    1  A    between atoms: N1_2  and  C3_4
REMARK    2  A    between atoms: C3_4  and  C4_5
REMARK    3  A    between atoms: C6_7  and  N2_8
REMARK       I    between atoms: N3_14  and  C12_15
REMARK       I    between atoms: C12_15  and  N4_17
REMARK    4  A    between atoms: N4_17  and  C13_19
REMARK    5  A    between atoms: C13_19  and  C14_20
ROOT
HETATM    1  C4  UNL     1      11.892  -3.403   4.228  1.00  0.00     0.099 C
HETATM    2  C5  UNL     1      10.725  -3.091   5.196  1.00  0.00     0.056 C
HETATM    3  C6  UNL     1       9.585  -3.946   4.780  1.00  0.00     0.243 C
HETATM    4  C11 UNL     1       9.676  -5.333   5.440  1.00  0.00     0.177 C
HETATM    5  N3  UNL     1      10.793  -6.036   4.854  1.00  0.00    -0.271 N
HETATM    6  C12 UNL     1      10.718  -7.411   4.584  1.00  0.00     0.328 C
HETATM    7  O1  UNL     1       9.670  -8.031   4.855  1.00  0.00    -0.246 OA
HETATM    8  N4  UNL     1      11.794  -8.119   4.010  1.00  0.00    -0.340 N
ATOM      9  H4  UNL     1      12.651  -7.613   3.788  1.00  0.00     0.164 HD
HETATM   10  S1  UNL     1      12.269  -5.158   4.472  1.00  0.00    -0.043 SA
ENDROOT
BRANCH   3  11
HETATM   11  N2  UNL     1       8.284  -3.457   5.010  1.00  0.00     0.094 N
HETATM   12  C7  UNL     1       7.205  -4.076   4.325  1.00  0.00     0.273 C
HETATM   13  C8  UNL     1       6.034  -3.189   4.768  1.00  0.00     0.032 C
HETATM   14  C9  UNL     1       6.410  -2.841   6.184  1.00  0.00     0.032 C
HETATM   15  C10 UNL     1       7.879  -3.238   6.356  1.00  0.00     0.273 C
ENDBRANCH   3  11
BRANCH   8  16
HETATM   16  C13 UNL     1      11.729  -9.538   3.723  1.00  0.00     0.156 C
BRANCH  16  17
HETATM   17  C14 UNL     1      12.313  -9.835   2.366  1.00  0.00     0.139 C
HETATM   18  C15 UNL     1      11.219 -10.393   1.495  1.00  0.00     0.035 C
HETATM   19  C16 UNL     1      11.362 -11.890   1.801  1.00  0.00     0.029 C
HETATM   20  C17 UNL     1      12.849 -11.986   2.003  1.00  0.00     0.168 C
HETATM   21  O2  UNL     1      13.322 -10.772   2.420  1.00  0.00    -0.384 OA
ENDBRANCH  16  17
ENDBRANCH   8  16
BRANCH   1  22
HETATM   22  C3  UNL     1      13.049  -2.510   4.493  1.00  0.00     0.288 C
BRANCH  22  23
HETATM   23  N1  UNL     1      13.520  -2.634   5.835  1.00  0.00     0.081 N
HETATM   24  C1  UNL     1      13.811  -1.390   6.476  1.00  0.00     0.309 C
HETATM   25  C2  UNL     1      14.610  -3.548   6.012  1.00  0.00     0.309 C
ENDBRANCH  22  23
ENDBRANCH   1  22
TORSDOF 5
ENDMDL