MODEL 3
REMARK VINA RESULT: -6.293649288      5.885      8.617
REMARK  5 active torsions:
REMARK  status: ('A' for Active; 'I' for Inactive)
REMARK    1  A    between atoms: N1_2  and  C2_3
REMARK    2  A    between atoms: N1_2  and  C12_19
REMARK    3  A    between atoms: C2_3  and  C3_4
REMARK    4  A    between atoms: C5_6  and  C6_7
REMARK    5  A    between atoms: N2_10  and  C7_11
ROOT
HETATM    1  C3  UNL     1       6.485  -4.258   4.647  1.00  0.00     0.055 C
HETATM    2  C4  UNL     1       6.404  -5.474   3.820  1.00  0.00     0.059 C
HETATM    3  C5  UNL     1       4.970  -5.660   3.469  1.00  0.00     0.324 C
HETATM    4  N2  UNL     1       4.284  -4.506   3.935  1.00  0.00     0.109 N
HETATM    5  C11 UNL     1       5.193  -3.491   4.329  1.00  0.00     0.284 C
ENDROOT
BRANCH   1   6
HETATM    6  C2  UNL     1       7.683  -3.380   4.464  1.00  0.00     0.064 C
BRANCH   6   7
HETATM    7  N1  UNL     1       8.752  -3.600   5.345  1.00  0.00    -0.393 N
HETATM    8  C1  UNL     1       8.482  -3.880   6.697  1.00  0.00     0.149 C
BRANCH   7   9
HETATM    9  C12 UNL     1       9.791  -4.380   4.720  1.00  0.00     0.083 C
HETATM   10  C13 UNL     1       9.961  -5.747   5.358  1.00  0.00     0.025 C
HETATM   11  C14 UNL     1      11.121  -6.404   4.601  1.00  0.00     0.002 C
HETATM   12  C15 UNL     1      12.399  -5.757   5.040  1.00  0.00     0.000 C
HETATM   13  C16 UNL     1      12.234  -4.308   5.353  1.00  0.00     0.002 C
HETATM   14  C17 UNL     1      11.105  -3.694   4.588  1.00  0.00     0.025 C
ENDBRANCH   7   9
ENDBRANCH   6   7
ENDBRANCH   1   6
BRANCH   3  15
HETATM   15  C6  UNL     1       4.767  -5.902   2.011  1.00  0.00     0.207 C
HETATM   16  O1  UNL     1       5.478  -6.713   1.391  1.00  0.00    -0.646 OA
HETATM   17  O2  UNL     1       3.755  -5.184   1.392  1.00  0.00    -0.646 OA
ENDBRANCH   3  15
BRANCH   4  18
HETATM   18  C7  UNL     1       3.297  -4.867   4.881  1.00  0.00     0.238 C
HETATM   19  C8  UNL     1       3.573  -6.098   5.694  1.00  0.00     0.052 C
HETATM   20  C9  UNL     1       2.239  -6.397   6.368  1.00  0.00     0.142 C
HETATM   21  S1  UNL     1       1.747  -4.737   6.862  1.00  0.00     0.146 S
HETATM   22  O3  UNL     1       0.396  -4.410   6.340  1.00  0.00    -0.228 OA
HETATM   23  O4  UNL     1       1.905  -4.536   8.322  1.00  0.00    -0.228 OA
HETATM   24  C10 UNL     1       2.992  -3.821   5.933  1.00  0.00     0.176 C
ENDBRANCH   4  18
TORSDOF 5
ENDMDL