MODEL 2
REMARK VINA RESULT: -6.347886100      1.043      1.050
REMARK  6 active torsions:
REMARK  status: ('A' for Active; 'I' for Inactive)
REMARK    1  A    between atoms: C2_2  and  C4_4
REMARK    2  A    between atoms: C4_4  and  C5_5
REMARK    3  A    between atoms: N1_7  and  C6_8
REMARK    4  A    between atoms: N2_11  and  C9_12
REMARK    5  A    between atoms: C16_22  and  C17_23
REMARK    6  A    between atoms: C17_23  and  N3_24
ROOT
HETATM    1  C5  UNL     1      10.664  -5.703   5.119  1.00  0.00     0.152 C
HETATM    2  O1  UNL     1       9.241  -5.466   4.931  1.00  0.00    -0.297 OA
HETATM    3  N1  UNL     1       8.968  -4.262   5.332  1.00  0.00    -0.192 NA
HETATM    4  C15 UNL     1      10.079  -3.419   5.069  1.00  0.00     0.130 C
HETATM    5  C16 UNL     1      11.181  -4.426   4.593  1.00  0.00     0.057 C
ENDROOT
BRANCH   3   6
HETATM    6  C6  UNL     1       7.851  -3.724   4.531  1.00  0.00     0.089 C
HETATM    7  C7  UNL     1       6.945  -4.800   4.015  1.00  0.00     0.052 C
HETATM    8  C8  UNL     1       5.518  -4.250   4.148  1.00  0.00     0.274 C
HETATM    9  N2  UNL     1       5.222  -4.315   5.561  1.00  0.00     0.094 N
HETATM   10  C13 UNL     1       6.251  -3.725   6.361  1.00  0.00     0.274 C
HETATM   11  C14 UNL     1       7.096  -2.803   5.498  1.00  0.00     0.052 C
BRANCH   9  12
HETATM   12  C9  UNL     1       3.892  -3.955   5.918  1.00  0.00     0.237 C
HETATM   13  C10 UNL     1       3.420  -2.905   4.948  1.00  0.00     0.051 C
HETATM   14  C11 UNL     1       1.995  -2.571   5.264  1.00  0.00     0.142 C
HETATM   15  S1  UNL     1       1.356  -4.163   5.753  1.00  0.00     0.146 S
HETATM   16  O2  UNL     1       0.457  -4.759   4.732  1.00  0.00    -0.228 OA
HETATM   17  O3  UNL     1       0.737  -4.010   7.090  1.00  0.00    -0.228 OA
HETATM   18  C12 UNL     1       2.898  -5.089   5.850  1.00  0.00     0.176 C
ENDBRANCH   9  12
ENDBRANCH   3   6
BRANCH   1  19
HETATM   19  C4  UNL     1      10.864  -6.951   4.321  1.00  0.00     0.038 C
BRANCH  19  20
HETATM   20  C2  UNL     1      10.199  -8.213   4.662  1.00  0.00    -0.020 C
HETATM   21  C1  UNL     1       8.928  -8.474   3.849  1.00  0.00     0.009 C
HETATM   22  C3  UNL     1      11.195  -9.324   4.136  1.00  0.00     0.009 C
ENDBRANCH  19  20
ENDBRANCH   1  19
BRANCH   5  23
HETATM   23  C17 UNL     1      12.479  -3.880   5.075  1.00  0.00     0.238 C
BRANCH  23  24
HETATM   24  N3  UNL     1      13.039  -2.882   4.262  1.00  0.00    -0.079 N
ATOM     25  H33 UNL     1      14.012  -3.104   4.050  1.00  0.00     0.274 HD
ATOM     26  H32 UNL     1      12.639  -2.925   3.325  1.00  0.00     0.274 HD
ATOM     27  H31 UNL     1      12.968  -1.935   4.634  1.00  0.00     0.274 HD
ENDBRANCH  23  24
ENDBRANCH   5  23
TORSDOF 6
ENDMDL