MODEL 3
REMARK VINA RESULT: -6.422686968      5.172      6.944
REMARK  5 active torsions:
REMARK  status: ('A' for Active; 'I' for Inactive)
REMARK    1  A    between atoms: C2_2  and  C3_3
REMARK    2  A    between atoms: C2_2  and  C8_10
REMARK    3  A    between atoms: C3_3  and  N1_4
REMARK    4  A    between atoms: C8_10  and  N2_11
REMARK       I    between atoms: N3_14  and  C11_15
REMARK       I    between atoms: C11_15  and  N4_17
REMARK    5  A    between atoms: N4_17  and  C12_19
ROOT
HETATM    1  N2  UNL     1      10.095 -10.519   3.840  1.00  0.00    -0.390 N
HETATM    2  C9  UNL     1       9.205  -9.568   3.361  1.00  0.00     0.141 C
HETATM    3  C10 UNL     1       9.210  -8.264   4.167  1.00  0.00     0.147 C
HETATM    4  N3  UNL     1      10.566  -7.778   4.258  1.00  0.00    -0.331 N
HETATM    5  C11 UNL     1      10.737  -6.439   4.730  1.00  0.00     0.318 C
HETATM    6  O2  UNL     1       9.750  -5.738   5.061  1.00  0.00    -0.247 OA
HETATM    7  N4  UNL     1      12.029  -5.867   4.838  1.00  0.00    -0.338 N
ATOM      8  H4  UNL     1      12.848  -6.415   4.575  1.00  0.00     0.164 HD
HETATM    9  C18 UNL     1      11.656  -8.638   3.889  1.00  0.00     0.147 C
HETATM   10  C19 UNL     1      11.377 -10.085   4.268  1.00  0.00     0.141 C
ENDROOT
BRANCH   1  11
HETATM   11  C8  UNL     1       9.791 -11.838   4.104  1.00  0.00     0.064 C
BRANCH  11  12
HETATM   12  C2  UNL     1      10.644 -12.959   3.579  1.00  0.00     0.038 C
HETATM   13  C1  UNL     1      10.082 -14.228   4.234  1.00  0.00     0.017 C
BRANCH  12  14
HETATM   14  C3  UNL     1      10.652 -13.013   2.099  1.00  0.00     0.136 C
BRANCH  14  15
HETATM   15  N1  UNL     1      11.711 -12.358   1.419  1.00  0.00    -0.369 N
HETATM   16  C4  UNL     1      11.473 -11.236   0.636  1.00  0.00     0.089 C
HETATM   17  C5  UNL     1      12.669 -10.331   0.428  1.00  0.00     0.212 C
HETATM   18  O1  UNL     1      13.866 -11.077   0.466  1.00  0.00    -0.381 OA
HETATM   19  C6  UNL     1      13.990 -11.498   1.790  1.00  0.00     0.212 C
HETATM   20  C7  UNL     1      12.959 -12.561   2.025  1.00  0.00     0.089 C
ENDBRANCH  14  15
ENDBRANCH  12  14
ENDBRANCH  11  12
ENDBRANCH   1  11
BRANCH   7  21
HETATM   21  C12 UNL     1      12.194  -4.512   5.319  1.00  0.00     0.086 C
HETATM   22  C13 UNL     1      11.473  -3.490   4.469  1.00  0.00     0.025 C
HETATM   23  C14 UNL     1      12.270  -2.226   4.292  1.00  0.00     0.002 C
HETATM   24  C15 UNL     1      13.065  -1.833   5.496  1.00  0.00     0.000 C
HETATM   25  C16 UNL     1      13.852  -2.926   6.129  1.00  0.00     0.002 C
HETATM   26  C17 UNL     1      13.666  -4.232   5.414  1.00  0.00     0.025 C
ENDBRANCH   7  21
TORSDOF 5
ENDMDL