MODEL 4
REMARK VINA RESULT: -9.447410356      3.166      6.868
REMARK  6 active torsions:
REMARK  status: ('A' for Active; 'I' for Inactive)
REMARK    1  A    between atoms: C2_2  and  C3_3
REMARK    2  A    between atoms: C3_3  and  C4_4
REMARK    3  A    between atoms: C4_4  and  O1_5
REMARK    4  A    between atoms: O1_5  and  C5_6
REMARK    5  A    between atoms: C14_16  and  O3_17
REMARK    6  A    between atoms: C20_24  and  C22_26
ROOT
HETATM    1  C22 UNL     1       7.473   1.331  20.377  1.00  0.00     0.134 C
HETATM    2  C23 UNL     1       6.541   0.626  21.255  1.00  0.00     0.059 C
HETATM    3  N1  UNL     1       5.806   0.078  21.963  1.00  0.00    -0.197 NA
ENDROOT
BRANCH   1   4
HETATM    4  C20 UNL     1       6.777   2.309  19.492  1.00  0.00    -0.021 C
HETATM    5  C15 UNL     1       7.585   2.797  18.335  1.00  0.00     0.028 C
HETATM    6  C14 UNL     1       8.108   1.675  17.496  1.00  0.00     0.123 C
HETATM    7  C16 UNL     1       6.519   3.502  17.483  1.00  0.00    -0.006 C
HETATM    8  C13 UNL     1       7.219   0.516  17.318  1.00  0.00     0.037 C
HETATM    9  C12 UNL     1       5.897   0.526  17.936  1.00  0.00    -0.003 C
HETATM   10  C10 UNL     1       4.721   0.592  17.032  1.00  0.00    -0.004 C
HETATM   11  C19 UNL     1       5.587   1.729  18.825  1.00  0.00     0.004 C
HETATM   12  C9  UNL     1       4.778   2.057  16.574  1.00  0.00    -0.005 C
HETATM   13  C11 UNL     1       4.684  -0.245  15.833  1.00  0.00     0.021 C
HETATM   14  C8  UNL     1       3.427   2.366  16.041  1.00  0.00     0.006 C
HETATM   15  C18 UNL     1       5.213   2.799  17.786  1.00  0.00    -0.001 C
HETATM   16  C7  UNL     1       2.588   1.135  15.797  1.00  0.00     0.016 C
HETATM   17  C3  UNL     1       3.308  -0.014  15.178  1.00  0.00    -0.001 C
HETATM   18  C17 UNL     1       6.475   4.974  17.738  1.00  0.00     0.011 C
HETATM   19  C21 UNL     1       6.315   3.463  20.349  1.00  0.00     0.017 C
BRANCH   6  20
HETATM   20  O3  UNL     1       9.380   1.313  18.002  1.00  0.00    -0.395 OA
ATOM     21  H3  UNL     1       9.507   0.373  18.035  1.00  0.00     0.210 HD
ENDBRANCH   6  20
BRANCH  17  22
HETATM   22  C2  UNL     1       3.434   0.092  13.715  1.00  0.00    -0.025 C
HETATM   23  C1  UNL     1       4.556  -0.100  13.085  1.00  0.00     0.008 C
ENDBRANCH  17  22
BRANCH  17  24
HETATM   24  C4  UNL     1       2.519  -1.279  15.532  1.00  0.00     0.192 C
BRANCH  24  25
HETATM   25  O1  UNL     1       3.196  -2.091  16.442  1.00  0.00    -0.321 OA
BRANCH  25  26
HETATM   26  C5  UNL     1       2.503  -3.100  17.091  1.00  0.00     0.254 C
HETATM   27  C6  UNL     1       1.275  -3.707  16.554  1.00  0.00     0.126 C
HETATM   28  O2  UNL     1       2.931  -3.538  18.208  1.00  0.00    -0.266 OA
ENDBRANCH  25  26
ENDBRANCH  24  25
ENDBRANCH  17  24
ENDBRANCH   1   4
TORSDOF 6
ENDMDL