MODEL 3
REMARK VINA RESULT: -8.921885005      3.395      8.125
REMARK  6 active torsions:
REMARK  status: ('A' for Active; 'I' for Inactive)
REMARK    1  A    between atoms: C2_2  and  C4_4
REMARK    2  A    between atoms: C4_4  and  C5_5
REMARK    3  A    between atoms: C5_5  and  O1_6
REMARK    4  A    between atoms: O1_6  and  C6_7
REMARK    5  A    between atoms: C6_7  and  C7_8
REMARK    6  A    between atoms: C15_16  and  O2_17
ROOT
HETATM    1  C7  UNL     1       8.508   4.438  16.515  1.00  0.00     0.152 A
HETATM    2  C8  UNL     1       7.177   5.112  16.576  1.00  0.00     0.014 C
HETATM    3  C9  UNL     1       5.973   4.788  16.093  1.00  0.00    -0.020 C
HETATM    4  C10 UNL     1       5.658   3.568  15.314  1.00  0.00     0.041 C
HETATM    5  C11 UNL     1       6.156   3.731  13.926  1.00  0.00     0.038 C
HETATM    6  C12 UNL     1       5.956   2.614  13.013  1.00  0.00    -0.022 C
HETATM    7  C13 UNL     1       5.742   1.339  13.240  1.00  0.00    -0.072 C
HETATM    8  C14 UNL     1       5.606   0.616  11.947  1.00  0.00     0.066 C
HETATM    9  C15 UNL     1       6.291  -0.698  11.886  1.00  0.00     0.122 C
HETATM   10  C16 UNL     1       6.650  -1.341  13.161  1.00  0.00     0.033 C
HETATM   11  C17 UNL     1       6.745  -0.487  14.366  1.00  0.00     0.016 C
HETATM   12  C18 UNL     1       5.621   0.564  14.449  1.00  0.00    -0.015 C
HETATM   13  C19 UNL     1       4.283  -0.198  14.355  1.00  0.00     0.020 C
HETATM   14  C20 UNL     1       5.662   1.171  15.772  1.00  0.00     0.024 C
HETATM   15  C21 UNL     1       4.272   1.449  16.369  1.00  0.00     0.014 C
HETATM   16  C22 UNL     1       6.439   2.439  15.943  1.00  0.00     0.137 C
HETATM   17  O3  UNL     1       7.689   2.435  15.424  1.00  0.00    -0.351 OA
HETATM   18  C23 UNL     1       8.660   3.150  16.066  1.00  0.00     0.302 A
HETATM   19  O4  UNL     1       8.630   3.347  17.435  1.00  0.00    -0.336 OA
ENDROOT
BRANCH   1  20
HETATM   20  C6  UNL     1       9.691   5.366  16.678  1.00  0.00     0.215 C
BRANCH  20  21
HETATM   21  O1  UNL     1       9.493   6.607  17.140  1.00  0.00    -0.388 OA
BRANCH  21  22
HETATM   22  C5  UNL     1      10.091   7.121  18.223  1.00  0.00     0.168 C
BRANCH  22  23
HETATM   23  C4  UNL     1      11.473   7.716  17.884  1.00  0.00     0.030 C
BRANCH  23  24
HETATM   24  C2  UNL     1      12.184   8.088  19.165  1.00  0.00    -0.021 C
HETATM   25  C1  UNL     1      12.433   9.562  19.178  1.00  0.00     0.009 C
HETATM   26  C3  UNL     1      11.381   7.703  20.384  1.00  0.00     0.009 C
ENDBRANCH  23  24
ENDBRANCH  22  23
ENDBRANCH  21  22
ENDBRANCH  20  21
ENDBRANCH   1  20
BRANCH   9  27
HETATM   27  O2  UNL     1       7.421  -0.638  11.037  1.00  0.00    -0.395 OA
ATOM     28  H2  UNL     1       8.160  -1.093  11.423  1.00  0.00     0.210 HD
ENDBRANCH   9  27
TORSDOF 6
ENDMDL