MODEL 3
REMARK VINA RESULT: -9.248278336      2.335      4.736
REMARK  6 active torsions:
REMARK  status: ('A' for Active; 'I' for Inactive)
REMARK    1  A    between atoms: C3_3  and  C5_5
REMARK    2  A    between atoms: C5_5  and  O2_7
REMARK    3  A    between atoms: O2_7  and  C6_8
REMARK    4  A    between atoms: C6_8  and  C7_9
REMARK    5  A    between atoms: C17_19  and  O3_20
REMARK    6  A    between atoms: O3_20  and  C18_21
ROOT
HETATM    1  C7  UNL     1       6.606   2.646  17.237  1.00  0.00    -0.003 C
HETATM    2  C8  UNL     1       7.723   1.647  17.386  1.00  0.00     0.013 C
HETATM    3  C9  UNL     1       7.604   0.850  18.663  1.00  0.00     0.006 C
HETATM    4  C10 UNL     1       7.456   1.697  19.875  1.00  0.00    -0.010 C
HETATM    5  C11 UNL     1       7.032   0.810  21.027  1.00  0.00     0.011 C
HETATM    6  C12 UNL     1       6.460   2.809  19.772  1.00  0.00    -0.040 C
HETATM    7  C13 UNL     1       6.988   3.910  20.714  1.00  0.00     0.015 C
HETATM    8  C14 UNL     1       5.103   2.427  20.327  1.00  0.00     0.015 C
HETATM    9  C15 UNL     1       6.304   3.437  18.445  1.00  0.00     0.007 C
HETATM   10  C16 UNL     1       7.139   4.721  18.309  1.00  0.00     0.039 C
HETATM   11  C17 UNL     1       6.815   5.022  16.830  1.00  0.00     0.142 C
HETATM   12  C20 UNL     1       7.102   3.686  16.236  1.00  0.00     0.000 A
HETATM   13  C21 UNL     1       8.366   3.547  15.514  1.00  0.00     0.018 A
HETATM   14  C22 UNL     1       7.038   3.439  14.798  1.00  0.00    -0.006 A
HETATM   15  C23 UNL     1       6.571   4.532  13.886  1.00  0.00     0.011 C
ENDROOT
BRANCH   1  16
HETATM   16  C6  UNL     1       5.357   2.018  16.659  1.00  0.00     0.190 C
BRANCH  16  17
HETATM   17  O2  UNL     1       5.505   0.632  16.429  1.00  0.00    -0.317 OA
BRANCH  17  18
HETATM   18  C5  UNL     1       5.073   0.033  15.247  1.00  0.00     0.288 C
HETATM   19  O1  UNL     1       3.982  -0.590  15.328  1.00  0.00    -0.260 OA
BRANCH  18  20
HETATM   20  C3  UNL     1       5.797   0.099  13.990  1.00  0.00     0.009 C
HETATM   21  C2  UNL     1       5.504   0.933  13.029  1.00  0.00    -0.018 C
HETATM   22  C1  UNL     1       6.263   0.982  11.754  1.00  0.00     0.036 C
HETATM   23  C4  UNL     1       6.940  -0.829  13.780  1.00  0.00     0.054 C
ENDBRANCH  18  20
ENDBRANCH  17  18
ENDBRANCH  16  17
ENDBRANCH   1  16
BRANCH  11  24
HETATM   24  O3  UNL     1       7.679   6.056  16.405  1.00  0.00    -0.315 OA
BRANCH  24  25
HETATM   25  C18 UNL     1       8.615   6.649  17.239  1.00  0.00     0.255 C
HETATM   26  C19 UNL     1      10.060   6.282  17.225  1.00  0.00     0.126 C
HETATM   27  O4  UNL     1       8.259   7.544  18.055  1.00  0.00    -0.266 OA
ENDBRANCH  24  25
ENDBRANCH  11  24
TORSDOF 6
ENDMDL