MODEL 2
REMARK VINA RESULT: -8.982720620      0.672      1.103
REMARK  7 active torsions:
REMARK  status: ('A' for Active; 'I' for Inactive)
REMARK    1  A    between atoms: C4_4  and  C5_5
REMARK    2  A    between atoms: C5_5  and  O1_6
REMARK    3  A    between atoms: O1_6  and  C6_7
REMARK    4  A    between atoms: C6_7  and  O3_9
REMARK    5  A    between atoms: O3_9  and  C7_10
REMARK    6  A    between atoms: C10_13  and  N1_15
REMARK    7  A    between atoms: C18_22  and  O4_24
ROOT
HETATM    1  C7  UNL     1       5.038   0.245  16.557  1.00  0.00     0.145 C
HETATM    2  C8  UNL     1       4.310   1.296  17.356  1.00  0.00     0.036 C
HETATM    3  C9  UNL     1       5.174   2.336  17.949  1.00  0.00     0.044 C
HETATM    4  C10 UNL     1       6.626   2.332  17.546  1.00  0.00     0.157 C
HETATM    5  C11 UNL     1       7.304   1.397  18.573  1.00  0.00     0.050 C
HETATM    6  C18 UNL     1       6.959   1.832  16.221  1.00  0.00     0.097 C
HETATM    7  C19 UNL     1       7.323   2.769  15.104  1.00  0.00     0.049 C
HETATM    8  C20 UNL     1       5.863   0.971  15.570  1.00  0.00     0.012 C
HETATM    9  C21 UNL     1       6.460  -0.039  14.612  1.00  0.00     0.020 C
HETATM   10  C22 UNL     1       4.943   1.833  14.728  1.00  0.00     0.020 C
ENDROOT
BRANCH   1  11
HETATM   11  O3  UNL     1       4.017  -0.442  15.834  1.00  0.00    -0.292 OA
BRANCH  11  12
HETATM   12  C6  UNL     1       3.406  -1.597  16.294  1.00  0.00     0.407 C
HETATM   13  O2  UNL     1       3.841  -2.129  17.323  1.00  0.00    -0.229 OA
BRANCH  12  14
HETATM   14  O1  UNL     1       2.335  -2.160  15.637  1.00  0.00    -0.294 OA
BRANCH  14  15
HETATM   15  C5  UNL     1       2.080  -1.954  14.269  1.00  0.00     0.209 C
BRANCH  15  16
HETATM   16  C4  UNL     1       3.194  -2.402  13.394  1.00  0.00     0.002 C
HETATM   17  C2  UNL     1       3.699  -1.598  12.465  1.00  0.00    -0.089 C
HETATM   18  C1  UNL     1       4.814  -2.040  11.587  1.00  0.00     0.042 C
HETATM   19  C3  UNL     1       3.148  -0.230  12.296  1.00  0.00     0.042 C
ENDBRANCH  15  16
ENDBRANCH  14  15
ENDBRANCH  12  14
ENDBRANCH  11  12
ENDBRANCH   1  11
BRANCH   6  20
HETATM   20  O4  UNL     1       8.045   0.912  16.267  1.00  0.00    -0.387 OA
ATOM     21  H4  UNL     1       8.511   0.879  15.439  1.00  0.00     0.210 HD
ENDBRANCH   6  20
BRANCH   4  22
HETATM   22  N1  UNL     1       7.153   3.656  17.890  1.00  0.00    -0.059 N
HETATM   23  C12 UNL     1       6.919   4.002  19.260  1.00  0.00     0.273 C
HETATM   24  C13 UNL     1       6.403   4.644  17.095  1.00  0.00     0.238 C
HETATM   25  C14 UNL     1       6.664   6.057  17.488  1.00  0.00     0.028 C
HETATM   26  C15 UNL     1       8.148   6.321  17.730  1.00  0.00     0.003 C
HETATM   27  C16 UNL     1       8.845   5.229  16.969  1.00  0.00     0.028 C
HETATM   28  C17 UNL     1       8.529   3.856  17.583  1.00  0.00     0.238 C
ENDBRANCH   4  22
TORSDOF 7
ENDMDL