MODEL 4
REMARK VINA RESULT: -9.147757744      2.517      3.927
REMARK  6 active torsions:
REMARK  status: ('A' for Active; 'I' for Inactive)
REMARK    1  A    between atoms: O1_2  and  C2_3
REMARK    2  A    between atoms: C2_3  and  C3_5
REMARK    3  A    between atoms: C10_12  and  C11_13
REMARK    4  A    between atoms: C16_18  and  C17_19
REMARK    5  A    between atoms: C16_18  and  C18_21
REMARK    6  A    between atoms: C18_21  and  O4_22
ROOT
HETATM    1  C3  UNL     1       7.343   5.046  16.924  1.00  0.00     0.052 C
HETATM    2  C4  UNL     1       6.247   5.823  16.259  1.00  0.00     0.020 C
HETATM    3  C5  UNL     1       5.179   4.807  15.833  1.00  0.00     0.004 C
HETATM    4  C6  UNL     1       5.522   4.086  14.586  1.00  0.00     0.031 C
HETATM    5  C7  UNL     1       6.148   2.730  14.776  1.00  0.00     0.030 C
HETATM    6  C8  UNL     1       6.900   2.420  13.497  1.00  0.00     0.036 C
HETATM    7  C9  UNL     1       5.874   1.677  12.691  1.00  0.00     0.055 C
HETATM    8  C10 UNL     1       5.027   1.072  13.761  1.00  0.00    -0.009 C
HETATM    9  N1  UNL     1       5.213   1.678  14.867  1.00  0.00    -0.386 N
ATOM     10  H1  UNL     1       4.734   1.428  15.732  1.00  0.00     0.160 HD
HETATM   11  C20 UNL     1       7.156   2.720  15.927  1.00  0.00     0.036 C
HETATM   12  C21 UNL     1       7.819   4.020  15.960  1.00  0.00     0.006 C
HETATM   13  C22 UNL     1       9.177   4.180  16.590  1.00  0.00     0.007 C
HETATM   14  C23 UNL     1       8.751   5.656  16.751  1.00  0.00     0.020 C
ENDROOT
BRANCH   8  15
HETATM   15  C11 UNL     1       4.109  -0.077  13.519  1.00  0.00    -0.004 C
HETATM   16  C12 UNL     1       4.935  -1.333  13.287  1.00  0.00     0.021 C
HETATM   17  C13 UNL     1       3.388   0.212  12.224  1.00  0.00     0.015 C
HETATM   18  C14 UNL     1       2.076  -0.475  12.084  1.00  0.00     0.002 C
HETATM   19  C15 UNL     1       1.821  -1.569  13.061  1.00  0.00     0.019 C
HETATM   20  C16 UNL     1       2.054  -1.163  14.482  1.00  0.00     0.035 C
HETATM   21  C19 UNL     1       3.184  -0.212  14.679  1.00  0.00     0.033 C
BRANCH  20  22
HETATM   22  C17 UNL     1       2.255  -2.363  15.362  1.00  0.00     0.242 C
HETATM   23  O3  UNL     1       2.852  -2.259  16.413  1.00  0.00    -0.306 OA
ENDBRANCH  20  22
BRANCH  20  24
HETATM   24  C18 UNL     1       0.751  -0.517  14.976  1.00  0.00     0.180 C
BRANCH  24  25
HETATM   25  O4  UNL     1       0.044  -1.391  15.795  1.00  0.00    -0.400 OA
ATOM     26  H4  UNL     1      -0.391  -0.920  16.496  1.00  0.00     0.209 HD
ENDBRANCH  24  25
ENDBRANCH  20  24
ENDBRANCH   8  15
BRANCH   1  27
HETATM   27  C2  UNL     1       7.170   4.717  18.328  1.00  0.00     0.267 C
HETATM   28  O2  UNL     1       7.433   5.426  19.330  1.00  0.00    -0.264 OA
BRANCH  27  29
HETATM   29  O1  UNL     1       6.640   3.448  18.650  1.00  0.00    -0.326 OA
HETATM   30  C1  UNL     1       6.535   3.006  19.982  1.00  0.00     0.213 C
ENDBRANCH  27  29
ENDBRANCH   1  27
TORSDOF 6
ENDMDL