MODEL 5
REMARK VINA RESULT: -9.377437236      2.015      6.234
REMARK  5 active torsions:
REMARK  status: ('A' for Active; 'I' for Inactive)
REMARK    1  A    between atoms: C2_2  and  C3_3
REMARK    2  A    between atoms: C3_3  and  C5_5
REMARK    3  A    between atoms: C5_5  and  C6_6
REMARK    4  A    between atoms: C6_6  and  C7_7
REMARK    5  A    between atoms: C8_8  and  O1_9
ROOT
HETATM    1  C7  UNL     1       6.096   2.781  16.543  1.00  0.00     0.024 C
HETATM    2  C8  UNL     1       5.341   1.484  16.741  1.00  0.00     0.132 C
HETATM    3  C9  UNL     1       5.334   0.809  15.396  1.00  0.00    -0.001 C
HETATM    4  C10 UNL     1       6.522  -0.115  15.420  1.00  0.00     0.019 C
HETATM    5  C11 UNL     1       5.337   1.939  14.478  1.00  0.00     0.035 A
HETATM    6  C12 UNL     1       6.344   2.062  13.444  1.00  0.00     0.127 A
HETATM    7  C13 UNL     1       6.811   3.353  14.124  1.00  0.00     0.042 A
HETATM    8  C14 UNL     1       5.807   3.198  15.194  1.00  0.00    -0.029 A
HETATM    9  C15 UNL     1       4.812   4.371  15.125  1.00  0.00     0.016 C
HETATM   10  O2  UNL     1       5.725   2.217  12.215  1.00  0.00    -0.385 OA
HETATM   11  C16 UNL     1       4.655   1.330  12.014  1.00  0.00     0.173 C
HETATM   12  C17 UNL     1       4.886  -0.029  12.629  1.00  0.00     0.020 C
HETATM   13  C18 UNL     1       4.714  -1.040  11.468  1.00  0.00     0.013 C
HETATM   14  C19 UNL     1       3.987  -0.462  13.698  1.00  0.00     0.102 C
HETATM   15  C20 UNL     1       2.585  -0.186  13.314  1.00  0.00     0.264 C
HETATM   16  O3  UNL     1       2.107  -0.098  12.166  1.00  0.00    -0.265 OA
HETATM   17  O4  UNL     1       1.888  -0.039  14.484  1.00  0.00    -0.320 OA
HETATM   18  C21 UNL     1       2.805   0.552  15.408  1.00  0.00     0.189 C
HETATM   19  C22 UNL     1       4.136  -0.052  15.102  1.00  0.00     0.001 C
HETATM   20  C23 UNL     1       4.267  -1.260  16.050  1.00  0.00     0.019 C
ENDROOT
BRANCH   1  21
HETATM   21  C6  UNL     1       7.509   2.774  17.011  1.00  0.00     0.008 C
BRANCH  21  22
HETATM   22  C5  UNL     1       7.672   2.823  18.511  1.00  0.00     0.005 C
BRANCH  22  23
HETATM   23  C3  UNL     1       6.673   3.703  19.188  1.00  0.00    -0.019 C
HETATM   24  C4  UNL     1       6.042   3.134  20.402  1.00  0.00     0.010 C
BRANCH  23  25
HETATM   25  C2  UNL     1       7.259   5.071  19.442  1.00  0.00    -0.000 C
HETATM   26  C1  UNL     1       6.863   5.971  18.261  1.00  0.00     0.005 C
ENDBRANCH  23  25
ENDBRANCH  22  23
ENDBRANCH  21  22
ENDBRANCH   1  21
BRANCH   2  27
HETATM   27  O1  UNL     1       4.093   1.703  17.289  1.00  0.00    -0.394 OA
ATOM     28  H1  UNL     1       3.618   2.377  16.818  1.00  0.00     0.210 HD
ENDBRANCH   2  27
TORSDOF 5
ENDMDL