MODEL 4
REMARK VINA RESULT: -9.720735688      2.359      6.177
REMARK  6 active torsions:
REMARK  status: ('A' for Active; 'I' for Inactive)
REMARK    1  A    between atoms: C2_2  and  C3_3
REMARK    2  A    between atoms: C10_11  and  C11_12
REMARK    3  A    between atoms: C11_12  and  C12_13
REMARK    4  A    between atoms: C12_13  and  C13_14
REMARK    5  A    between atoms: C13_14  and  O2_16
REMARK    6  A    between atoms: C20_23  and  O3_24
ROOT
HETATM    1  C3  UNL     1       4.838  -1.318  12.614  1.00  0.00     0.026 C
HETATM    2  C4  UNL     1       3.359  -1.291  12.164  1.00  0.00     0.289 C
HETATM    3  N1  UNL     1       3.315  -0.188  13.170  1.00  0.00     0.131 N
HETATM    4  C5  UNL     1       4.564   0.109  12.444  1.00  0.00     0.246 C
HETATM    5  C6  UNL     1       5.660   0.831  13.148  1.00  0.00    -0.008 C
HETATM    6  C7  UNL     1       6.869   0.692  12.186  1.00  0.00     0.018 C
HETATM    7  C8  UNL     1       5.440   2.308  13.227  1.00  0.00     0.012 C
HETATM    8  C9  UNL     1       6.443   3.066  14.016  1.00  0.00     0.005 C
HETATM    9  C10 UNL     1       6.067   3.482  15.382  1.00  0.00    -0.013 C
HETATM   10  C15 UNL     1       4.758   2.971  15.891  1.00  0.00     0.013 C
HETATM   11  C16 UNL     1       4.695   1.500  16.174  1.00  0.00    -0.043 C
HETATM   12  C17 UNL     1       4.752   1.400  17.726  1.00  0.00     0.015 C
HETATM   13  C18 UNL     1       3.271   1.084  15.885  1.00  0.00     0.014 C
HETATM   14  C19 UNL     1       3.211  -0.361  15.659  1.00  0.00     0.073 C
HETATM   15  C20 UNL     1       3.587  -0.912  14.376  1.00  0.00     0.264 C
HETATM   16  C21 UNL     1       5.036  -1.230  14.134  1.00  0.00     0.069 C
HETATM   17  C22 UNL     1       5.855   0.060  14.358  1.00  0.00     0.006 C
HETATM   18  C23 UNL     1       5.742   0.630  15.693  1.00  0.00     0.015 C
ENDROOT
BRANCH   9  19
HETATM   19  C11 UNL     1       6.084   4.988  15.581  1.00  0.00     0.014 C
BRANCH  19  20
HETATM   20  C12 UNL     1       6.560   5.402  16.944  1.00  0.00     0.111 C
BRANCH  20  21
HETATM   21  C13 UNL     1       7.802   4.682  17.338  1.00  0.00     0.258 C
HETATM   22  O1  UNL     1       8.929   4.909  16.874  1.00  0.00    -0.265 OA
BRANCH  21  23
HETATM   23  O2  UNL     1       7.664   3.688  18.295  1.00  0.00    -0.326 OA
HETATM   24  C14 UNL     1       8.207   2.393  18.129  1.00  0.00     0.213 C
ENDBRANCH  21  23
ENDBRANCH  20  21
ENDBRANCH  19  20
ENDBRANCH   9  19
BRANCH   1  25
HETATM   25  C2  UNL     1       5.584  -2.256  11.874  1.00  0.00     0.009 C
HETATM   26  C1  UNL     1       5.847  -1.948  10.448  1.00  0.00     0.006 C
ENDBRANCH   1  25
BRANCH  15  27
HETATM   27  O3  UNL     1       2.988  -2.214  14.376  1.00  0.00    -0.362 OA
ATOM     28  H3  UNL     1       3.631  -2.906  14.469  1.00  0.00     0.212 HD
ENDBRANCH  15  27
TORSDOF 6
ENDMDL