MODEL 2
REMARK VINA RESULT: -9.059534067      1.041      1.336
REMARK  7 active torsions:
REMARK  status: ('A' for Active; 'I' for Inactive)
REMARK    1  A    between atoms: C3_3  and  C4_4
REMARK    2  A    between atoms: C4_4  and  N1_5
REMARK    3  A    between atoms: C4_4  and  C20_28
REMARK    4  A    between atoms: N1_5  and  C5_7
REMARK    5  A    between atoms: C6_10  and  C7_11
REMARK    6  A    between atoms: C7_11  and  C8_12
REMARK    7  A    between atoms: C14_20  and  O1_21
ROOT
HETATM    1  C1  UNL     1       7.301  -0.580  11.657  1.00  0.00     0.012 C
HETATM    2  C2  UNL     1       6.579   0.236  12.194  1.00  0.00    -0.115 C
HETATM    3  C3  UNL     1       5.752   1.236  12.812  1.00  0.00     0.118 C
ENDROOT
BRANCH   3   4
HETATM    4  C4  UNL     1       4.946   0.796  13.949  1.00  0.00     0.101 C
BRANCH   4   5
HETATM    5  N1  UNL     1       4.550   2.025  14.675  1.00  0.00    -0.369 N
ATOM      6  H1  UNL     1       3.855   2.640  14.252  1.00  0.00     0.161 HD
BRANCH   5   7
HETATM    7  C5  UNL     1       5.042   2.346  15.807  1.00  0.00     0.115 A
HETATM    8  N2  UNL     1       4.880   1.648  16.934  1.00  0.00    -0.332 N
HETATM    9  C6  UNL     1       5.420   2.024  18.115  1.00  0.00     0.083 A
ATOM     10  H2  UNL     1       4.324   0.793  16.902  1.00  0.00     0.168 HD
HETATM   11  N3  UNL     1       6.161   3.148  18.198  1.00  0.00    -0.345 N
HETATM   12  C12 UNL     1       6.342   3.875  17.071  1.00  0.00     0.050 A
ATOM     13  H3  UNL     1       6.572   3.441  19.084  1.00  0.00     0.167 HD
HETATM   14  C13 UNL     1       7.109   5.041  17.147  1.00  0.00     0.068 A
HETATM   15  C19 UNL     1       5.803   3.511  15.861  1.00  0.00     0.036 A
HETATM   16  C14 UNL     1       7.310   5.799  16.015  1.00  0.00     0.091 A
HETATM   17  C16 UNL     1       6.759   5.417  14.807  1.00  0.00     0.079 A
HETATM   18  C17 UNL     1       7.008   6.258  13.657  1.00  0.00     0.102 C
HETATM   19  C18 UNL     1       6.011   4.277  14.743  1.00  0.00     0.043 A
HETATM   20  N4  UNL     1       7.191   6.930  12.731  1.00  0.00    -0.191 NA
BRANCH   9  21
HETATM   21  C7  UNL     1       5.232   1.241  19.362  1.00  0.00     0.084 C
BRANCH  21  22
HETATM   22  C8  UNL     1       6.423   1.438  20.273  1.00  0.00    -0.045 C
HETATM   23  C9  UNL     1       7.719   1.242  19.524  1.00  0.00     0.015 C
HETATM   24  C10 UNL     1       6.370   0.360  21.353  1.00  0.00     0.015 C
HETATM   25  C11 UNL     1       6.378   2.769  20.992  1.00  0.00     0.015 C
ENDBRANCH  21  22
ENDBRANCH   9  21
BRANCH  16  26
HETATM   26  O1  UNL     1       8.068   6.962  16.069  1.00  0.00    -0.354 OA
HETATM   27  C15 UNL     1       9.239   7.065  16.849  1.00  0.00     0.210 C
ENDBRANCH  16  26
ENDBRANCH   5   7
ENDBRANCH   4   5
BRANCH   4  28
HETATM   28  C20 UNL     1       3.735  -0.017  13.754  1.00  0.00    -0.030 C
HETATM   29  C21 UNL     1       3.113   0.136  12.396  1.00  0.00     0.016 C
HETATM   30  C22 UNL     1       2.678   0.196  14.822  1.00  0.00     0.016 C
HETATM   31  C23 UNL     1       4.083  -1.515  13.865  1.00  0.00     0.016 C
ENDBRANCH   4  28
ENDBRANCH   3   4
TORSDOF 7
ENDMDL