MODEL 2
REMARK VINA RESULT: -9.362111097      1.598      2.210
REMARK  5 active torsions:
REMARK  status: ('A' for Active; 'I' for Inactive)
REMARK    1  A    between atoms: C4_4  and  C5_5
REMARK    2  A    between atoms: C5_5  and  C7_7
REMARK    3  A    between atoms: C8_8  and  C9_9
REMARK    4  A    between atoms: C21_23  and  C22_24
REMARK    5  A    between atoms: C22_24  and  O3_25
ROOT
HETATM    1  C1  UNL     1       5.157   4.102  14.756  1.00  0.00     0.014 C
HETATM    2  C2  UNL     1       5.970   3.076  14.543  1.00  0.00    -0.088 C
HETATM    3  C3  UNL     1       5.357   2.106  13.591  1.00  0.00     0.038 C
HETATM    4  C4  UNL     1       4.535   1.055  14.256  1.00  0.00    -0.003 C
HETATM    5  C11 UNL     1       5.410   0.184  15.121  1.00  0.00     0.005 C
HETATM    6  C12 UNL     1       5.644   0.770  16.491  1.00  0.00     0.001 C
HETATM    7  C13 UNL     1       7.074   1.209  16.703  1.00  0.00     0.013 C
HETATM    8  C14 UNL     1       7.193   2.714  16.699  1.00  0.00     0.001 C
HETATM    9  C15 UNL     1       7.247   3.164  15.289  1.00  0.00     0.046 C
HETATM   10  C16 UNL     1       8.377   3.221  17.542  1.00  0.00     0.137 C
HETATM   11  C17 UNL     1       7.565   4.492  17.681  1.00  0.00     0.046 C
HETATM   12  C18 UNL     1       6.411   3.467  17.706  1.00  0.00     0.093 C
HETATM   13  C19 UNL     1       6.798   2.809  19.002  1.00  0.00     0.287 C
HETATM   14  O2  UNL     1       6.802   3.700  20.072  1.00  0.00    -0.330 OA
HETATM   15  C20 UNL     1       7.003   2.822  21.154  1.00  0.00     0.208 C
HETATM   16  C21 UNL     1       6.555   1.479  20.676  1.00  0.00     0.175 C
HETATM   17  O4  UNL     1       6.076   1.740  19.393  1.00  0.00    -0.323 OA
HETATM   18  O5  UNL     1       8.164   2.544  18.723  1.00  0.00    -0.326 OA
ENDROOT
BRANCH   4  19
HETATM   19  C5  UNL     1       3.920   0.175  13.193  1.00  0.00     0.008 C
HETATM   20  C6  UNL     1       3.433  -1.134  13.716  1.00  0.00     0.014 C
BRANCH  19  21
HETATM   21  C7  UNL     1       4.879  -0.087  12.091  1.00  0.00    -0.019 C
HETATM   22  C8  UNL     1       5.591  -1.189  11.985  1.00  0.00     0.046 C
BRANCH  22  23
HETATM   23  C9  UNL     1       6.519  -1.375  10.867  1.00  0.00     0.145 C
HETATM   24  C10 UNL     1       6.204  -2.290   9.757  1.00  0.00     0.096 C
HETATM   25  O1  UNL     1       7.607  -0.750  10.839  1.00  0.00    -0.294 OA
ENDBRANCH  22  23
ENDBRANCH  19  21
ENDBRANCH   4  19
BRANCH  16  26
HETATM   26  C22 UNL     1       5.510   0.849  21.565  1.00  0.00     0.198 C
BRANCH  26  27
HETATM   27  O3  UNL     1       6.066  -0.276  22.145  1.00  0.00    -0.398 OA
ATOM     28  H3  UNL     1       6.603  -0.707  21.491  1.00  0.00     0.209 HD
ENDBRANCH  26  27
ENDBRANCH  16  26
TORSDOF 5
ENDMDL