MODEL 1
REMARK VINA RESULT: -9.620170477      0.000      0.000
REMARK  5 active torsions:
REMARK  status: ('A' for Active; 'I' for Inactive)
REMARK    1  A    between atoms: C2_2  and  C3_3
REMARK    2  A    between atoms: C3_3  and  N1_4
REMARK    3  A    between atoms: C6_7  and  N2_8
REMARK    4  A    between atoms: C9_12  and  O1_13
REMARK    5  A    between atoms: C11_17  and  C12_18
ROOT
HETATM    1  N2  UNL     1       5.943   0.208  15.815  1.00  0.00    -0.371 N
ATOM      2  H2  UNL     1       6.666   0.514  15.165  1.00  0.00     0.161 HD
HETATM    3  C7  UNL     1       5.035  -0.486  15.291  1.00  0.00     0.106 A
HETATM    4  C8  UNL     1       3.951  -1.025  15.901  1.00  0.00     0.104 A
HETATM    5  C9  UNL     1       3.043  -1.827  15.234  1.00  0.00     0.146 A
HETATM    6  N3  UNL     1       3.258  -2.077  13.929  1.00  0.00    -0.326 N
ATOM      7  H3  UNL     1       2.602  -2.668  13.415  1.00  0.00     0.169 HD
HETATM    8  C11 UNL     1       4.336  -1.555  13.285  1.00  0.00     0.092 A
HETATM    9  N4  UNL     1       5.192  -0.779  13.968  1.00  0.00    -0.332 N
ATOM     10  H4  UNL     1       5.997  -0.391  13.475  1.00  0.00     0.168 HD
ENDROOT
BRANCH   1  11
HETATM   11  C6  UNL     1       6.139   0.642  17.154  1.00  0.00     0.087 C
HETATM   12  C5  UNL     1       7.506   1.300  17.147  1.00  0.00     0.050 C
HETATM   13  C4  UNL     1       7.714   2.290  18.261  1.00  0.00     0.082 C
HETATM   14  N1  UNL     1       6.708   3.240  18.167  1.00  0.00    -0.404 N
HETATM   15  C22 UNL     1       7.596   1.521  19.556  1.00  0.00     0.034 C
HETATM   16  C17 UNL     1       5.400   2.732  18.390  1.00  0.00     0.082 C
HETATM   17  C16 UNL     1       5.036   1.490  17.627  1.00  0.00     0.050 C
HETATM   18  C18 UNL     1       5.293   2.526  19.888  1.00  0.00     0.034 C
HETATM   19  C19 UNL     1       6.573   2.031  20.510  1.00  0.00    -0.044 C
HETATM   20  C20 UNL     1       6.164   0.843  21.396  1.00  0.00     0.015 C
HETATM   21  C21 UNL     1       7.131   3.068  21.465  1.00  0.00     0.015 C
BRANCH  14  22
HETATM   22  C3  UNL     1       6.871   4.497  17.630  1.00  0.00     0.117 C
BRANCH  22  23
HETATM   23  C2  UNL     1       7.316   5.562  18.635  1.00  0.00     0.015 C
HETATM   24  C1  UNL     1       8.432   6.425  18.097  1.00  0.00     0.006 C
ENDBRANCH  22  23
ENDBRANCH  14  22
ENDBRANCH   1  11
BRANCH   5  25
HETATM   25  O1  UNL     1       1.932  -2.366  15.894  1.00  0.00    -0.341 OA
HETATM   26  C10 UNL     1       0.628  -2.063  15.443  1.00  0.00     0.211 C
ENDBRANCH   5  25
BRANCH   8  27
HETATM   27  C12 UNL     1       4.549  -1.900  11.837  1.00  0.00     0.008 C
HETATM   28  C13 UNL     1       3.344  -2.639  11.350  1.00  0.00     0.022 C
HETATM   29  C14 UNL     1       4.736  -0.603  11.064  1.00  0.00     0.022 C
HETATM   30  C15 UNL     1       5.829  -2.704  11.690  1.00  0.00     0.022 C
ENDBRANCH   8  27
TORSDOF 5
ENDMDL