MODEL 4
REMARK VINA RESULT: -5.395673334      5.469      8.475
REMARK  5 active torsions:
REMARK  status: ('A' for Active; 'I' for Inactive)
REMARK       I    between atoms: C2_2  and  N1_4
REMARK    1  A    between atoms: N1_4  and  C3_6
REMARK    2  A    between atoms: C3_6  and  C4_7
REMARK    3  A    between atoms: C6_9  and  N2_11
REMARK       I    between atoms: N2_11  and  C8_13
REMARK    4  A    between atoms: C8_13  and  C9_15
REMARK    5  A    between atoms: C13_19  and  O3_20
ROOT
HETATM    1  C4  UNL     1      32.273 -13.299 -16.811  1.00  0.00     0.141 C
HETATM    2  C5  UNL     1      32.253 -14.258 -15.607  1.00  0.00     0.066 C
HETATM    3  C6  UNL     1      32.979 -13.408 -14.593  1.00  0.00     0.053 C
HETATM    4  C7  UNL     1      34.469 -13.629 -14.713  1.00  0.00     0.041 C
HETATM    5  C14 UNL     1      32.590 -12.014 -15.028  1.00  0.00     0.198 C
HETATM    6  O4  UNL     1      31.814 -12.131 -16.155  1.00  0.00    -0.382 OA
ENDROOT
BRANCH   3   7
HETATM    7  N2  UNL     1      32.560 -13.624 -13.254  1.00  0.00    -0.346 N
HETATM    8  C8  UNL     1      33.061 -12.842 -12.161  1.00  0.00     0.254 C
HETATM    9  O2  UNL     1      33.906 -11.922 -12.388  1.00  0.00    -0.268 OA
ATOM     10  H2  UNL     1      31.880 -14.360 -13.062  1.00  0.00     0.163 HD
BRANCH   8  11
HETATM   11  C9  UNL     1      32.643 -13.050 -10.786  1.00  0.00     0.061 A
HETATM   12  C10 UNL     1      33.281 -12.555  -9.718  1.00  0.00    -0.003 A
HETATM   13  C11 UNL     1      32.593 -12.956  -8.470  1.00  0.00     0.058 A
HETATM   14  C12 UNL     1      31.453 -13.760  -8.946  1.00  0.00     0.014 A
HETATM   15  C13 UNL     1      31.505 -13.800 -10.287  1.00  0.00     0.077 A
BRANCH  15  16
HETATM   16  O3  UNL     1      30.538 -14.500 -10.994  1.00  0.00    -0.360 OA
ATOM     17  H3  UNL     1      29.795 -14.994 -10.668  1.00  0.00     0.217 HD
ENDBRANCH  15  16
ENDBRANCH   8  11
ENDBRANCH   3   7
BRANCH   1  18
HETATM   18  C3  UNL     1      31.323 -13.736 -17.869  1.00  0.00     0.154 C
BRANCH  18  19
HETATM   19  N1  UNL     1      30.006 -13.238 -17.576  1.00  0.00    -0.359 N
HETATM   20  C2  UNL     1      28.948 -14.022 -17.091  1.00  0.00     0.213 C
HETATM   21  C1  UNL     1      27.624 -13.420 -16.820  1.00  0.00     0.117 C
HETATM   22  O1  UNL     1      29.103 -15.243 -16.879  1.00  0.00    -0.274 OA
ATOM     23  H1  UNL     1      29.828 -12.246 -17.732  1.00  0.00     0.162 HD
ENDBRANCH  18  19
ENDBRANCH   1  18
TORSDOF 5
ENDMDL