MODEL 1
REMARK VINA RESULT: -5.258541921      0.000      0.000
REMARK  5 active torsions:
REMARK  status: ('A' for Active; 'I' for Inactive)
REMARK    1  A    between atoms: N1_1  and  C1_5
REMARK       I    between atoms: N2_7  and  C3_8
REMARK    2  A    between atoms: C3_8  and  C4_10
REMARK    3  A    between atoms: C12_19  and  C13_20
REMARK    4  A    between atoms: C13_20  and  C14_21
REMARK    5  A    between atoms: C14_21  and  O3_22
ROOT
HETATM    1  C1  UNL     1      32.832 -12.270 -11.714  1.00  0.00     0.205 C
HETATM    2  C2  UNL     1      32.303 -11.653 -12.977  1.00  0.00     0.159 C
HETATM    3  N2  UNL     1      31.482 -12.720 -13.598  1.00  0.00    -0.344 N
HETATM    4  C3  UNL     1      31.965 -13.285 -14.782  1.00  0.00     0.277 C
HETATM    5  O1  UNL     1      33.086 -12.796 -15.195  1.00  0.00    -0.265 OA
HETATM    6  C10 UNL     1      30.301 -12.994 -12.857  1.00  0.00     0.127 C
HETATM    7  C11 UNL     1      30.571 -13.404 -11.429  1.00  0.00     0.027 C
HETATM    8  C12 UNL     1      31.767 -12.830 -10.817  1.00  0.00     0.021 C
ENDROOT
BRANCH   4   9
HETATM    9  C4  UNL     1      31.378 -14.328 -15.584  1.00  0.00     0.142 C
HETATM   10  C5  UNL     1      30.158 -14.071 -16.061  1.00  0.00     0.043 C
HETATM   11  C6  UNL     1      29.293 -14.876 -16.884  1.00  0.00     0.003 C
HETATM   12  C7  UNL     1      29.406 -16.157 -17.176  1.00  0.00     0.002 C
HETATM   13  C8  UNL     1      30.426 -17.086 -16.749  1.00  0.00     0.025 C
HETATM   14  C9  UNL     1      31.582 -16.751 -16.154  1.00  0.00     0.142 C
HETATM   15  O2  UNL     1      32.056 -15.487 -15.821  1.00  0.00    -0.317 OA
ENDBRANCH   4   9
BRANCH   1  16
HETATM   16  N1  UNL     1      33.541 -11.266 -11.014  1.00  0.00    -0.073 N
ATOM     17  H13 UNL     1      33.585 -11.437 -10.010  1.00  0.00     0.274 HD
ATOM     18  H12 UNL     1      34.544 -11.287 -11.197  1.00  0.00     0.274 HD
ATOM     19  H11 UNL     1      33.113 -10.369 -11.247  1.00  0.00     0.274 HD
ENDBRANCH   1  16
BRANCH   8  20
HETATM   20  C13 UNL     1      32.378 -13.760  -9.807  1.00  0.00     0.033 C
BRANCH  20  21
HETATM   21  C14 UNL     1      32.240 -13.385  -8.381  1.00  0.00     0.164 C
BRANCH  21  22
HETATM   22  O3  UNL     1      32.465 -12.062  -8.061  1.00  0.00    -0.401 OA
ATOM     23  H3  UNL     1      31.806 -11.631  -7.530  1.00  0.00     0.209 HD
ENDBRANCH  21  22
ENDBRANCH  20  21
ENDBRANCH   8  20
TORSDOF 5
ENDMDL