MODEL 4
REMARK VINA RESULT: -4.855262710      1.725      2.487
REMARK  7 active torsions:
REMARK  status: ('A' for Active; 'I' for Inactive)
REMARK    1  A    between atoms: C3_4  and  C4_5
REMARK    2  A    between atoms: C5_6  and  O1_7
REMARK    3  A    between atoms: C5_6  and  C6_9
REMARK    4  A    between atoms: C7_10  and  O2_11
REMARK    5  A    between atoms: N2_14  and  C9_15
REMARK    6  A    between atoms: C9_15  and  C11_17
REMARK    7  A    between atoms: C11_17  and  O3_19
ROOT
HETATM    1  C6  UNL     1      34.400  -5.753 -10.953  1.00  0.00     0.136 C
HETATM    2  C7  UNL     1      33.433  -6.639 -10.965  1.00  0.00     0.112 C
HETATM    3  C8  UNL     1      32.065  -6.668 -11.599  1.00  0.00     0.099 C
HETATM    4  N2  UNL     1      31.843  -5.417 -12.196  1.00  0.00    -0.281 NA
HETATM    5  C13 UNL     1      32.854  -5.216 -13.248  1.00  0.00     0.122 C
HETATM    6  C14 UNL     1      33.690  -4.036 -12.738  1.00  0.00     0.190 C
HETATM    7  O4  UNL     1      34.378  -4.510 -11.588  1.00  0.00    -0.344 OA
ENDROOT
BRANCH   1   8
HETATM    8  C5  UNL     1      35.617  -6.043 -10.230  1.00  0.00     0.101 C
HETATM    9  C4  UNL     1      36.721  -6.318 -10.870  1.00  0.00     0.041 C
BRANCH   9  10
HETATM   10  C3  UNL     1      37.985  -6.620 -10.210  1.00  0.00     0.024 C
HETATM   11  C2  UNL     1      38.962  -5.761 -10.126  1.00  0.00     0.020 C
HETATM   12  C1  UNL     1      40.223  -6.118  -9.445  1.00  0.00     0.065 C
HETATM   13  N1  UNL     1      38.836  -4.468 -10.684  1.00  0.00    -0.107 NA
ENDBRANCH   9  10
BRANCH   8  14
HETATM   14  O1  UNL     1      35.603  -6.026  -8.855  1.00  0.00    -0.358 OA
ATOM     15  H1  UNL     1      36.054  -5.337  -8.381  1.00  0.00     0.217 HD
ENDBRANCH   8  14
ENDBRANCH   1   8
BRANCH   2  16
HETATM   16  O2  UNL     1      33.698  -7.803 -10.255  1.00  0.00    -0.357 OA
ATOM     17  H2  UNL     1      33.220  -8.569 -10.549  1.00  0.00     0.218 HD
ENDBRANCH   2  16
BRANCH   4  18
HETATM   18  C9  UNL     1      30.558  -5.029 -12.607  1.00  0.00     0.087 C
HETATM   19  C10 UNL     1      30.456  -4.604 -14.056  1.00  0.00     0.029 C
BRANCH  18  20
HETATM   20  C11 UNL     1      29.459  -5.963 -12.193  1.00  0.00     0.131 C
HETATM   21  C12 UNL     1      28.775  -6.583 -13.411  1.00  0.00     0.041 C
BRANCH  20  22
HETATM   22  O3  UNL     1      28.500  -5.425 -11.371  1.00  0.00    -0.394 OA
ATOM     23  H3  UNL     1      27.773  -5.000 -11.811  1.00  0.00     0.210 HD
ENDBRANCH  20  22
ENDBRANCH  18  20
ENDBRANCH   4  18
TORSDOF 7
ENDMDL