MODEL 1
REMARK VINA RESULT: -5.685832012      0.000      0.000
REMARK  3 active torsions:
REMARK  status: ('A' for Active; 'I' for Inactive)
REMARK    1  A    between atoms: O1_2  and  C2_3
REMARK    2  A    between atoms: C7_8  and  O2_9
REMARK    3  A    between atoms: C11_15  and  C12_16
ROOT
HETATM    1  C2  UNL     1      30.214 -12.607 -13.692  1.00  0.00     0.104 A
HETATM    2  C3  UNL     1      31.392 -11.952 -14.056  1.00  0.00     0.052 A
HETATM    3  C4  UNL     1      32.430 -11.793 -13.149  1.00  0.00    -0.014 A
HETATM    4  C5  UNL     1      32.209 -12.315 -11.904  1.00  0.00    -0.006 A
HETATM    5  C6  UNL     1      31.090 -12.964 -11.481  1.00  0.00     0.112 A
HETATM    6  C7  UNL     1      30.082 -13.102 -12.408  1.00  0.00     0.133 A
HETATM    7  O3  UNL     1      31.077 -13.414 -10.179  1.00  0.00    -0.348 OA
HETATM    8  C8  UNL     1      32.265 -13.718  -9.518  1.00  0.00     0.176 C
HETATM    9  C9  UNL     1      33.528 -13.161 -10.050  1.00  0.00     0.037 C
HETATM   10  C10 UNL     1      33.388 -12.060 -11.058  1.00  0.00     0.039 C
HETATM   11  C11 UNL     1      34.486 -11.928 -12.059  1.00  0.00     0.092 C
HETATM   12  C13 UNL     1      33.776 -11.198 -13.178  1.00  0.00     0.003 C
HETATM   13  C14 UNL     1      34.166 -10.282 -13.992  1.00  0.00     0.136 C
HETATM   14  N1  UNL     1      35.513  -9.803 -13.893  1.00  0.00    -0.086 NA
HETATM   15  N2  UNL     1      33.350  -9.709 -14.984  1.00  0.00    -0.086 NA
ENDROOT
BRANCH  11  16
HETATM   16  C12 UNL     1      34.886 -13.240 -12.617  1.00  0.00     0.241 C
HETATM   17  O4  UNL     1      36.007 -13.436 -13.029  1.00  0.00    -0.306 OA
ENDBRANCH  11  16
BRANCH   1  18
HETATM   18  O1  UNL     1      29.179 -12.753 -14.631  1.00  0.00    -0.353 OA
HETATM   19  C1  UNL     1      29.255 -13.793 -15.569  1.00  0.00     0.210 C
ENDBRANCH   1  18
BRANCH   6  20
HETATM   20  O2  UNL     1      28.930 -13.754 -12.018  1.00  0.00    -0.356 OA
ATOM     21  H2  UNL     1      28.882 -14.703 -12.028  1.00  0.00     0.218 HD
ENDBRANCH   6  20
TORSDOF 3
ENDMDL