MODEL 2
REMARK VINA RESULT: -5.346086884      2.046      3.160
REMARK  5 active torsions:
REMARK  status: ('A' for Active; 'I' for Inactive)
REMARK    1  A    between atoms: C3_3  and  O1_4
REMARK    2  A    between atoms: O1_4  and  C4_5
REMARK    3  A    between atoms: C8_9  and  N1_10
REMARK       I    between atoms: N1_10  and  C9_12
REMARK       I    between atoms: C9_12  and  N2_14
REMARK    4  A    between atoms: N2_14  and  C10_16
REMARK    5  A    between atoms: C14_21  and  O4_22
ROOT
HETATM    1  N1  UNL     1      29.952  -6.914 -12.370  1.00  0.00    -0.336 N
ATOM      2  H1  UNL     1      29.748  -7.766 -12.893  1.00  0.00     0.164 HD
HETATM    3  C9  UNL     1      31.285  -6.582 -12.050  1.00  0.00     0.321 C
HETATM    4  O2  UNL     1      31.520  -5.533 -11.407  1.00  0.00    -0.247 OA
HETATM    5  N2  UNL     1      32.326  -7.442 -12.463  1.00  0.00    -0.306 N
ATOM      6  H2  UNL     1      32.121  -8.292 -12.988  1.00  0.00     0.170 HD
ENDROOT
BRANCH   1   7
HETATM    7  C8  UNL     1      28.879  -6.045 -11.955  1.00  0.00     0.115 C
HETATM    8  C4  UNL     1      28.411  -5.151 -13.077  1.00  0.00     0.150 C
HETATM    9  C5  UNL     1      26.927  -5.048 -12.784  1.00  0.00     0.034 C
HETATM   10  C6  UNL     1      26.606  -6.536 -12.592  1.00  0.00     0.005 C
HETATM   11  C7  UNL     1      27.675  -6.894 -11.558  1.00  0.00     0.028 C
BRANCH   8  12
HETATM   12  O1  UNL     1      29.049  -3.913 -13.114  1.00  0.00    -0.356 OA
BRANCH  12  13
HETATM   13  C3  UNL     1      29.984  -3.549 -14.054  1.00  0.00     0.131 C
HETATM   14  C2  UNL     1      30.935  -2.680 -13.706  1.00  0.00    -0.007 C
HETATM   15  C1  UNL     1      30.992  -2.114 -12.346  1.00  0.00     0.038 C
ENDBRANCH  12  13
ENDBRANCH   8  12
ENDBRANCH   1   7
BRANCH   5  16
HETATM   16  C10 UNL     1      33.665  -7.099 -12.132  1.00  0.00     0.069 A
HETATM   17  C11 UNL     1      34.332  -6.306 -12.939  1.00  0.00     0.032 A
HETATM   18  C12 UNL     1      35.721  -5.917 -12.650  1.00  0.00     0.204 A
HETATM   19  O3  UNL     1      36.200  -6.474 -11.480  1.00  0.00    -0.356 OA
HETATM   20  C13 UNL     1      35.533  -7.289 -10.638  1.00  0.00     0.173 A
HETATM   21  C14 UNL     1      34.271  -7.627 -10.922  1.00  0.00     0.114 A
BRANCH  21  22
HETATM   22  O4  UNL     1      33.572  -8.465 -10.065  1.00  0.00    -0.357 OA
ATOM     23  H4  UNL     1      33.958  -8.788  -9.259  1.00  0.00     0.218 HD
ENDBRANCH  21  22
ENDBRANCH   5  16
TORSDOF 5
ENDMDL