MODEL 3
REMARK VINA RESULT: -4.912867691      5.026      7.567
REMARK  4 active torsions:
REMARK  status: ('A' for Active; 'I' for Inactive)
REMARK    1  A    between atoms: C1_2  and  C2_4
REMARK    2  A    between atoms: C2_4  and  N2_5
REMARK    3  A    between atoms: C5_11  and  O2_12
REMARK    4  A    between atoms: O2_12  and  C6_13
ROOT
HETATM    1  C2  UNL     1      28.207  -5.785 -12.464  1.00  0.00     0.203 C
HETATM    2  C3  UNL     1      28.210  -7.266 -12.748  1.00  0.00     0.051 C
HETATM    3  C4  UNL     1      29.640  -7.708 -12.794  1.00  0.00     0.035 C
HETATM    4  C5  UNL     1      30.428  -6.546 -12.210  1.00  0.00     0.132 C
HETATM    5  C13 UNL     1      29.622  -5.353 -12.705  1.00  0.00     0.081 C
ENDROOT
BRANCH   4   6
HETATM    6  O2  UNL     1      31.690  -6.461 -12.781  1.00  0.00    -0.346 OA
BRANCH   6   7
HETATM    7  C6  UNL     1      32.848  -5.983 -12.243  1.00  0.00     0.072 A
HETATM    8  C7  UNL     1      33.308  -4.734 -12.542  1.00  0.00     0.039 A
HETATM    9  C8  UNL     1      34.497  -4.287 -11.968  1.00  0.00     0.042 A
HETATM   10  C9  UNL     1      35.226  -5.074 -11.103  1.00  0.00     0.105 A
HETATM   11  C10 UNL     1      34.758  -6.336 -10.802  1.00  0.00     0.107 A
HETATM   12  O4  UNL     1      36.418  -4.875 -10.406  1.00  0.00    -0.323 OA
HETATM   13  C11 UNL     1      33.588  -6.762 -11.373  1.00  0.00     0.076 A
HETATM   14  O3  UNL     1      35.677  -6.914  -9.911  1.00  0.00    -0.323 OA
HETATM   15  C12 UNL     1      36.875  -6.159 -10.038  1.00  0.00     0.352 C
ENDBRANCH   6   7
ENDBRANCH   4   6
BRANCH   1  16
HETATM   16  C1  UNL     1      27.315  -5.062 -13.423  1.00  0.00     0.267 C
HETATM   17  N1  UNL     1      27.731  -4.792 -14.744  1.00  0.00    -0.060 NA
HETATM   18  O1  UNL     1      26.171  -4.679 -13.071  1.00  0.00    -0.274 OA
ENDBRANCH   1  16
BRANCH   1  19
HETATM   19  N2  UNL     1      27.769  -5.497 -11.119  1.00  0.00    -0.062 N
ATOM     20  H23 UNL     1      27.565  -4.507 -10.978  1.00  0.00     0.275 HD
ATOM     21  H22 UNL     1      26.836  -5.862 -10.926  1.00  0.00     0.275 HD
ATOM     22  H21 UNL     1      28.468  -5.848 -10.465  1.00  0.00     0.275 HD
ENDBRANCH   1  19
TORSDOF 4
ENDMDL