MODEL 1
REMARK VINA RESULT: -5.656386195      0.000      0.000
REMARK  4 active torsions:
REMARK  status: ('A' for Active; 'I' for Inactive)
REMARK    1  A    between atoms: C5_5  and  O1_6
REMARK    2  A    between atoms: C5_5  and  C6_8
REMARK    3  A    between atoms: C6_8  and  N1_9
REMARK       I    between atoms: N1_9  and  C7_11
REMARK    4  A    between atoms: C7_11  and  C8_13
ROOT
HETATM    1  N1  UNL     1      34.547  -9.851 -10.801  1.00  0.00    -0.356 N
ATOM      2  H1  UNL     1      35.255  -9.994 -10.082  1.00  0.00     0.162 HD
HETATM    3  C7  UNL     1      34.146 -10.927 -11.626  1.00  0.00     0.247 C
HETATM    4  O2  UNL     1      33.274 -10.728 -12.505  1.00  0.00    -0.271 OA
ENDROOT
BRANCH   1   5
HETATM    5  C6  UNL     1      33.954  -8.561 -10.981  1.00  0.00     0.162 C
BRANCH   5   6
HETATM    6  C5  UNL     1      35.017  -7.501 -10.891  1.00  0.00     0.098 C
HETATM    7  C4  UNL     1      36.409  -8.114 -11.022  1.00  0.00     0.079 C
HETATM    8  C2  UNL     1      37.164  -6.871 -11.511  1.00  0.00     0.056 C
HETATM    9  C1  UNL     1      37.485  -5.995 -10.302  1.00  0.00     0.045 C
HETATM   10  C3  UNL     1      38.432  -7.308 -12.166  1.00  0.00     0.045 C
HETATM   11  O4  UNL     1      36.307  -6.176 -12.315  1.00  0.00    -0.378 OA
HETATM   12  C14 UNL     1      35.019  -6.569 -12.074  1.00  0.00     0.208 C
BRANCH   6  13
HETATM   13  O1  UNL     1      34.928  -6.764  -9.738  1.00  0.00    -0.386 OA
ATOM     14  H1  UNL     1      34.925  -5.835  -9.940  1.00  0.00     0.210 HD
ENDBRANCH   6  13
ENDBRANCH   5   6
ENDBRANCH   1   5
BRANCH   3  15
HETATM   15  C8  UNL     1      34.744 -12.283 -11.464  1.00  0.00     0.225 C
HETATM   16  C9  UNL     1      34.910 -12.552  -9.962  1.00  0.00     0.085 C
HETATM   17  C10 UNL     1      33.507 -12.867  -9.595  1.00  0.00    -0.005 A
HETATM   18  C11 UNL     1      32.581 -12.907  -8.580  1.00  0.00     0.097 A
HETATM   19  C13 UNL     1      32.879 -13.293 -10.741  1.00  0.00     0.093 A
HETATM   20  N2  UNL     1      31.412 -13.345  -9.080  1.00  0.00    -0.372 N
HETATM   21  C12 UNL     1      31.569 -13.586 -10.391  1.00  0.00     0.124 A
ATOM     22  H2  UNL     1      30.549 -13.473  -8.551  1.00  0.00     0.164 HD
HETATM   23  O3  UNL     1      33.789 -13.269 -11.810  1.00  0.00    -0.334 OA
ENDBRANCH   3  15
TORSDOF 4
ENDMDL