MODEL 3
REMARK VINA RESULT: -4.678307431      2.248      5.774
REMARK  3 active torsions:
REMARK  status: ('A' for Active; 'I' for Inactive)
REMARK    1  A    between atoms: C4_7  and  C5_8
REMARK    2  A    between atoms: C7_11  and  O2_12
REMARK    3  A    between atoms: C9_14  and  C10_15
ROOT
HETATM    1  C5  UNL     1      32.683 -12.117 -12.670  1.00  0.00     0.091 A
HETATM    2  C6  UNL     1      31.487 -12.275 -13.138  1.00  0.00     0.110 A
HETATM    3  N2  UNL     1      30.808 -13.497 -13.054  1.00  0.00    -0.097 NA
HETATM    4  C7  UNL     1      30.771 -11.180 -13.788  1.00  0.00     0.106 A
HETATM    5  C9  UNL     1      31.292  -9.983 -13.934  1.00  0.00     0.039 A
HETATM    6  C11 UNL     1      32.657  -9.732 -13.421  1.00  0.00     0.220 A
HETATM    7  O4  UNL     1      33.252 -10.828 -12.822  1.00  0.00    -0.347 OA
ENDROOT
BRANCH   1   8
HETATM    8  C4  UNL     1      33.560 -13.063 -11.999  1.00  0.00     0.171 C
HETATM    9  C3  UNL     1      34.759 -13.271 -12.894  1.00  0.00     0.237 C
HETATM   10  N1  UNL     1      35.806 -12.521 -12.317  1.00  0.00    -0.326 N
HETATM   11  O1  UNL     1      34.761 -13.966 -13.908  1.00  0.00    -0.272 OA
HETATM   12  C2  UNL     1      35.442 -12.208 -10.956  1.00  0.00     0.032 C
ATOM     13  H1  UNL     1      36.671 -12.247 -12.783  1.00  0.00     0.169 HD
HETATM   14  C1  UNL     1      36.205 -11.521 -10.154  1.00  0.00     0.043 C
HETATM   15  C12 UNL     1      34.108 -12.800 -10.700  1.00  0.00    -0.017 C
HETATM   16  C13 UNL     1      33.622 -13.032  -9.508  1.00  0.00    -0.020 C
HETATM   17  C14 UNL     1      32.293 -13.624  -9.218  1.00  0.00     0.036 C
ENDBRANCH   1   8
BRANCH   4  18
HETATM   18  O2  UNL     1      29.474 -11.365 -14.292  1.00  0.00    -0.353 OA
HETATM   19  C8  UNL     1      29.318 -11.921 -15.606  1.00  0.00     0.210 C
ENDBRANCH   4  18
BRANCH   5  20
HETATM   20  C10 UNL     1      30.569  -8.891 -14.586  1.00  0.00     0.270 C
HETATM   21  O3  UNL     1      29.893  -8.090 -13.899  1.00  0.00    -0.302 OA
ENDBRANCH   5  20
TORSDOF 3
ENDMDL