MODEL 4
REMARK VINA RESULT: -5.124111791      1.774      2.150
REMARK  2 active torsions:
REMARK  status: ('A' for Active; 'I' for Inactive)
REMARK    1  A    between atoms: C2_2  and  C3_3
REMARK    2  A    between atoms: C11_17  and  O3_18
ROOT
HETATM    1  C3  UNL     1      32.937  -9.052 -12.878  1.00  0.00     0.138 C
HETATM    2  C4  UNL     1      34.015  -9.862 -12.215  1.00  0.00     0.156 C
HETATM    3  N1  UNL     1      34.618 -10.716 -13.202  1.00  0.00    -0.340 N
ATOM      4  H1  UNL     1      34.734 -10.338 -14.142  1.00  0.00     0.164 HD
HETATM    5  C5  UNL     1      35.065 -12.042 -12.975  1.00  0.00     0.320 C
HETATM    6  O1  UNL     1      35.738 -12.559 -13.938  1.00  0.00    -0.247 OA
HETATM    7  N2  UNL     1      34.853 -12.831 -11.824  1.00  0.00    -0.309 N
ATOM      8  H2  UNL     1      35.675 -13.293 -11.436  1.00  0.00     0.170 HD
HETATM    9  C6  UNL     1      33.630 -13.056 -11.147  1.00  0.00     0.045 A
HETATM   10  C7  UNL     1      33.683 -13.141  -9.818  1.00  0.00     0.030 A
HETATM   11  C8  UNL     1      32.512 -13.371  -8.946  1.00  0.00     0.204 A
HETATM   12  O2  UNL     1      31.295 -13.511  -9.615  1.00  0.00    -0.359 OA
HETATM   13  C9  UNL     1      31.229 -13.428 -10.974  1.00  0.00     0.147 A
HETATM   14  C10 UNL     1      32.312 -13.213 -11.735  1.00  0.00     0.019 A
HETATM   15  C11 UNL     1      32.008 -13.163 -13.190  1.00  0.00     0.155 C
HETATM   16  C12 UNL     1      31.069 -12.018 -13.467  1.00  0.00     0.039 C
HETATM   17  C13 UNL     1      31.416 -11.310 -14.748  1.00  0.00     0.029 C
HETATM   18  C14 UNL     1      31.452  -9.823 -14.450  1.00  0.00     0.168 C
HETATM   19  O4  UNL     1      32.752  -9.465 -14.195  1.00  0.00    -0.384 OA
ENDROOT
BRANCH   1  20
HETATM   20  C2  UNL     1      33.268  -7.571 -12.932  1.00  0.00     0.029 C
HETATM   21  C1  UNL     1      32.966  -6.878 -11.638  1.00  0.00     0.007 C
ENDBRANCH   1  20
BRANCH  15  22
HETATM   22  O3  UNL     1      31.287 -14.356 -13.458  1.00  0.00    -0.391 OA
ATOM     23  H3  UNL     1      30.917 -14.232 -14.324  1.00  0.00     0.210 HD
ENDBRANCH  15  22
TORSDOF 2
ENDMDL