MODEL 5
REMARK VINA RESULT: -4.998919676      1.053      1.363
REMARK  11 active torsions:
REMARK  status: ('A' for Active; 'I' for Inactive)
REMARK    1  A    between atoms: C2_2  and  O1_3
REMARK    2  A    between atoms: O1_3  and  C3_4
REMARK    3  A    between atoms: C3_4  and  C4_5
REMARK    4  A    between atoms: C4_5  and  C5_6
REMARK    5  A    between atoms: C5_6  and  C6_7
REMARK    6  A    between atoms: C6_7  and  C7_8
REMARK    7  A    between atoms: C7_8  and  N1_9
REMARK    8  A    between atoms: N1_9  and  C8_11
REMARK    9  A    between atoms: C8_11  and  O2_12
REMARK   10  A    between atoms: C8_11  and  C9_14
REMARK   11  A    between atoms: C10_17  and  O3_18
ROOT
HETATM    1  C8  UNL     1      30.214 -13.355 -12.515  1.00  0.00     0.164 C
ENDROOT
BRANCH   1   2
HETATM    2  N1  UNL     1      30.436 -13.117 -13.868  1.00  0.00    -0.369 N
ATOM      3  H1  UNL     1      30.981 -13.768 -14.433  1.00  0.00     0.161 HD
BRANCH   2   4
HETATM    4  C7  UNL     1      29.861 -11.896 -14.463  1.00  0.00     0.121 C
BRANCH   4   5
HETATM    5  C6  UNL     1      30.301 -10.656 -13.711  1.00  0.00     0.020 C
BRANCH   5   6
HETATM    6  C5  UNL     1      29.860  -9.441 -14.476  1.00  0.00     0.004 C
BRANCH   6   7
HETATM    7  C4  UNL     1      30.313  -8.138 -13.792  1.00  0.00     0.026 C
BRANCH   7   8
HETATM    8  C3  UNL     1      29.347  -7.698 -12.756  1.00  0.00     0.167 C
BRANCH   8   9
HETATM    9  O1  UNL     1      29.751  -6.723 -11.939  1.00  0.00    -0.391 OA
BRANCH   9  10
HETATM   10  C2  UNL     1      31.007  -6.272 -11.847  1.00  0.00     0.163 C
HETATM   11  C1  UNL     1      31.269  -4.811 -11.914  1.00  0.00     0.033 C
ENDBRANCH   9  10
ENDBRANCH   8   9
ENDBRANCH   7   8
ENDBRANCH   6   7
ENDBRANCH   5   6
ENDBRANCH   4   5
ENDBRANCH   2   4
ENDBRANCH   1   2
BRANCH   1  12
HETATM   12  O2  UNL     1      28.988 -13.631 -12.165  1.00  0.00    -0.345 OA
ATOM     13  H2  UNL     1      28.737 -14.548 -12.182  1.00  0.00     0.219 HD
ENDBRANCH   1  12
BRANCH   1  14
HETATM   14  C9  UNL     1      31.200 -13.325 -11.459  1.00  0.00     0.091 A
HETATM   15  N2  UNL     1      30.920 -13.734 -10.167  1.00  0.00    -0.333 N
HETATM   16  C10 UNL     1      32.014 -13.606  -9.437  1.00  0.00     0.147 A
ATOM     17  H2  UNL     1      30.020 -14.076  -9.833  1.00  0.00     0.168 HD
HETATM   18  C11 UNL     1      33.018 -13.115 -10.233  1.00  0.00    -0.003 A
HETATM   19  C12 UNL     1      34.412 -12.813  -9.847  1.00  0.00     0.053 C
HETATM   20  C13 UNL     1      32.498 -12.936 -11.530  1.00  0.00    -0.021 A
HETATM   21  C14 UNL     1      33.289 -12.432 -12.677  1.00  0.00     0.051 C
BRANCH  16  22
HETATM   22  O3  UNL     1      32.139 -13.919  -8.065  1.00  0.00    -0.346 OA
ATOM     23  H3  UNL     1      32.930 -13.847  -7.545  1.00  0.00     0.219 HD
ENDBRANCH  16  22
ENDBRANCH   1  14
TORSDOF 11
ENDMDL