MODEL 5
REMARK VINA RESULT: -5.124070139      2.680      6.124
REMARK  2 active torsions:
REMARK  status: ('A' for Active; 'I' for Inactive)
REMARK    1  A    between atoms: C3_3  and  N1_4
REMARK    2  A    between atoms: C6_7  and  C7_8
ROOT
HETATM    1  N1  UNL     1       9.620  -4.459   4.112  1.00  0.00     0.100 N
HETATM    2  C4  UNL     1       9.788  -3.050   4.308  1.00  0.00     0.276 C
HETATM    3  C5  UNL     1       8.523  -3.159   5.193  1.00  0.00     0.068 C
HETATM    4  C6  UNL     1       8.211  -4.195   4.125  1.00  0.00     0.254 C
ENDROOT
BRANCH   1   5
HETATM    5  C3  UNL     1      10.181  -5.370   5.040  1.00  0.00     0.226 C
HETATM    6  C2  UNL     1      10.360  -6.710   4.329  1.00  0.00     0.063 C
HETATM    7  C1  UNL     1      11.518  -7.503   4.896  1.00  0.00     0.234 C
HETATM    8  N2  UNL     1      12.787  -6.852   4.614  1.00  0.00    -0.075 N
HETATM    9  C14 UNL     1      12.596  -5.411   4.457  1.00  0.00     0.234 C
ATOM     10  H22 UNL     1      13.490  -7.066   5.322  1.00  0.00     0.277 HD
ATOM     11  H21 UNL     1      13.254  -7.263   3.807  1.00  0.00     0.277 HD
HETATM   12  C13 UNL     1      11.590  -5.005   5.495  1.00  0.00     0.063 C
ENDBRANCH   1   5
BRANCH   4  13
HETATM   13  C7  UNL     1       7.260  -5.268   4.431  1.00  0.00     0.159 C
HETATM   14  O1  UNL     1       7.161  -6.120   3.316  1.00  0.00    -0.378 OA
HETATM   15  C8  UNL     1       5.884  -6.039   2.826  1.00  0.00     0.122 C
HETATM   16  C9  UNL     1       4.963  -6.749   3.799  1.00  0.00     0.032 C
HETATM   17  C12 UNL     1       5.465  -4.591   3.162  1.00  0.00     0.039 C
HETATM   18  C10 UNL     1       4.962  -5.848   5.040  1.00  0.00     0.010 C
HETATM   19  C11 UNL     1       5.866  -4.711   4.621  1.00  0.00     0.019 C
ENDBRANCH   4  13
TORSDOF 2
ENDMDL