MODEL 3
REMARK VINA RESULT: -4.791059570      2.671      4.734
REMARK  2 active torsions:
REMARK  status: ('A' for Active; 'I' for Inactive)
REMARK    1  A    between atoms: O1_1  and  C1_3
REMARK    2  A    between atoms: C1_3  and  C2_4
ROOT
HETATM    1  C2  UNL     1       6.855  -1.229   6.317  1.00  0.00     0.085 C
HETATM    2  N1  UNL     1       5.579  -1.626   6.597  1.00  0.00    -0.379 N
HETATM    3  C3  UNL     1       5.087  -2.916   6.456  1.00  0.00     0.084 C
HETATM    4  C4  UNL     1       4.721  -3.491   7.786  1.00  0.00     0.025 C
HETATM    5  C5  UNL     1       4.273  -2.539   8.820  1.00  0.00     0.004 C
HETATM    6  C6  UNL     1       4.175  -1.115   8.462  1.00  0.00     0.028 C
HETATM    7  C7  UNL     1       4.625  -0.713   7.108  1.00  0.00     0.118 C
HETATM    8  C8  UNL     1       3.508  -0.619   6.083  1.00  0.00     0.081 C
HETATM    9  C9  UNL     1       2.603   0.543   6.314  1.00  0.00     0.040 C
HETATM   10  C10 UNL     1       3.209   1.749   5.578  1.00  0.00     0.005 C
HETATM   11  C11 UNL     1       2.978   1.504   4.088  1.00  0.00     0.026 C
HETATM   12  C12 UNL     1       3.147   0.011   3.882  1.00  0.00     0.168 C
HETATM   13  O2  UNL     1       4.083  -0.443   4.810  1.00  0.00    -0.378 OA
HETATM   14  C13 UNL     1       2.812  -1.948   6.038  1.00  0.00     0.042 C
HETATM   15  C14 UNL     1       3.818  -2.990   5.586  1.00  0.00     0.028 C
ENDROOT
BRANCH   1  16
HETATM   16  C1  UNL     1       7.995  -1.705   7.170  1.00  0.00     0.208 C
BRANCH  16  17
HETATM   17  O1  UNL     1       7.725  -1.648   8.535  1.00  0.00    -0.396 OA
ATOM     18  H1  UNL     1       7.484  -2.489   8.907  1.00  0.00     0.209 HD
ENDBRANCH  16  17
ENDBRANCH   1  16
TORSDOF 2
ENDMDL