MODEL 3
REMARK VINA RESULT: -4.793926941      2.287      3.635
REMARK  3 active torsions:
REMARK  status: ('A' for Active; 'I' for Inactive)
REMARK    1  A    between atoms: C2_2  and  N1_3
REMARK    2  A    between atoms: N1_3  and  C4_5
REMARK    3  A    between atoms: C8_10  and  O2_11
ROOT
HETATM    1  C4  UNL     1       6.975  -1.783   5.960  1.00  0.00     0.150 C
HETATM    2  C5  UNL     1       5.696  -2.583   5.998  1.00  0.00     0.029 C
HETATM    3  C6  UNL     1       5.028  -2.634   7.326  1.00  0.00     0.017 C
HETATM    4  C7  UNL     1       5.823  -2.241   8.511  1.00  0.00     0.176 C
HETATM    5  O1  UNL     1       6.870  -1.381   8.257  1.00  0.00    -0.353 OA
HETATM    6  C8  UNL     1       6.765  -0.734   7.033  1.00  0.00     0.183 C
HETATM    7  C9  UNL     1       5.488   0.023   6.856  1.00  0.00     0.076 C
HETATM    8  C10 UNL     1       4.356  -0.696   6.236  1.00  0.00     0.000 C
HETATM    9  C11 UNL     1       3.816  -1.690   7.282  1.00  0.00     0.012 C
HETATM   10  C12 UNL     1       4.717  -1.714   5.187  1.00  0.00    -0.030 A
HETATM   11  C13 UNL     1       3.752  -2.289   4.269  1.00  0.00     0.011 A
HETATM   12  C14 UNL     1       4.948  -1.403   3.785  1.00  0.00     0.011 A
ENDROOT
BRANCH   1  13
HETATM   13  N1  UNL     1       8.160  -2.495   6.048  1.00  0.00    -0.388 N
HETATM   14  C3  UNL     1       9.151  -2.186   6.991  1.00  0.00     0.149 C
BRANCH  13  15
HETATM   15  C2  UNL     1       8.514  -3.336   4.975  1.00  0.00     0.054 C
HETATM   16  C1  UNL     1      10.001  -3.481   4.748  1.00  0.00     0.054 C
ENDBRANCH  13  15
ENDBRANCH   1  13
BRANCH   6  17
HETATM   17  O2  UNL     1       7.842   0.149   6.968  1.00  0.00    -0.364 OA
ATOM     18  H2  UNL     1       8.066   0.388   7.860  1.00  0.00     0.213 HD
ENDBRANCH   6  17
TORSDOF 3
ENDMDL