MODEL 5
REMARK VINA RESULT: -5.889947118      5.946      7.911
REMARK  3 active torsions:
REMARK  status: ('A' for Active; 'I' for Inactive)
REMARK    1  A    between atoms: C3_3  and  N1_4
REMARK    2  A    between atoms: N2_7  and  C6_8
REMARK    3  A    between atoms: C13_15  and  O1_16
ROOT
HETATM    1  C1  UNL     1       1.683  -0.012   8.251  1.00  0.00     0.013 C
HETATM    2  C2  UNL     1       2.752  -0.530   8.461  1.00  0.00    -0.087 C
HETATM    3  C3  UNL     1       4.025  -1.169   8.695  1.00  0.00     0.365 C
ENDROOT
BRANCH   3   4
HETATM    4  N1  UNL     1       4.712  -1.491   7.432  1.00  0.00     0.105 N
HETATM    5  C4  UNL     1       5.466  -2.690   7.688  1.00  0.00     0.293 C
HETATM    6  C5  UNL     1       6.908  -2.335   7.993  1.00  0.00     0.150 C
HETATM    7  N2  UNL     1       7.467  -1.757   6.818  1.00  0.00    -0.380 N
HETATM    8  C13 UNL     1       6.784  -0.602   6.381  1.00  0.00     0.244 C
HETATM    9  C14 UNL     1       5.480  -0.337   7.086  1.00  0.00     0.326 C
BRANCH   7  10
HETATM   10  C6  UNL     1       7.904  -2.692   5.857  1.00  0.00     0.081 C
HETATM   11  C7  UNL     1       9.397  -2.672   5.610  1.00  0.00     0.025 C
HETATM   12  C8  UNL     1      10.040  -4.018   5.717  1.00  0.00     0.002 C
HETATM   13  C9  UNL     1       9.526  -5.076   4.853  1.00  0.00     0.000 C
HETATM   14  C10 UNL     1       8.163  -4.928   4.270  1.00  0.00     0.000 C
HETATM   15  C11 UNL     1       7.917  -3.628   3.590  1.00  0.00     0.002 C
HETATM   16  C12 UNL     1       7.207  -2.661   4.535  1.00  0.00     0.025 C
ENDBRANCH   7  10
BRANCH   8  17
HETATM   17  O1  UNL     1       7.620   0.504   6.698  1.00  0.00    -0.375 OA
ATOM     18  H1  UNL     1       7.090   1.103   7.210  1.00  0.00     0.212 HD
ENDBRANCH   8  17
ENDBRANCH   3   4
TORSDOF 3
ENDMDL