MODEL 3
REMARK VINA RESULT: -6.347536761      1.738      2.705
REMARK  2 active torsions:
REMARK  status: ('A' for Active; 'I' for Inactive)
REMARK       I    between atoms: C1_2  and  N1_3
REMARK    1  A    between atoms: C1_2  and  C10_15
REMARK    2  A    between atoms: N1_3  and  C2_5
ROOT
HETATM    1  C2  UNL     1       8.264  -3.110   5.815  1.00  0.00     0.089 C
HETATM    2  C3  UNL     1       7.916  -1.963   6.713  1.00  0.00     0.030 C
HETATM    3  C4  UNL     1       6.814  -1.192   6.034  1.00  0.00     0.071 C
HETATM    4  C5  UNL     1       6.160  -2.157   5.072  1.00  0.00     0.165 C
HETATM    5  C6  UNL     1       7.030  -3.365   5.008  1.00  0.00     0.093 C
HETATM    6  O2  UNL     1       4.892  -2.448   5.624  1.00  0.00    -0.355 OA
HETATM    7  C7  UNL     1       4.029  -1.462   5.106  1.00  0.00     0.173 C
HETATM    8  C8  UNL     1       3.677  -1.983   3.703  1.00  0.00     0.053 C
HETATM    9  C9  UNL     1       5.037  -2.239   3.039  1.00  0.00     0.173 C
HETATM   10  O3  UNL     1       5.982  -1.571   3.811  1.00  0.00    -0.355 OA
ENDROOT
BRANCH   1  11
HETATM   11  N1  UNL     1       9.404  -2.737   5.006  1.00  0.00    -0.356 N
HETATM   12  C1  UNL     1      10.584  -3.519   5.013  1.00  0.00     0.222 C
HETATM   13  O1  UNL     1      10.645  -4.552   5.724  1.00  0.00    -0.273 OA
ATOM     14  H1  UNL     1       9.358  -1.900   4.425  1.00  0.00     0.162 HD
BRANCH  12  15
HETATM   15  C10 UNL     1      11.771  -3.165   4.200  1.00  0.00     0.078 C
HETATM   16  C11 UNL     1      13.009  -3.953   4.612  1.00  0.00     0.014 C
HETATM   17  C12 UNL     1      13.793  -2.652   4.486  1.00  0.00     0.002 C
HETATM   18  C13 UNL     1      12.478  -1.932   4.728  1.00  0.00     0.014 C
ENDBRANCH  12  15
ENDBRANCH   1  11
TORSDOF 2
ENDMDL