MODEL 1
REMARK VINA RESULT: -5.773514735      0.000      0.000
REMARK  2 active torsions:
REMARK  status: ('A' for Active; 'I' for Inactive)
REMARK    1  A    between atoms: N2_4  and  N3_6
REMARK       I    between atoms: N3_6  and  C3_8
REMARK    2  A    between atoms: C3_8  and  C4_10
ROOT
HETATM    1  N1  UNL     1      13.347  -4.659   4.354  1.00  0.00    -0.191 NA
HETATM    2  C1  UNL     1      12.306  -4.476   4.819  1.00  0.00     0.106 C
HETATM    3  C2  UNL     1      11.027  -4.226   5.392  1.00  0.00     0.200 C
HETATM    4  N2  UNL     1      10.458  -3.095   5.220  1.00  0.00    -0.299 N
ATOM      5  H2  UNL     1      10.943  -2.389   4.667  1.00  0.00     0.186 HD
ENDROOT
BRANCH   4   6
HETATM    6  N3  UNL     1       9.218  -2.777   5.745  1.00  0.00    -0.269 N
HETATM    7  C3  UNL     1       8.046  -2.937   4.982  1.00  0.00     0.244 C
HETATM    8  O1  UNL     1       8.163  -3.383   3.792  1.00  0.00    -0.271 OA
ATOM      9  H3  UNL     1       9.151  -2.422   6.699  1.00  0.00     0.190 HD
BRANCH   7  10
HETATM   10  C4  UNL     1       6.696  -2.623   5.466  1.00  0.00     0.043 C
HETATM   11  C5  UNL     1       6.840  -1.945   6.817  1.00  0.00     0.024 C
HETATM   12  C6  UNL     1       5.494  -1.483   7.328  1.00  0.00    -0.013 C
HETATM   13  C7  UNL     1       4.630  -2.725   7.486  1.00  0.00     0.009 C
HETATM   14  C11 UNL     1       4.910  -0.530   6.306  1.00  0.00     0.009 C
HETATM   15  C8  UNL     1       4.487  -3.403   6.145  1.00  0.00    -0.013 C
HETATM   16  C9  UNL     1       3.797  -2.440   5.216  1.00  0.00     0.009 C
HETATM   17  C13 UNL     1       5.828  -3.855   5.601  1.00  0.00     0.024 C
HETATM   18  C10 UNL     1       4.689  -1.243   5.015  1.00  0.00    -0.013 C
HETATM   19  C12 UNL     1       6.020  -1.705   4.480  1.00  0.00     0.024 C
ENDBRANCH   7  10
ENDBRANCH   4   6
TORSDOF 2
ENDMDL