MODEL 4
REMARK VINA RESULT: -6.007948060      2.992      5.093
REMARK  3 active torsions:
REMARK  status: ('A' for Active; 'I' for Inactive)
REMARK    1  A    between atoms: N1_2  and  N2_3
REMARK    2  A    between atoms: N1_2  and  C2_6
REMARK    3  A    between atoms: C7_11  and  C8_12
ROOT
HETATM    1  C2  UNL     1       9.648  -6.766   4.843  1.00  0.00     0.083 C
HETATM    2  C3  UNL     1      10.993  -7.391   4.594  1.00  0.00     0.022 C
HETATM    3  C4  UNL     1      12.167  -6.535   4.936  1.00  0.00     0.002 C
HETATM    4  C5  UNL     1      12.015  -5.092   4.542  1.00  0.00     0.001 C
HETATM    5  C6  UNL     1      10.756  -4.607   5.247  1.00  0.00     0.007 C
HETATM    6  C7  UNL     1       9.600  -5.331   4.531  1.00  0.00     0.012 C
ENDROOT
BRANCH   6   7
HETATM    7  C8  UNL     1       8.409  -4.549   4.740  1.00  0.00     0.027 C
HETATM    8  C9  UNL     1       7.040  -4.990   4.372  1.00  0.00     0.128 C
HETATM    9  C10 UNL     1       7.154  -4.249   3.036  1.00  0.00     0.040 C
HETATM   10  O1  UNL     1       6.252  -4.022   5.047  1.00  0.00    -0.375 OA
HETATM   11  C11 UNL     1       8.049  -3.377   3.880  1.00  0.00     0.029 C
HETATM   12  C12 UNL     1       6.920  -2.799   4.768  1.00  0.00     0.058 C
HETATM   13  C13 UNL     1       7.466  -2.241   6.047  1.00  0.00     0.046 C
HETATM   14  C14 UNL     1       6.059  -1.844   4.014  1.00  0.00     0.046 C
ENDBRANCH   6   7
BRANCH   1  15
HETATM   15  N1  UNL     1       8.756  -7.439   3.881  1.00  0.00    -0.237 NA
HETATM   16  C1  UNL     1       7.563  -7.940   4.481  1.00  0.00     0.136 C
BRANCH  15  17
HETATM   17  N2  UNL     1       9.507  -8.426   3.237  1.00  0.00    -0.363 NA
ATOM     18  H22 UNL     1       9.770  -9.114   3.943  1.00  0.00     0.171 HD
ATOM     19  H21 UNL     1       9.030  -8.838   2.436  1.00  0.00     0.171 HD
ENDBRANCH  15  17
ENDBRANCH   1  15
TORSDOF 3
ENDMDL