MODEL 3
REMARK VINA RESULT: -5.403196640      2.039      2.616
REMARK  2 active torsions:
REMARK  status: ('A' for Active; 'I' for Inactive)
REMARK    1  A    between atoms: N1_7  and  C7_8
REMARK    2  A    between atoms: C7_8  and  C8_9
ROOT
HETATM    1  C1  UNL     1       3.618  -4.524   5.269  1.00  0.00     0.027 C
HETATM    2  C2  UNL     1       3.825  -3.089   4.841  1.00  0.00     0.004 C
HETATM    3  C3  UNL     1       4.828  -3.106   3.680  1.00  0.00     0.039 C
HETATM    4  C4  UNL     1       6.168  -3.468   4.221  1.00  0.00     0.129 C
HETATM    5  C5  UNL     1       7.075  -4.144   3.224  1.00  0.00     0.069 C
HETATM    6  C6  UNL     1       8.375  -4.499   3.856  1.00  0.00     0.275 C
HETATM    7  N1  UNL     1       8.977  -3.453   4.614  1.00  0.00     0.091 N
HETATM    8  C12 UNL     1       8.107  -2.622   5.372  1.00  0.00     0.275 C
HETATM    9  C13 UNL     1       6.898  -2.169   4.592  1.00  0.00     0.069 C
HETATM   10  N2  UNL     1       5.991  -4.265   5.426  1.00  0.00    -0.066 N
ATOM     11  H21 UNL     1       5.818  -3.683   6.246  1.00  0.00     0.278 HD
ATOM     12  H22 UNL     1       6.865  -4.696   5.730  1.00  0.00     0.278 HD
HETATM   13  C14 UNL     1       4.949  -5.240   5.228  1.00  0.00     0.233 C
ENDROOT
BRANCH   7  14
HETATM   14  C7  UNL     1       9.997  -4.004   5.486  1.00  0.00     0.304 C
BRANCH  14  15
HETATM   15  C8  UNL     1      10.988  -4.746   4.636  1.00  0.00     0.149 C
HETATM   16  C9  UNL     1      12.328  -4.050   4.589  1.00  0.00     0.036 C
HETATM   17  C10 UNL     1      13.274  -5.096   5.144  1.00  0.00     0.029 C
HETATM   18  C11 UNL     1      12.501  -6.370   4.951  1.00  0.00     0.168 C
HETATM   19  O1  UNL     1      11.213  -5.977   5.257  1.00  0.00    -0.384 OA
ENDBRANCH  14  15
ENDBRANCH   7  14
TORSDOF 2
ENDMDL