MODEL 3
REMARK VINA RESULT: -4.559942406      1.457      3.031
REMARK  4 active torsions:
REMARK  status: ('A' for Active; 'I' for Inactive)
REMARK    1  A    between atoms: O1_2  and  C2_3
REMARK    2  A    between atoms: C2_3  and  O2_4
REMARK    3  A    between atoms: C6_8  and  O3_9
REMARK    4  A    between atoms: C10_14  and  C11_15
ROOT
HETATM    1  C2  UNL     1       6.651  -2.666   4.767  1.00  0.00     0.167 C
HETATM    2  C4  UNL     1       5.613  -1.676   4.283  1.00  0.00     0.076 C
HETATM    3  C5  UNL     1       4.459  -1.531   5.213  1.00  0.00     0.025 C
HETATM    4  C6  UNL     1       4.121  -2.735   6.033  1.00  0.00     0.128 C
HETATM    5  C7  UNL     1       5.324  -3.035   6.869  1.00  0.00     0.029 C
HETATM    6  C8  UNL     1       5.202  -2.066   8.064  1.00  0.00    -0.002 C
HETATM    7  C9  UNL     1       6.653  -1.835   8.404  1.00  0.00     0.011 C
HETATM    8  C10 UNL     1       7.032  -1.392   6.951  1.00  0.00     0.000 C
HETATM    9  C11 UNL     1       6.037  -0.267   6.812  1.00  0.00    -0.000 A
HETATM   10  C12 UNL     1       4.738  -0.415   6.183  1.00  0.00     0.002 A
HETATM   11  C13 UNL     1       4.784  -0.731   7.592  1.00  0.00    -0.000 A
HETATM   12  C14 UNL     1       6.649  -2.631   6.251  1.00  0.00     0.059 C
ENDROOT
BRANCH   1  13
HETATM   13  O1  UNL     1       7.866  -2.595   4.247  1.00  0.00    -0.359 OA
HETATM   14  C1  UNL     1       8.956  -3.271   4.502  1.00  0.00     0.205 C
ENDBRANCH   1  13
BRANCH   1  15
HETATM   15  O2  UNL     1       6.213  -4.001   4.473  1.00  0.00    -0.359 OA
HETATM   16  C3  UNL     1       5.998  -4.187   3.129  1.00  0.00     0.205 C
ENDBRANCH   1  15
BRANCH   4  17
HETATM   17  O3  UNL     1       3.526  -3.780   5.398  1.00  0.00    -0.395 OA
ATOM     18  H3  UNL     1       4.051  -4.556   5.246  1.00  0.00     0.210 HD
ENDBRANCH   4  17
TORSDOF 4
ENDMDL