MODEL 3
REMARK VINA RESULT: -6.014240978      2.981      5.942
REMARK  2 active torsions:
REMARK  status: ('A' for Active; 'I' for Inactive)
REMARK    1  A    between atoms: N1_4  and  C4_6
REMARK    2  A    between atoms: N3_13  and  C8_14
ROOT
HETATM    1  C1  UNL     1       9.895  -6.912   4.346  1.00  0.00     0.027 C
HETATM    2  C2  UNL     1       8.851  -6.080   5.053  1.00  0.00     0.077 C
HETATM    3  C3  UNL     1       9.393  -4.693   4.843  1.00  0.00     0.075 C
HETATM    4  N1  UNL     1       8.746  -3.602   4.700  1.00  0.00    -0.373 N
ATOM      5  H1  UNL     1       9.288  -2.749   4.565  1.00  0.00     0.161 HD
HETATM    6  N3  UNL     1      10.811  -4.791   4.825  1.00  0.00    -0.366 N
HETATM    7  C13 UNL     1      11.175  -6.182   4.732  1.00  0.00     0.125 C
ENDROOT
BRANCH   4   8
HETATM    8  C4  UNL     1       7.319  -3.481   4.715  1.00  0.00     0.110 C
HETATM    9  C5  UNL     1       6.838  -3.326   6.144  1.00  0.00     0.054 C
HETATM   10  C6  UNL     1       7.155  -1.856   6.398  1.00  0.00     0.234 C
HETATM   11  N2  UNL     1       6.838  -1.197   5.165  1.00  0.00    -0.073 N
HETATM   12  C7  UNL     1       6.850  -2.164   4.115  1.00  0.00     0.257 C
ATOM     13  H22 UNL     1       5.960  -0.681   5.212  1.00  0.00     0.277 HD
ATOM     14  H21 UNL     1       7.455  -0.406   4.975  1.00  0.00     0.277 HD
ENDBRANCH   4   8
BRANCH   6  15
HETATM   15  C8  UNL     1      11.728  -3.675   4.888  1.00  0.00     0.089 C
HETATM   16  C9  UNL     1      13.155  -4.114   4.696  1.00  0.00     0.051 C
HETATM   17  C10 UNL     1      14.050  -2.966   5.116  1.00  0.00     0.169 C
HETATM   18  O1  UNL     1      13.366  -1.741   4.983  1.00  0.00    -0.391 OA
HETATM   19  C11 UNL     1      12.650  -1.725   3.764  1.00  0.00     0.169 C
HETATM   20  C12 UNL     1      11.387  -2.589   3.890  1.00  0.00     0.051 C
ENDBRANCH   6  15
TORSDOF 2
ENDMDL