MODEL 3
REMARK VINA RESULT: -3.530937282      3.784      4.366
REMARK  1 active torsions:
REMARK  status: ('A' for Active; 'I' for Inactive)
REMARK    1  A    between atoms: C2_2  and  C3_4
ROOT
HETATM    1  C3  UNL     1     -23.013 -10.306 -12.203  1.00  0.00     0.236 C
HETATM    2  C4  UNL     1     -23.257  -9.007 -11.576  1.00  0.00     0.096 C
HETATM    3  N1  UNL     1     -23.455  -7.973 -11.055  1.00  0.00    -0.195 NA
HETATM    4  C5  UNL     1     -21.801 -10.151 -13.089  1.00  0.00     0.054 C
HETATM    5  C6  UNL     1     -22.216  -9.558 -14.417  1.00  0.00     0.031 C
HETATM    6  C7  UNL     1     -22.924 -10.542 -15.275  1.00  0.00     0.190 C
HETATM    7  O2  UNL     1     -24.037 -11.111 -14.753  1.00  0.00    -0.274 OA
HETATM    8  S1  UNL     1     -24.396 -10.771 -13.197  1.00  0.00     0.294 S
HETATM    9  O3  UNL     1     -25.026 -11.986 -12.544  1.00  0.00    -0.196 OA
HETATM   10  O4  UNL     1     -25.434  -9.685 -13.148  1.00  0.00    -0.196 OA
ENDROOT
BRANCH   1  11
HETATM   11  C2  UNL     1     -22.685 -11.327 -11.178  1.00  0.00     0.163 C
HETATM   12  C1  UNL     1     -21.795 -12.470 -11.415  1.00  0.00     0.094 C
HETATM   13  O1  UNL     1     -23.185 -11.211 -10.073  1.00  0.00    -0.295 OA
ENDBRANCH   1  11
TORSDOF 1
ENDMDL