MODEL 1
REMARK VINA RESULT: -5.933540078      0.000      0.000
REMARK  2 active torsions:
REMARK  status: ('A' for Active; 'I' for Inactive)
REMARK    1  A    between atoms: C2_2  and  O2_4
REMARK    2  A    between atoms: O2_4  and  C3_5
ROOT
HETATM    1  C3  UNL     1     -21.214  -2.578  -9.866  1.00  0.00     0.156 C
HETATM    2  C4  UNL     1     -22.223  -2.801 -10.964  1.00  0.00     0.042 C
HETATM    3  C5  UNL     1     -23.292  -3.801 -10.576  1.00  0.00     0.105 C
HETATM    4  C6  UNL     1     -22.706  -5.078 -10.023  1.00  0.00     0.282 C
HETATM    5  O3  UNL     1     -22.642  -6.017 -11.023  1.00  0.00    -0.331 OA
HETATM    6  C7  UNL     1     -23.636  -6.946 -10.815  1.00  0.00     0.200 C
HETATM    7  C8  UNL     1     -24.465  -6.336  -9.711  1.00  0.00     0.200 C
HETATM    8  O4  UNL     1     -23.541  -5.579  -9.024  1.00  0.00    -0.331 OA
HETATM    9  O5  UNL     1     -21.426  -4.886  -9.512  1.00  0.00    -0.330 OA
HETATM   10  C9  UNL     1     -21.339  -3.666  -8.825  1.00  0.00     0.206 C
ENDROOT
BRANCH   1  11
HETATM   11  O2  UNL     1     -21.246  -1.292  -9.325  1.00  0.00    -0.314 OA
BRANCH  11  12
HETATM   12  C2  UNL     1     -20.614  -0.924  -8.173  1.00  0.00     0.255 C
HETATM   13  C1  UNL     1     -21.222  -0.185  -7.050  1.00  0.00     0.126 C
HETATM   14  O1  UNL     1     -19.390  -1.244  -8.048  1.00  0.00    -0.266 OA
ENDBRANCH  11  12
ENDBRANCH   1  11
TORSDOF 2
ENDMDL