MODEL 5
REMARK VINA RESULT: -4.990925441      4.129      6.949
REMARK  3 active torsions:
REMARK  status: ('A' for Active; 'I' for Inactive)
REMARK    1  A    between atoms: N3_6  and  N4_8
REMARK    2  A    between atoms: N5_10  and  O1_11
REMARK    3  A    between atoms: N5_10  and  N6_13
ROOT
HETATM    1  N1  UNL     1     -21.568  -4.116  -9.816  1.00  0.00    -0.189 NA
HETATM    2  C1  UNL     1     -22.604  -4.609 -10.041  1.00  0.00     0.131 C
HETATM    3  C2  UNL     1     -23.873  -5.212 -10.343  1.00  0.00     0.210 C
HETATM    4  C3  UNL     1     -23.952  -6.621 -10.605  1.00  0.00     0.131 C
HETATM    5  N2  UNL     1     -24.015  -7.766 -10.800  1.00  0.00    -0.189 NA
HETATM    6  N3  UNL     1     -24.898  -4.428 -10.362  1.00  0.00    -0.264 N
ATOM      7  H3  UNL     1     -24.742  -3.439 -10.164  1.00  0.00     0.190 HD
ENDROOT
BRANCH   6   8
HETATM    8  N4  UNL     1     -26.193  -4.834 -10.633  1.00  0.00    -0.199 N
HETATM    9  N5  UNL     1     -27.048  -3.978 -10.999  1.00  0.00    -0.082 N
ATOM     10  H4  UNL     1     -26.454  -5.815 -10.539  1.00  0.00     0.212 HD
BRANCH   9  11
HETATM   11  O1  UNL     1     -26.638  -2.668 -11.107  1.00  0.00    -0.252 OA
ATOM     12  H1  UNL     1     -26.829  -2.083 -10.383  1.00  0.00     0.248 HD
ENDBRANCH   9  11
BRANCH   9  13
HETATM   13  N6  UNL     1     -28.345  -4.384 -11.271  1.00  0.00    -0.281 N
HETATM   14  C4  UNL     1     -29.263  -3.456 -11.847  1.00  0.00     0.172 C
HETATM   15  C5  UNL     1     -29.969  -4.175 -13.001  1.00  0.00     0.189 C
HETATM   16  O2  UNL     1     -29.354  -5.382 -13.299  1.00  0.00    -0.388 OA
HETATM   17  C6  UNL     1     -29.393  -6.280 -12.250  1.00  0.00     0.189 C
HETATM   18  C7  UNL     1     -28.768  -5.716 -10.981  1.00  0.00     0.172 C
ENDBRANCH   9  13
ENDBRANCH   6   8
TORSDOF 3
ENDMDL