MODEL 3
REMARK VINA RESULT: -4.878555703      1.020      1.063
REMARK  3 active torsions:
REMARK  status: ('A' for Active; 'I' for Inactive)
REMARK    1  A    between atoms: S1_2  and  C2_3
REMARK    2  A    between atoms: C2_3  and  O2_5
REMARK    3  A    between atoms: O2_5  and  C3_6
ROOT
HETATM    1  C3  UNL     1     -22.910  -3.308  -9.834  1.00  0.00     0.147 C
HETATM    2  C4  UNL     1     -22.838  -4.657 -10.515  1.00  0.00     0.048 C
HETATM    3  C5  UNL     1     -24.081  -5.393 -10.086  1.00  0.00     0.143 C
HETATM    4  S2  UNL     1     -25.308  -4.078 -10.001  1.00  0.00     0.146 S
HETATM    5  O3  UNL     1     -25.887  -3.976  -8.630  1.00  0.00    -0.228 OA
HETATM    6  O4  UNL     1     -26.327  -4.210 -11.071  1.00  0.00    -0.228 OA
HETATM    7  C6  UNL     1     -24.196  -2.694 -10.321  1.00  0.00     0.172 C
ENDROOT
BRANCH   1   8
HETATM    8  O2  UNL     1     -21.781  -2.546 -10.044  1.00  0.00    -0.306 OA
BRANCH   8   9
HETATM    9  C2  UNL     1     -20.800  -2.393  -9.083  1.00  0.00     0.322 C
HETATM   10  O1  UNL     1     -20.127  -3.406  -8.796  1.00  0.00    -0.252 OA
BRANCH   9  11
HETATM   11  S1  UNL     1     -20.493  -0.815  -8.271  1.00  0.00    -0.066 SA
HETATM   12  C1  UNL     1     -22.065   0.000  -7.895  1.00  0.00     0.101 C
ENDBRANCH   9  11
ENDBRANCH   8   9
ENDBRANCH   1   8
TORSDOF 3
ENDMDL