MODEL 5
REMARK VINA RESULT: -3.604695415      1.926      4.121
REMARK  1 active torsions:
REMARK  status: ('A' for Active; 'I' for Inactive)
REMARK    1  A    between atoms: C2_2  and  N1_3
ROOT
HETATM    1  C1  UNL     1     -26.191 -11.390 -11.484  1.00  0.00     0.051 C
HETATM    2  C2  UNL     1     -25.336 -10.273 -12.044  1.00  0.00     0.147 C
HETATM    3  C3  UNL     1     -24.439 -10.840 -13.149  1.00  0.00     0.174 C
HETATM    4  C4  UNL     1     -23.761 -12.052 -12.557  1.00  0.00     0.155 C
HETATM    5  N2  UNL     1     -23.049 -11.627 -11.383  1.00  0.00    -0.192 NA
HETATM    6  C5  UNL     1     -21.924 -10.813 -11.872  1.00  0.00     0.152 C
HETATM    7  C6  UNL     1     -22.580  -9.605 -12.524  1.00  0.00     0.140 C
HETATM    8  C7  UNL     1     -23.330  -8.908 -11.386  1.00  0.00     0.070 C
HETATM    9  C8  UNL     1     -24.404  -9.840 -10.935  1.00  0.00     0.184 C
HETATM   10  O3  UNL     1     -23.779 -11.007 -10.470  1.00  0.00    -0.295 OA
HETATM   11  O4  UNL     1     -23.459  -9.948 -13.518  1.00  0.00    -0.375 OA
ENDROOT
BRANCH   2  12
HETATM   12  N1  UNL     1     -26.145  -9.217 -12.564  1.00  0.00    -0.140 N
HETATM   13  O1  UNL     1     -26.478  -9.244 -13.760  1.00  0.00    -0.536 OA
HETATM   14  O2  UNL     1     -26.560  -8.179 -11.777  1.00  0.00    -0.536 OA
ENDBRANCH   2  12
TORSDOF 1
ENDMDL