MODEL 3
REMARK VINA RESULT: -5.904015599      3.879      5.768
REMARK  1 active torsions:
REMARK  status: ('A' for Active; 'I' for Inactive)
REMARK    1  A    between atoms: N1_7  and  C3_9
ROOT
HETATM    1  O1  UNL     1     -24.477 -10.932 -10.346  1.00  0.00    -0.196 OA
HETATM    2  S1  UNL     1     -24.799  -9.756 -11.184  1.00  0.00     0.296 S
HETATM    3  O2  UNL     1     -25.815 -10.065 -12.249  1.00  0.00    -0.196 OA
HETATM    4  C1  UNL     1     -23.330  -9.048 -11.933  1.00  0.00     0.350 C
HETATM    5  O3  UNL     1     -23.145  -7.935 -11.080  1.00  0.00    -0.299 OA
HETATM    6  C2  UNL     1     -24.294  -7.430 -10.555  1.00  0.00     0.277 C
HETATM    7  N1  UNL     1     -24.522  -6.186 -10.320  1.00  0.00    -0.345 N
ATOM      8  H1  UNL     1     -25.419  -5.904  -9.924  1.00  0.00     0.164 HD
HETATM    9  O4  UNL     1     -25.259  -8.392 -10.272  1.00  0.00    -0.190 OA
ENDROOT
BRANCH   7  10
HETATM   10  C3  UNL     1     -23.538  -5.200 -10.605  1.00  0.00     0.085 C
HETATM   11  C4  UNL     1     -24.200  -3.832 -10.507  1.00  0.00     0.025 C
HETATM   12  C5  UNL     1     -23.092  -2.890 -10.178  1.00  0.00     0.002 C
HETATM   13  C6  UNL     1     -21.866  -3.733  -9.860  1.00  0.00     0.002 C
HETATM   14  C7  UNL     1     -22.443  -5.101  -9.575  1.00  0.00     0.025 C
ENDBRANCH   7  10
TORSDOF 1
ENDMDL