MODEL 1
REMARK VINA RESULT: -6.770452753      0.000      0.000
REMARK  1 active torsions:
REMARK  status: ('A' for Active; 'I' for Inactive)
REMARK    1  A    between atoms: C6_8  and  C7_9
ROOT
HETATM    1  O1  UNL     1     -25.844  -4.691  -9.227  1.00  0.00    -0.265 OA
HETATM    2  C1  UNL     1     -24.866  -4.475  -9.964  1.00  0.00     0.259 C
HETATM    3  C2  UNL     1     -24.308  -3.171 -10.403  1.00  0.00     0.121 C
HETATM    4  C3  UNL     1     -22.824  -3.448 -10.519  1.00  0.00     0.060 C
HETATM    5  C4  UNL     1     -22.756  -4.928 -10.701  1.00  0.00     0.162 C
HETATM    6  C5  UNL     1     -21.955  -5.391  -9.504  1.00  0.00     0.201 C
HETATM    7  O2  UNL     1     -21.181  -4.292  -9.205  1.00  0.00    -0.378 OA
HETATM    8  C6  UNL     1     -22.081  -3.208  -9.257  1.00  0.00     0.183 C
HETATM    9  O5  UNL     1     -24.063  -5.442 -10.551  1.00  0.00    -0.313 OA
ENDROOT
BRANCH   8  10
HETATM   10  C7  UNL     1     -21.248  -1.950  -9.257  1.00  0.00     0.289 C
HETATM   11  O3  UNL     1     -20.191  -2.182  -8.346  1.00  0.00    -0.357 OA
HETATM   12  C8  UNL     1     -19.803  -0.884  -8.036  1.00  0.00     0.197 C
HETATM   13  C9  UNL     1     -21.147  -0.207  -7.864  1.00  0.00     0.197 C
HETATM   14  O4  UNL     1     -21.914  -0.837  -8.821  1.00  0.00    -0.357 OA
ENDBRANCH   8  10
TORSDOF 1
ENDMDL