MODEL 4
REMARK VINA RESULT: -4.443385016      2.025      4.910
REMARK  1 active torsions:
REMARK  status: ('A' for Active; 'I' for Inactive)
REMARK    1  A    between atoms: C2_2  and  C3_3
REMARK       I    between atoms: C3_3  and  N1_5
ROOT
HETATM    1  C3  UNL     1     -24.437  -7.831 -10.767  1.00  0.00     0.220 C
HETATM    2  O1  UNL     1     -25.457  -8.309 -10.160  1.00  0.00    -0.273 OA
HETATM    3  N1  UNL     1     -24.127  -6.477 -10.523  1.00  0.00    -0.331 N
HETATM    4  C4  UNL     1     -23.007  -5.730 -11.070  1.00  0.00     0.186 C
HETATM    5  C5  UNL     1     -22.674  -4.676 -10.038  1.00  0.00     0.178 C
HETATM    6  C6  UNL     1     -23.656  -4.900  -8.945  1.00  0.00     0.101 C
HETATM    7  C7  UNL     1     -24.835  -5.517  -9.673  1.00  0.00     0.199 C
HETATM    8  C8  UNL     1     -25.576  -4.537 -10.438  1.00  0.00     0.085 C
HETATM    9  N2  UNL     1     -26.170  -3.779 -11.054  1.00  0.00    -0.195 NA
HETATM   10  N3  UNL     1     -22.737  -3.323 -10.590  1.00  0.00    -0.058 NA
HETATM   11  O2  UNL     1     -21.523  -2.772 -10.379  1.00  0.00    -0.258 OA
HETATM   12  C9  UNL     1     -21.082  -3.442  -9.241  1.00  0.00     0.367 C
HETATM   13  O3  UNL     1     -21.341  -4.781  -9.600  1.00  0.00    -0.334 OA
ENDROOT
BRANCH   1  14
HETATM   14  C2  UNL     1     -23.667  -8.715 -11.667  1.00  0.00     0.098 C
HETATM   15  C1  UNL     1     -23.313 -10.028 -11.026  1.00  0.00     0.014 C
ENDBRANCH   1  14
TORSDOF 1
ENDMDL