MODEL 3
REMARK VINA RESULT: -6.018464443      2.027      3.737
REMARK  1 active torsions:
REMARK  status: ('A' for Active; 'I' for Inactive)
REMARK    1  A    between atoms: C1_2  and  N1_3
ROOT
HETATM    1  N1  UNL     1     -23.123  -3.051  -9.958  1.00  0.00    -0.326 N
ATOM      2  H1  UNL     1     -23.489  -2.180  -9.576  1.00  0.00     0.168 HD
HETATM    3  C2  UNL     1     -23.960  -3.968 -10.266  1.00  0.00     0.141 C
HETATM    4  C3  UNL     1     -23.804  -5.306 -10.819  1.00  0.00     0.080 C
HETATM    5  C4  UNL     1     -22.671  -6.122 -10.327  1.00  0.00     0.014 C
HETATM    6  C5  UNL     1     -23.213  -7.553 -10.438  1.00  0.00     0.004 C
HETATM    7  C6  UNL     1     -24.728  -7.411 -10.635  1.00  0.00     0.034 C
HETATM    8  C7  UNL     1     -24.972  -6.044 -10.132  1.00  0.00     0.153 C
HETATM    9  O2  UNL     1     -26.116  -5.411 -10.511  1.00  0.00    -0.265 OA
HETATM   10  S1  UNL     1     -25.699  -3.808 -10.069  1.00  0.00     0.310 S
HETATM   11  O3  UNL     1     -26.287  -2.823 -11.002  1.00  0.00    -0.192 OA
HETATM   12  O4  UNL     1     -26.069  -3.563  -8.632  1.00  0.00    -0.192 OA
ENDROOT
BRANCH   1  13
HETATM   13  C1  UNL     1     -21.722  -3.169 -10.112  1.00  0.00     0.353 C
HETATM   14  O1  UNL     1     -21.000  -3.130  -9.076  1.00  0.00    -0.283 OA
ENDBRANCH   1  13
TORSDOF 1
ENDMDL