MODEL 1
REMARK VINA RESULT: -4.524775978      0.000      0.000
REMARK  1 active torsions:
REMARK  status: ('A' for Active; 'I' for Inactive)
REMARK    1  A    between atoms: O1_2  and  C2_3
ROOT
HETATM    1  C2  UNL     1     -21.085  -2.573  -9.396  1.00  0.00     0.265 C
HETATM    2  C3  UNL     1     -22.314  -3.104  -8.715  1.00  0.00     0.101 C
HETATM    3  C4  UNL     1     -23.366  -3.586  -9.701  1.00  0.00     0.096 C
HETATM    4  C5  UNL     1     -24.714  -3.309  -9.060  1.00  0.00     0.041 C
HETATM    5  C6  UNL     1     -25.776  -4.251  -9.474  1.00  0.00     0.005 C
HETATM    6  C7  UNL     1     -25.446  -5.141 -10.616  1.00  0.00     0.026 C
HETATM    7  C8  UNL     1     -24.028  -5.558 -10.720  1.00  0.00     0.169 C
HETATM    8  O2  UNL     1     -23.156  -4.937  -9.878  1.00  0.00    -0.377 OA
HETATM    9  C9  UNL     1     -23.327  -2.798 -10.988  1.00  0.00     0.214 A
HETATM   10  O3  UNL     1     -22.881  -1.438 -10.764  1.00  0.00    -0.345 OA
HETATM   11  C10 UNL     1     -22.072  -2.344 -11.447  1.00  0.00     0.295 A
HETATM   12  O4  UNL     1     -21.012  -2.922 -10.739  1.00  0.00    -0.329 OA
ENDROOT
BRANCH   1  13
HETATM   13  O1  UNL     1     -21.009  -1.191  -9.278  1.00  0.00    -0.366 OA
HETATM   14  C1  UNL     1     -20.241  -0.856  -8.190  1.00  0.00     0.204 C
ENDBRANCH   1  13
TORSDOF 1
ENDMDL