MODEL 3
REMARK VINA RESULT: -9.266241564      3.088      3.878
REMARK  11 active torsions:
REMARK  status: ('A' for Active; 'I' for Inactive)
REMARK    1  A    between atoms: O1_2  and  C2_3
REMARK    2  A    between atoms: C2_3  and  C3_5
REMARK    3  A    between atoms: C4_7  and  O4_8
REMARK    4  A    between atoms: C4_7  and  C5_10
REMARK    5  A    between atoms: C5_10  and  N1_11
REMARK       I    between atoms: N1_11  and  C6_13
REMARK       I    between atoms: C6_13  and  N2_15
REMARK    6  A    between atoms: N2_15  and  N3_17
REMARK    7  A    between atoms: C7_19  and  C9_21
REMARK    8  A    between atoms: C11_24  and  N4_25
REMARK    9  A    between atoms: C12_29  and  C13_30
REMARK   10  A    between atoms: C13_30  and  O6_31
REMARK   11  A    between atoms: C15_39  and  N10_40
ROOT
HETATM    1  N1  UNL     1      19.371  -3.165   4.735  1.00  0.00    -0.335 N
ATOM      2  H1  UNL     1      19.246  -2.592   5.569  1.00  0.00     0.164 HD
HETATM    3  C6  UNL     1      18.462  -4.222   4.589  1.00  0.00     0.335 C
HETATM    4  O5  UNL     1      18.467  -5.033   3.647  1.00  0.00    -0.246 OA
HETATM    5  N2  UNL     1      17.413  -4.448   5.566  1.00  0.00    -0.252 N
ATOM      6  H2  UNL     1      17.353  -3.817   6.365  1.00  0.00     0.191 HD
ENDROOT
BRANCH   1   7
HETATM    7  C5  UNL     1      20.434  -2.781   3.892  1.00  0.00     0.218 C
BRANCH   7   8
HETATM    8  C4  UNL     1      20.098  -2.057   2.627  1.00  0.00     0.263 C
HETATM    9  O3  UNL     1      20.835  -0.837   2.703  1.00  0.00    -0.314 OA
HETATM   10  C3  UNL     1      20.249   0.171   1.972  1.00  0.00     0.292 C
HETATM   11  C16 UNL     1      20.655  -0.047   0.549  1.00  0.00     0.113 C
HETATM   12  N11 UNL     1      20.283  -1.187  -0.215  1.00  0.00    -0.334 N
HETATM   13  N12 UNL     1      21.386   0.826  -0.044  1.00  0.00    -0.387 N
HETATM   14  C15 UNL     1      19.745  -2.470   0.263  1.00  0.00     0.387 C
ATOM     15  H11 UNL     1      20.406  -1.104  -1.225  1.00  0.00     0.164 HD
HETATM   16  N9  UNL     1      20.439  -2.787   1.474  1.00  0.00    -0.325 N
ATOM     17  H9  UNL     1      21.153  -3.515   1.500  1.00  0.00     0.162 HD
ATOM     18 2H12 UNL     1      21.653   1.644   0.504  1.00  0.00     0.157 HD
ATOM     19 1H12 UNL     1      21.663   0.678  -1.014  1.00  0.00     0.157 HD
BRANCH  10  20
HETATM   20  C2  UNL     1      20.584   1.510   2.473  1.00  0.00     0.295 C
HETATM   21  O2  UNL     1      20.953   1.615   3.670  1.00  0.00    -0.262 OA
BRANCH  20  22
HETATM   22  O1  UNL     1      20.521   2.666   1.717  1.00  0.00    -0.324 OA
HETATM   23  C1  UNL     1      19.620   3.719   2.092  1.00  0.00     0.213 C
ENDBRANCH  20  22
ENDBRANCH  10  20
BRANCH  14  24
HETATM   24  N10 UNL     1      18.320  -2.455   0.375  1.00  0.00    -0.041 N
ATOM     25 3H10 UNL     1      17.962  -1.519   0.191  1.00  0.00     0.279 HD
ATOM     26 2H10 UNL     1      17.900  -2.963  -0.404  1.00  0.00     0.279 HD
ATOM     27 1H10 UNL     1      17.957  -2.805   1.262  1.00  0.00     0.279 HD
ENDBRANCH  14  24
BRANCH   8  28
HETATM   28  O4  UNL     1      18.746  -1.717   2.709  1.00  0.00    -0.347 OA
ATOM     29  H4  UNL     1      18.481  -1.434   1.842  1.00  0.00     0.215 HD
ENDBRANCH   8  28
ENDBRANCH   7   8
ENDBRANCH   1   7
BRANCH   5  30
HETATM   30  N3  UNL     1      16.497  -5.465   5.475  1.00  0.00    -0.299 N
HETATM   31  C7  UNL     1      16.715  -6.621   5.973  1.00  0.00     0.049 C
HETATM   32  C8  UNL     1      18.005  -6.851   6.668  1.00  0.00     0.072 C
ATOM     33  H3  UNL     1      15.614  -5.293   4.994  1.00  0.00     0.186 HD
BRANCH  31  34
HETATM   34  C9  UNL     1      15.681  -7.681   5.840  1.00  0.00     0.064 A
HETATM   35  C10 UNL     1      14.523  -7.653   6.582  1.00  0.00     0.084 A
HETATM   36  S1  UNL     1      13.726  -9.064   6.042  1.00  0.00    -0.062 SA
HETATM   37  C11 UNL     1      14.902  -9.600   4.916  1.00  0.00     0.170 A
HETATM   38  N8  UNL     1      15.828  -8.677   5.018  1.00  0.00    -0.333 N
ATOM     39  H8  UNL     1      16.670  -8.739   4.446  1.00  0.00     0.168 HD
BRANCH  37  40
HETATM   40  N4  UNL     1      14.878 -10.777   4.067  1.00  0.00    -0.202 N
HETATM   41  N5  UNL     1      13.881 -11.635   3.957  1.00  0.00    -0.012 NA
HETATM   42  N6  UNL     1      14.184 -12.597   3.096  1.00  0.00    -0.282 N
HETATM   43  C12 UNL     1      15.427 -12.378   2.612  1.00  0.00     0.090 A
ATOM     44  H6  UNL     1      13.577 -13.376   2.840  1.00  0.00     0.184 HD
HETATM   45  C14 UNL     1      15.844 -11.219   3.243  1.00  0.00     0.164 A
HETATM   46  N7  UNL     1      17.082 -10.564   3.082  1.00  0.00    -0.079 NA
BRANCH  43  47
HETATM   47  C13 UNL     1      16.185 -13.200   1.617  1.00  0.00     0.226 C
BRANCH  47  48
HETATM   48  O6  UNL     1      15.344 -14.182   1.137  1.00  0.00    -0.395 OA
ATOM     49  H6  UNL     1      15.772 -14.609   0.405  1.00  0.00     0.209 HD
ENDBRANCH  47  48
ENDBRANCH  43  47
ENDBRANCH  37  40
ENDBRANCH  31  34
ENDBRANCH   5  30
TORSDOF 11
ENDMDL