MODEL 4
REMARK VINA RESULT: -9.159488381      2.756      5.075
REMARK  14 active torsions:
REMARK  status: ('A' for Active; 'I' for Inactive)
REMARK    1  A    between atoms: C1_2  and  C2_4
REMARK    2  A    between atoms: C4_8  and  O3_9
REMARK    3  A    between atoms: C5_11  and  O4_12
REMARK    4  A    between atoms: C6_14  and  N2_15
REMARK    5  A    between atoms: N3_17  and  C7_19
REMARK    6  A    between atoms: C8_20  and  O5_21
REMARK    7  A    between atoms: N4_23  and  O6_24
REMARK    8  A    between atoms: N6_32  and  O8_34
REMARK    9  A    between atoms: O8_34  and  C12_35
REMARK   10  A    between atoms: C12_35  and  C13_36
REMARK   11  A    between atoms: C13_36  and  O9_37
REMARK   12  A    between atoms: C13_36  and  C14_39
REMARK   13  A    between atoms: C14_39  and  O10_40
REMARK   14  A    between atoms: C14_39  and  O11_42
ROOT
HETATM    1  C7  UNL     1      16.186 -12.063   2.471  1.00  0.00     0.152 A
HETATM    2  C8  UNL     1      17.367 -11.471   2.110  1.00  0.00     0.200 A
HETATM    3  N4  UNL     1      17.759 -10.262   2.556  1.00  0.00    -0.193 N
HETATM    4  C9  UNL     1      16.970  -9.564   3.405  1.00  0.00     0.153 A
HETATM    5  C10 UNL     1      17.492  -8.355   3.774  1.00  0.00     0.290 C
HETATM    6  O7  UNL     1      18.621  -8.058   3.322  1.00  0.00    -0.265 OA
HETATM    7  N5  UNL     1      16.913  -7.438   4.581  1.00  0.00    -0.152 N
ATOM      8  H5  UNL     1      17.199  -6.471   4.435  1.00  0.00     0.187 HD
HETATM    9  C11 UNL     1      16.009  -7.643   5.550  1.00  0.00     0.707 C
HETATM   10  N6  UNL     1      16.054  -7.017   6.618  1.00  0.00    -0.096 N
ATOM     11  H6  UNL     1      15.300  -7.282   7.252  1.00  0.00     0.213 HD
HETATM   12  N7  UNL     1      14.983  -8.542   5.467  1.00  0.00    -0.153 N
ATOM     13  H7  UNL     1      14.222  -8.396   6.129  1.00  0.00     0.187 HD
HETATM   14  C15 UNL     1      14.833  -9.582   4.645  1.00  0.00     0.276 C
HETATM   15  O12 UNL     1      13.691 -10.143   4.635  1.00  0.00    -0.267 OA
HETATM   16  C16 UNL     1      15.766 -10.148   3.784  1.00  0.00     0.120 A
HETATM   17  C17 UNL     1      15.354 -11.373   3.342  1.00  0.00     0.222 A
HETATM   18  O13 UNL     1      14.259 -11.812   3.737  1.00  0.00    -0.285 OA
ENDROOT
BRANCH   1  19
HETATM   19  N3  UNL     1      15.769 -13.324   2.013  1.00  0.00    -0.293 N
HETATM   20  N2  UNL     1      15.496 -14.298   2.778  1.00  0.00    -0.295 N
ATOM     21  H2  UNL     1      15.583 -14.168   3.787  1.00  0.00     0.187 HD
ATOM     22  H3  UNL     1      15.679 -13.464   1.007  1.00  0.00     0.187 HD
BRANCH  20  23
HETATM   23  C6  UNL     1      15.076 -15.562   2.286  1.00  0.00     0.117 A
HETATM   24  C2  UNL     1      15.625 -16.693   2.847  1.00  0.00     0.141 A
HETATM   25  N1  UNL     1      15.247 -17.902   2.400  1.00  0.00    -0.356 N
HETATM   26  C3  UNL     1      14.336 -18.062   1.407  1.00  0.00     0.128 A
ATOM     27  H1  UNL     1      15.661 -18.733   2.823  1.00  0.00     0.165 HD
HETATM   28  C4  UNL     1      13.769 -16.936   0.827  1.00  0.00     0.116 A
HETATM   29  C5  UNL     1      14.138 -15.682   1.265  1.00  0.00     0.131 A
BRANCH  24  30
HETATM   30  C1  UNL     1      16.604 -16.535   3.913  1.00  0.00     0.229 C
HETATM   31  O1  UNL     1      16.459 -17.040   5.044  1.00  0.00    -0.643 OA
HETATM   32  O2  UNL     1      17.742 -15.790   3.644  1.00  0.00    -0.643 OA
ENDBRANCH  24  30
BRANCH  28  33
HETATM   33  O3  UNL     1      12.836 -17.143  -0.191  1.00  0.00    -0.357 OA
ATOM     34  H3  UNL     1      12.142 -17.770  -0.023  1.00  0.00     0.218 HD
ENDBRANCH  28  33
BRANCH  29  35
HETATM   35  O4  UNL     1      13.578 -14.561   0.693  1.00  0.00    -0.356 OA
ATOM     36  H4  UNL     1      13.193 -13.889   1.243  1.00  0.00     0.218 HD
ENDBRANCH  29  35
ENDBRANCH  20  23
ENDBRANCH   1  19
BRANCH   2  37
HETATM   37  O5  UNL     1      18.210 -12.144   1.242  1.00  0.00    -0.343 OA
ATOM     38  H5  UNL     1      19.114 -11.861   1.172  1.00  0.00     0.219 HD
ENDBRANCH   2  37
BRANCH   3  39
HETATM   39  O6  UNL     1      18.952  -9.695   2.174  1.00  0.00    -0.280 OA
ATOM     40  H6  UNL     1      19.092  -9.359   1.297  1.00  0.00     0.245 HD
ENDBRANCH   3  39
BRANCH  10  41
HETATM   41  O8  UNL     1      16.819  -6.115   7.123  1.00  0.00    -0.264 OA
BRANCH  41  42
HETATM   42  C12 UNL     1      17.300  -4.893   6.753  1.00  0.00     0.238 C
BRANCH  42  43
HETATM   43  C13 UNL     1      18.723  -4.959   6.179  1.00  0.00     0.199 C
BRANCH  43  44
HETATM   44  O9  UNL     1      19.107  -6.292   6.089  1.00  0.00    -0.388 OA
ATOM     45  H9  UNL     1      20.036  -6.330   5.892  1.00  0.00     0.210 HD
ENDBRANCH  43  44
BRANCH  43  46
HETATM   46  C14 UNL     1      18.745  -4.326   4.800  1.00  0.00     0.284 C
BRANCH  46  47
HETATM   47  O10 UNL     1      17.508  -3.783   4.469  1.00  0.00    -0.369 OA
ATOM     48  H10 UNL     1      17.525  -2.833   4.499  1.00  0.00     0.212 HD
ENDBRANCH  46  47
BRANCH  46  49
HETATM   49  O11 UNL     1      19.053  -5.293   3.822  1.00  0.00    -0.369 OA
ATOM     50  H11 UNL     1      19.910  -5.667   3.986  1.00  0.00     0.212 HD
ENDBRANCH  46  49
ENDBRANCH  43  46
ENDBRANCH  42  43
ENDBRANCH  41  42
ENDBRANCH  10  41
TORSDOF 14
ENDMDL