MODEL 2
REMARK VINA RESULT: -9.162159672      1.110      7.230
REMARK  17 active torsions:
REMARK  status: ('A' for Active; 'I' for Inactive)
REMARK    1  A    between atoms: N1_1  and  N2_4
REMARK       I    between atoms: C1_6  and  N4_8
REMARK    2  A    between atoms: N5_10  and  O1_12
REMARK    3  A    between atoms: O1_12  and  C2_13
REMARK    4  A    between atoms: C2_13  and  N6_14
REMARK    5  A    between atoms: C2_13  and  C9_29
REMARK    6  A    between atoms: N6_14  and  C3_16
REMARK    7  A    between atoms: C4_18  and  C5_19
REMARK    8  A    between atoms: C6_22  and  O5_23
REMARK    9  A    between atoms: C8_26  and  O6_27
REMARK   10  A    between atoms: C10_31  and  C11_32
REMARK   11  A    between atoms: C11_32  and  O8_33
REMARK   12  A    between atoms: C11_32  and  C12_35
REMARK   13  A    between atoms: C12_35  and  O9_36
REMARK   14  A    between atoms: C12_35  and  C13_38
REMARK   15  A    between atoms: C13_38  and  O10_39
REMARK   16  A    between atoms: C14_41  and  O11_42
REMARK   17  A    between atoms: C16_46  and  O13_47
ROOT
HETATM    1  C2  UNL     1      18.445  -5.120   5.710  1.00  0.00     0.211 C
ENDROOT
BRANCH   1   2
HETATM    2  O1  UNL     1      19.352  -5.752   6.540  1.00  0.00    -0.201 OA
BRANCH   2   3
HETATM    3  N5  UNL     1      20.061  -5.320   7.600  1.00  0.00    -0.197 N
HETATM    4  N4  UNL     1      20.682  -6.025   8.457  1.00  0.00    -0.252 N
HETATM    5  C1  UNL     1      21.404  -5.554   9.544  1.00  0.00     0.223 C
ATOM      6  H4  UNL     1      20.645  -7.037   8.333  1.00  0.00     0.191 HD
HETATM    7  N2  UNL     1      21.173  -6.044  10.749  1.00  0.00    -0.279 N
HETATM    8  N3  UNL     1      22.451  -4.576   9.510  1.00  0.00    -0.061 NA
ATOM      9  H2  UNL     1      20.437  -6.743  10.848  1.00  0.00     0.189 HD
ATOM     10  H5  UNL     1      20.105  -4.310   7.731  1.00  0.00     0.216 HD
BRANCH   7  11
HETATM   11  N1  UNL     1      21.868  -5.669  11.886  1.00  0.00    -0.343 N
ATOM     12  H12 UNL     1      22.627  -5.000  11.763  1.00  0.00     0.176 HD
ATOM     13  H11 UNL     1      21.663  -6.018  12.823  1.00  0.00     0.176 HD
ENDBRANCH   7  11
ENDBRANCH   2   3
ENDBRANCH   1   2
BRANCH   1  14
HETATM   14  N6  UNL     1      17.210  -5.732   5.538  1.00  0.00    -0.311 N
ATOM     15  H6  UNL     1      16.550  -4.972   5.378  1.00  0.00     0.170 HD
BRANCH  14  16
HETATM   16  C3  UNL     1      16.554  -6.746   5.488  1.00  0.00     0.184 A
HETATM   17  O2  UNL     1      16.795  -7.660   4.582  1.00  0.00    -0.281 OA
HETATM   18  C4  UNL     1      16.174  -8.793   4.408  1.00  0.00     0.187 A
HETATM   19  C6  UNL     1      15.124  -9.155   5.227  1.00  0.00     0.109 A
HETATM   20  C7  UNL     1      14.784  -8.232   6.232  1.00  0.00     0.080 A
HETATM   21  C8  UNL     1      15.500  -7.042   6.357  1.00  0.00     0.120 A
BRANCH  18  22
HETATM   22  C5  UNL     1      16.585  -9.698   3.342  1.00  0.00     0.237 C
HETATM   23  O3  UNL     1      17.439  -9.253   2.494  1.00  0.00    -0.642 OA
HETATM   24  O4  UNL     1      16.141 -10.969   3.196  1.00  0.00    -0.642 OA
ENDBRANCH  18  22
BRANCH  19  25
HETATM   25  O5  UNL     1      14.400 -10.314   5.139  1.00  0.00    -0.358 OA
ATOM     26  H5  UNL     1      14.485 -11.069   5.710  1.00  0.00     0.217 HD
ENDBRANCH  19  25
BRANCH  21  27
HETATM   27  O6  UNL     1      15.107  -6.201   7.390  1.00  0.00    -0.357 OA
ATOM     28  H6  UNL     1      14.382  -5.591   7.316  1.00  0.00     0.218 HD
ENDBRANCH  21  27
ENDBRANCH  14  16
ENDBRANCH   1  14
BRANCH   1  29
HETATM   29  C9  UNL     1      18.976  -4.426   4.467  1.00  0.00     0.166 A
HETATM   30  O7  UNL     1      19.318  -3.127   4.520  1.00  0.00    -0.302 OA
HETATM   31  C10 UNL     1      19.758  -2.439   3.496  1.00  0.00     0.122 A
HETATM   32  C14 UNL     1      19.872  -3.133   2.251  1.00  0.00     0.152 A
HETATM   33  C15 UNL     1      19.532  -4.450   2.198  1.00  0.00     0.243 A
HETATM   34  O12 UNL     1      19.625  -5.067   1.071  1.00  0.00    -0.282 OA
HETATM   35  C16 UNL     1      19.089  -5.114   3.297  1.00  0.00     0.158 A
BRANCH  31  36
HETATM   36  C11 UNL     1      20.150  -1.043   3.401  1.00  0.00     0.209 C
BRANCH  36  37
HETATM   37  O8  UNL     1      21.301  -0.953   2.530  1.00  0.00    -0.386 OA
ATOM     38  H8  UNL     1      21.223  -0.159   2.015  1.00  0.00     0.210 HD
ENDBRANCH  36  37
BRANCH  36  39
HETATM   39  C12 UNL     1      19.165  -0.034   2.933  1.00  0.00     0.177 C
BRANCH  39  40
HETATM   40  O9  UNL     1      18.815   0.019   1.646  1.00  0.00    -0.390 OA
ATOM     41  H9  UNL     1      18.459  -0.750   1.215  1.00  0.00     0.210 HD
ENDBRANCH  39  40
BRANCH  39  42
HETATM   42  C13 UNL     1      19.548   1.341   3.480  1.00  0.00     0.198 C
BRANCH  42  43
HETATM   43  O10 UNL     1      19.662   1.366   4.873  1.00  0.00    -0.398 OA
ATOM     44  H10 UNL     1      20.532   1.601   5.173  1.00  0.00     0.209 HD
ENDBRANCH  42  43
ENDBRANCH  39  42
ENDBRANCH  36  39
ENDBRANCH  31  36
BRANCH  32  45
HETATM   45  O11 UNL     1      20.317  -2.497   1.107  1.00  0.00    -0.355 OA
ATOM     46  H11 UNL     1      21.217  -2.575   0.815  1.00  0.00     0.218 HD
ENDBRANCH  32  45
BRANCH  35  47
HETATM   47  O13 UNL     1      18.781  -6.475   3.157  1.00  0.00    -0.355 OA
ATOM     48  H13 UNL     1      19.423  -7.173   3.217  1.00  0.00     0.218 HD
ENDBRANCH  35  47
ENDBRANCH   1  29
TORSDOF 17
ENDMDL