MODEL 5
REMARK VINA RESULT: -8.754832138      6.718     10.729
REMARK  12 active torsions:
REMARK  status: ('A' for Active; 'I' for Inactive)
REMARK       I    between atoms: C2_2  and  N1_4
REMARK    1  A    between atoms: N1_4  and  C3_6
REMARK    2  A    between atoms: C5_12  and  N4_13
REMARK    3  A    between atoms: C6_19  and  C7_20
REMARK    4  A    between atoms: C7_20  and  S1_21
REMARK    5  A    between atoms: S1_21  and  C8_22
REMARK    6  A    between atoms: N9_29  and  C9_30
REMARK    7  A    between atoms: C9_30  and  N10_31
REMARK    8  A    between atoms: N10_31  and  C10_33
REMARK    9  A    between atoms: C13_36  and  N11_37
REMARK   10  A    between atoms: C14_40  and  N12_41
REMARK   11  A    between atoms: C16_47  and  N14_48
REMARK   12  A    between atoms: N14_48  and  N15_49
ROOT
HETATM    1  C7  UNL     1      18.247 -14.209   0.815  1.00  0.00     0.108 C
ENDROOT
BRANCH   1   2
HETATM    2  C6  UNL     1      19.679 -13.908   0.648  1.00  0.00     0.099 C
HETATM    3  N5  UNL     1      20.494 -14.288   1.756  1.00  0.00    -0.375 N
HETATM    4  C5  UNL     1      21.883 -14.162   1.566  1.00  0.00     0.380 C
ATOM      5  H5  UNL     1      20.095 -14.629   2.630  1.00  0.00     0.157 HD
HETATM    6  N3  UNL     1      22.388 -13.372   0.537  1.00  0.00    -0.359 N
HETATM    7  C4  UNL     1      21.516 -12.727  -0.365  1.00  0.00     0.189 C
ATOM      8  H3  UNL     1      23.396 -13.258   0.436  1.00  0.00     0.159 HD
HETATM    9  N2  UNL     1      21.211 -13.494  -1.551  1.00  0.00    -0.357 N
HETATM   10  C15 UNL     1      20.087 -12.558   0.201  1.00  0.00     0.079 C
HETATM   11  C3  UNL     1      20.008 -13.191  -2.002  1.00  0.00     0.103 C
ATOM     12  H2  UNL     1      21.838 -14.175  -1.980  1.00  0.00     0.163 HD
HETATM   13  C16 UNL     1      19.434 -12.139  -1.142  1.00  0.00     0.175 C
BRANCH   4  14
HETATM   14  N4  UNL     1      22.435 -15.522   1.422  1.00  0.00    -0.041 N
ATOM     15  H43 UNL     1      23.350 -15.622   1.862  1.00  0.00     0.278 HD
ATOM     16  H42 UNL     1      21.934 -16.210   1.984  1.00  0.00     0.278 HD
ATOM     17  H41 UNL     1      22.448 -15.762   0.431  1.00  0.00     0.278 HD
ENDBRANCH   4  14
BRANCH  11  18
HETATM   18  N1  UNL     1      19.426 -13.780  -3.144  1.00  0.00    -0.316 N
HETATM   19  C2  UNL     1      18.261 -13.326  -3.771  1.00  0.00     0.218 C
HETATM   20  C1  UNL     1      17.786 -14.074  -4.992  1.00  0.00     0.117 C
HETATM   21  O1  UNL     1      17.562 -12.353  -3.422  1.00  0.00    -0.274 OA
ATOM     22  H1  UNL     1      19.888 -14.597  -3.543  1.00  0.00     0.170 HD
ENDBRANCH  11  18
BRANCH  13  23
HETATM   23  N14 UNL     1      20.082 -10.871  -1.443  1.00  0.00    -0.135 NA
BRANCH  23  24
HETATM   24  N15 UNL     1      19.273 -10.029  -2.167  1.00  0.00    -0.348 N
ATOM     25 2H15 UNL     1      19.292  -9.015  -2.063  1.00  0.00     0.172 HD
ATOM     26 1H15 UNL     1      18.662 -10.535  -2.808  1.00  0.00     0.172 HD
ENDBRANCH  23  24
ENDBRANCH  13  23
ENDBRANCH   1   2
BRANCH   1  27
HETATM   27  S1  UNL     1      17.563 -14.307   2.450  1.00  0.00    -0.089 SA
BRANCH  27  28
HETATM   28  C8  UNL     1      16.150 -13.271   2.757  1.00  0.00     0.183 A
HETATM   29  N6  UNL     1      14.891 -13.807   2.977  1.00  0.00    -0.263 N
HETATM   30  N7  UNL     1      14.049 -12.825   3.150  1.00  0.00    -0.226 N
ATOM     31  H6  UNL     1      14.661 -14.801   3.000  1.00  0.00     0.190 HD
HETATM   32  N8  UNL     1      14.667 -11.690   3.060  1.00  0.00    -0.218 N
ATOM     33  H7  UNL     1      13.051 -12.935   3.329  1.00  0.00     0.210 HD
HETATM   34  N9  UNL     1      15.976 -11.962   2.818  1.00  0.00    -0.212 N
ATOM     35  H8  UNL     1      14.249 -10.765   3.154  1.00  0.00     0.210 HD
BRANCH  34  36
HETATM   36  C9  UNL     1      16.986 -10.922   2.754  1.00  0.00     0.212 C
BRANCH  36  37
HETATM   37  N10 UNL     1      16.585  -9.595   2.931  1.00  0.00    -0.337 N
ATOM     38  H10 UNL     1      15.973  -9.269   2.183  1.00  0.00     0.168 HD
BRANCH  37  39
HETATM   39  C10 UNL     1      16.828  -8.602   3.899  1.00  0.00     0.107 A
HETATM   40  C11 UNL     1      17.999  -7.897   4.035  1.00  0.00     0.051 A
HETATM   41  C12 UNL     1      18.236  -6.937   4.995  1.00  0.00     0.043 A
HETATM   42  C13 UNL     1      17.226  -6.632   5.917  1.00  0.00     0.146 A
HETATM   43  C14 UNL     1      16.061  -7.336   5.775  1.00  0.00     0.134 A
HETATM   44  N13 UNL     1      15.875  -8.274   4.814  1.00  0.00    -0.327 N
ATOM     45  H13 UNL     1      14.977  -8.758   4.774  1.00  0.00     0.169 HD
BRANCH  42  46
HETATM   46  N11 UNL     1      17.486  -5.636   6.897  1.00  0.00    -0.112 N
HETATM   47  O2  UNL     1      16.963  -4.538   7.004  1.00  0.00    -0.532 OA
HETATM   48  O3  UNL     1      18.439  -5.954   7.871  1.00  0.00    -0.532 OA
ENDBRANCH  42  46
BRANCH  43  49
HETATM   49  N12 UNL     1      15.077  -7.103   6.571  1.00  0.00    -0.383 N
ATOM     50 2H12 UNL     1      15.042  -7.636   7.441  1.00  0.00     0.157 HD
ATOM     51 1H12 UNL     1      14.370  -6.416   6.310  1.00  0.00     0.157 HD
ENDBRANCH  43  49
ENDBRANCH  37  39
ENDBRANCH  36  37
ENDBRANCH  34  36
ENDBRANCH  27  28
ENDBRANCH   1  27
TORSDOF 12
ENDMDL