MODEL 5
REMARK VINA RESULT: -9.012429217      4.341      8.524
REMARK  13 active torsions:
REMARK  status: ('A' for Active; 'I' for Inactive)
REMARK    1  A    between atoms: O1_2  and  C2_3
REMARK    2  A    between atoms: C2_3  and  C3_5
REMARK    3  A    between atoms: C3_5  and  O3_6
REMARK    4  A    between atoms: C3_5  and  C14_32
REMARK    5  A    between atoms: O3_6  and  N1_7
REMARK    6  A    between atoms: C4_9  and  C5_10
REMARK    7  A    between atoms: C6_13  and  C7_14
REMARK    8  A    between atoms: C8_17  and  C9_18
REMARK    9  A    between atoms: C9_18  and  O5_19
REMARK   10  A    between atoms: C10_22  and  C11_23
REMARK   11  A    between atoms: C12_26  and  O9_27
REMARK   12  A    between atoms: C13_29  and  O10_30
REMARK   13  A    between atoms: C16_37  and  N6_38
ROOT
HETATM    1  C5  UNL     1      16.427  -9.987   3.266  1.00  0.00     0.086 A
HETATM    2  N2  UNL     1      17.377 -10.400   2.372  1.00  0.00    -0.352 N
ATOM      3  H2  UNL     1      18.135  -9.760   2.130  1.00  0.00     0.166 HD
HETATM    4  C6  UNL     1      17.349 -11.634   1.794  1.00  0.00     0.077 A
HETATM    5  C10 UNL     1      16.335 -12.472   2.124  1.00  0.00     0.103 A
HETATM    6  C12 UNL     1      15.337 -12.086   3.042  1.00  0.00     0.120 A
HETATM    7  C13 UNL     1      15.394 -10.800   3.628  1.00  0.00     0.128 A
ENDROOT
BRANCH   1   8
HETATM    8  C4  UNL     1      16.542  -8.647   3.833  1.00  0.00     0.146 C
HETATM    9  N1  UNL     1      16.423  -8.305   5.043  1.00  0.00    -0.274 N
ATOM     10  H1  UNL     1      16.221  -9.035   5.726  1.00  0.00     0.193 HD
BRANCH   9  11
HETATM   11  O3  UNL     1      16.543  -7.041   5.492  1.00  0.00    -0.260 OA
BRANCH  11  12
HETATM   12  C3  UNL     1      17.734  -6.371   5.796  1.00  0.00     0.293 C
BRANCH  12  13
HETATM   13  C2  UNL     1      17.622  -5.569   7.045  1.00  0.00     0.295 C
HETATM   14  O2  UNL     1      16.544  -5.412   7.671  1.00  0.00    -0.262 OA
BRANCH  13  15
HETATM   15  O1  UNL     1      18.762  -4.970   7.540  1.00  0.00    -0.324 OA
HETATM   16  C1  UNL     1      19.049  -4.916   8.945  1.00  0.00     0.213 C
ENDBRANCH  13  15
ENDBRANCH  12  13
BRANCH  12  17
HETATM   17  C14 UNL     1      18.234  -5.545   4.663  1.00  0.00     0.093 A
HETATM   18  C15 UNL     1      17.689  -4.304   4.389  1.00  0.00     0.146 A
HETATM   19  N4  UNL     1      16.641  -3.820   5.204  1.00  0.00    -0.081 NA
HETATM   20  N5  UNL     1      18.163  -3.568   3.349  1.00  0.00    -0.178 N
HETATM   21  C16 UNL     1      19.159  -4.008   2.561  1.00  0.00     0.680 A
ATOM     22  H5  UNL     1      17.749  -2.655   3.160  1.00  0.00     0.185 HD
HETATM   23  N7  UNL     1      19.699  -5.213   2.817  1.00  0.00    -0.156 N
HETATM   24  C17 UNL     1      19.256  -5.975   3.841  1.00  0.00     0.272 A
ATOM     25  H7  UNL     1      20.456  -5.558   2.226  1.00  0.00     0.187 HD
HETATM   26  O11 UNL     1      19.770  -7.104   4.069  1.00  0.00    -0.267 OA
BRANCH  21  27
HETATM   27  N6  UNL     1      19.599  -3.287   1.568  1.00  0.00    -0.234 N
ATOM     28  H62 UNL     1      19.238  -2.345   1.416  1.00  0.00     0.174 HD
ATOM     29  H61 UNL     1      20.308  -3.649   0.929  1.00  0.00     0.174 HD
ENDBRANCH  21  27
ENDBRANCH  12  17
ENDBRANCH  11  12
ENDBRANCH   9  11
ENDBRANCH   1   8
BRANCH   7  30
HETATM   30  O10 UNL     1      14.418 -10.469   4.504  1.00  0.00    -0.356 OA
ATOM     31  H10 UNL     1      14.052  -9.598   4.607  1.00  0.00     0.218 HD
ENDBRANCH   7  30
BRANCH   4  32
HETATM   32  C7  UNL     1      18.462 -12.000   0.918  1.00  0.00     0.296 C
HETATM   33  N3  UNL     1      19.707 -11.319   1.368  1.00  0.00    -0.059 NA
HETATM   34  O4  UNL     1      20.507 -11.468   0.287  1.00  0.00    -0.249 OA
HETATM   35  C8  UNL     1      19.703 -11.688  -0.806  1.00  0.00     0.309 C
HETATM   36  O6  UNL     1      18.382 -11.533  -0.382  1.00  0.00    -0.328 OA
BRANCH  35  37
HETATM   37  C9  UNL     1      20.044 -10.752  -1.941  1.00  0.00     0.226 C
BRANCH  37  38
HETATM   38  O5  UNL     1      18.955  -9.949  -2.247  1.00  0.00    -0.396 OA
ATOM     39  H5  UNL     1      19.062  -9.088  -1.861  1.00  0.00     0.209 HD
ENDBRANCH  37  38
ENDBRANCH  35  37
ENDBRANCH   4  32
BRANCH   6  40
HETATM   40  O9  UNL     1      14.298 -12.885   3.409  1.00  0.00    -0.357 OA
ATOM     41  H9  UNL     1      14.114 -13.132   4.308  1.00  0.00     0.218 HD
ENDBRANCH   6  40
BRANCH   5  42
HETATM   42  C11 UNL     1      16.143 -13.793   1.488  1.00  0.00     0.214 C
HETATM   43  O7  UNL     1      14.844 -14.007   1.021  1.00  0.00    -0.644 OA
HETATM   44  O8  UNL     1      16.772 -14.858   2.030  1.00  0.00    -0.644 OA
ENDBRANCH   5  42
TORSDOF 13
ENDMDL