MODEL 3
REMARK VINA RESULT: -8.479907430      2.045      2.646
REMARK  12 active torsions:
REMARK  status: ('A' for Active; 'I' for Inactive)
REMARK    1  A    between atoms: C2_3  and  C3_4
REMARK    2  A    between atoms: C5_12  and  N4_13
REMARK    3  A    between atoms: C7_15  and  N5_16
REMARK    4  A    between atoms: C10_25  and  O1_26
REMARK    5  A    between atoms: C11_28  and  O2_29
REMARK    6  A    between atoms: C12_31  and  C13_32
REMARK    7  A    between atoms: N11_39  and  C14_40
REMARK    8  A    between atoms: C14_40  and  C15_41
REMARK    9  A    between atoms: C15_41  and  N12_42
REMARK   10  A    between atoms: N12_42  and  N13_43
REMARK       I    between atoms: N13_43  and  C16_45
REMARK   11  A    between atoms: C16_45  and  O4_47
REMARK   12  A    between atoms: O4_47  and  N14_48
ROOT
HETATM    1  C1  UNL     1      18.881 -10.656   1.622  1.00  0.00     0.157 C
HETATM    2  N1  UNL     1      17.599 -10.955   2.209  1.00  0.00    -0.342 N
HETATM    3  C2  UNL     1      16.878 -12.059   2.024  1.00  0.00     0.092 A
HETATM    4  C10 UNL     1      15.772 -11.930   2.794  1.00  0.00     0.130 A
HETATM    5  C11 UNL     1      15.842 -10.693   3.467  1.00  0.00     0.132 A
HETATM    6  C12 UNL     1      16.977 -10.082   3.100  1.00  0.00     0.118 A
ENDROOT
BRANCH   3   7
HETATM    7  C3  UNL     1      17.278 -13.223   1.187  1.00  0.00     0.083 A
HETATM    8  S1  UNL     1      17.908 -13.130  -0.443  1.00  0.00    -0.048 SA
HETATM    9  C4  UNL     1      18.219 -14.765  -0.687  1.00  0.00     0.144 A
HETATM   10  N2  UNL     1      18.717 -15.366  -1.744  1.00  0.00    -0.380 N
HETATM   11  N3  UNL     1      17.845 -15.314   0.452  1.00  0.00    -0.321 N
ATOM     12  H22 UNL     1      19.006 -14.941  -2.626  1.00  0.00     0.158 HD
ATOM     13  H21 UNL     1      18.905 -16.357  -1.892  1.00  0.00     0.158 HD
HETATM   14  C5  UNL     1      17.364 -14.551   1.418  1.00  0.00     0.144 A
ATOM     15  H3  UNL     1      17.928 -16.322   0.586  1.00  0.00     0.169 HD
BRANCH  14  16
HETATM   16  N4  UNL     1      17.001 -15.216   2.676  1.00  0.00    -0.272 N
HETATM   17  C6  UNL     1      17.934 -15.366   3.762  1.00  0.00     0.184 C
HETATM   18  C7  UNL     1      17.959 -16.793   4.276  1.00  0.00     0.210 C
HETATM   19  C8  UNL     1      16.599 -17.360   4.504  1.00  0.00     0.109 C
HETATM   20  C9  UNL     1      15.541 -16.774   3.654  1.00  0.00     0.109 C
HETATM   21  N6  UNL     1      14.229 -17.309   3.752  1.00  0.00    -0.086 NA
HETATM   22  N7  UNL     1      15.735 -15.806   2.830  1.00  0.00    -0.287 N
ATOM     23  H7  UNL     1      14.951 -15.459   2.276  1.00  0.00     0.188 HD
BRANCH  18  24
HETATM   24  N5  UNL     1      18.708 -16.787   5.527  1.00  0.00    -0.073 N
ATOM     25  H53 UNL     1      19.097 -15.872   5.755  1.00  0.00     0.274 HD
ATOM     26  H52 UNL     1      18.112 -16.885   6.349  1.00  0.00     0.274 HD
ATOM     27  H51 UNL     1      19.417 -17.517   5.459  1.00  0.00     0.274 HD
ENDBRANCH  18  24
ENDBRANCH  14  16
ENDBRANCH   3   7
BRANCH   4  28
HETATM   28  O1  UNL     1      14.722 -12.810   2.934  1.00  0.00    -0.356 OA
ATOM     29  H1  UNL     1      14.421 -13.248   3.722  1.00  0.00     0.218 HD
ENDBRANCH   4  28
BRANCH   6  30
HETATM   30  C13 UNL     1      17.480  -8.757   3.404  1.00  0.00     0.169 A
HETATM   31  N8  UNL     1      18.041  -7.939   2.431  1.00  0.00    -0.267 N
HETATM   32  N9  UNL     1      18.317  -6.769   2.887  1.00  0.00    -0.226 N
ATOM     33  H8  UNL     1      18.214  -8.232   1.469  1.00  0.00     0.190 HD
HETATM   34  N10 UNL     1      17.966  -6.750   4.138  1.00  0.00    -0.224 N
ATOM     35  H9  UNL     1      18.734  -5.999   2.365  1.00  0.00     0.210 HD
HETATM   36  N11 UNL     1      17.447  -7.983   4.460  1.00  0.00    -0.257 N
ATOM     37  H10 UNL     1      18.059  -5.956   4.772  1.00  0.00     0.210 HD
BRANCH  36  38
HETATM   38  C14 UNL     1      16.999  -8.237   5.803  1.00  0.00     0.170 C
BRANCH  38  39
HETATM   39  C15 UNL     1      15.719  -7.436   6.074  1.00  0.00     0.157 C
BRANCH  39  40
HETATM   40  N12 UNL     1      16.149  -6.041   6.071  1.00  0.00    -0.135 NA
BRANCH  40  41
HETATM   41  N13 UNL     1      16.528  -5.579   7.309  1.00  0.00    -0.248 N
HETATM   42  C16 UNL     1      17.867  -5.144   7.490  1.00  0.00     0.398 C
HETATM   43  O3  UNL     1      18.697  -5.171   6.549  1.00  0.00    -0.235 OA
ATOM     44  H13 UNL     1      15.862  -5.549   8.081  1.00  0.00     0.187 HD
BRANCH  42  45
HETATM   45  O4  UNL     1      18.330  -4.663   8.720  1.00  0.00    -0.187 OA
BRANCH  45  46
HETATM   46  N14 UNL     1      19.261  -5.363   9.461  1.00  0.00    -0.301 N
ATOM     47 2H14 UNL     1      20.186  -4.952   9.588  1.00  0.00     0.184 HD
ATOM     48 1H14 UNL     1      19.039  -6.269   9.874  1.00  0.00     0.184 HD
ENDBRANCH  45  46
ENDBRANCH  42  45
ENDBRANCH  40  41
ENDBRANCH  39  40
ENDBRANCH  38  39
ENDBRANCH  36  38
ENDBRANCH   6  30
BRANCH   5  49
HETATM   49  O2  UNL     1      14.832 -10.345   4.318  1.00  0.00    -0.356 OA
ATOM     50  H2  UNL     1      14.187  -9.711   4.030  1.00  0.00     0.218 HD
ENDBRANCH   5  49
TORSDOF 12
ENDMDL