MODEL 5
REMARK VINA RESULT: -8.499339523      2.487      5.415
REMARK  13 active torsions:
REMARK  status: ('A' for Active; 'I' for Inactive)
REMARK       I    between atoms: C2_2  and  N1_4
REMARK    1  A    between atoms: N1_4  and  C3_6
REMARK    2  A    between atoms: C3_6  and  S1_9
REMARK    3  A    between atoms: S1_9  and  C5_10
REMARK    4  A    between atoms: C5_10  and  C6_11
REMARK    5  A    between atoms: C7_12  and  C8_13
REMARK    6  A    between atoms: N3_14  and  O2_16
REMARK    7  A    between atoms: C9_20  and  N5_21
REMARK    8  A    between atoms: N5_21  and  N6_23
REMARK    9  A    between atoms: C10_28  and  N8_29
REMARK   10  A    between atoms: N8_29  and  C11_31
REMARK   11  A    between atoms: C12_35  and  S2_36
REMARK   12  A    between atoms: S2_36  and  C13_37
REMARK   13  A    between atoms: C14_42  and  N13_43
ROOT
HETATM    1  C3  UNL     1      18.241 -11.302   1.745  1.00  0.00     0.255 C
HETATM    2  C4  UNL     1      16.848 -11.758   1.964  1.00  0.00     0.095 C
HETATM    3  N2  UNL     1      15.756 -12.060   2.136  1.00  0.00    -0.194 NA
ENDROOT
BRANCH   1   4
HETATM    4  N1  UNL     1      18.441 -10.986   0.343  1.00  0.00    -0.336 N
HETATM    5  C2  UNL     1      19.773 -11.075  -0.205  1.00  0.00     0.215 C
HETATM    6  C1  UNL     1      19.825 -10.680  -1.660  1.00  0.00     0.117 C
HETATM    7  O1  UNL     1      20.706 -11.421   0.495  1.00  0.00    -0.274 OA
ATOM      8  H1  UNL     1      17.655 -10.707  -0.245  1.00  0.00     0.164 HD
ENDBRANCH   1   4
BRANCH   1   9
HETATM    9  S1  UNL     1      18.406  -9.763   2.660  1.00  0.00    -0.124 SA
BRANCH   9  10
HETATM   10  C5  UNL     1      16.937  -8.774   2.725  1.00  0.00     0.122 C
BRANCH  10  11
HETATM   11  C6  UNL     1      16.875  -7.934   3.925  1.00  0.00     0.024 A
HETATM   12  C7  UNL     1      15.884  -8.312   4.876  1.00  0.00     0.077 A
HETATM   13  N4  UNL     1      15.783  -7.529   5.950  1.00  0.00    -0.188 N
HETATM   14  C9  UNL     1      16.512  -6.467   6.174  1.00  0.00     0.698 A
ATOM     15  H4  UNL     1      15.083  -7.776   6.650  1.00  0.00     0.184 HD
HETATM   16  N7  UNL     1      17.467  -6.082   5.259  1.00  0.00    -0.175 N
HETATM   17  C10 UNL     1      17.660  -6.810   4.126  1.00  0.00     0.128 A
ATOM     18  H7  UNL     1      18.031  -5.249   5.431  1.00  0.00     0.186 HD
BRANCH  12  19
HETATM   19  C8  UNL     1      15.097  -9.486   4.622  1.00  0.00     0.144 C
HETATM   20  N3  UNL     1      13.878  -9.642   4.773  1.00  0.00    -0.278 N
ATOM     21  H3  UNL     1      13.631 -10.595   4.505  1.00  0.00     0.193 HD
BRANCH  20  22
HETATM   22  O2  UNL     1      12.791  -9.012   5.158  1.00  0.00    -0.290 OA
ATOM     23  H2  UNL     1      11.866  -8.925   4.963  1.00  0.00     0.244 HD
ENDBRANCH  20  22
ENDBRANCH  12  19
BRANCH  14  24
HETATM   24  N5  UNL     1      16.445  -5.787   7.266  1.00  0.00    -0.138 N
ATOM     25  H5  UNL     1      16.068  -6.199   8.120  1.00  0.00     0.205 HD
BRANCH  24  26
HETATM   26  N6  UNL     1      16.913  -4.448   7.247  1.00  0.00    -0.331 N
ATOM     27  H62 UNL     1      16.538  -3.786   6.568  1.00  0.00     0.177 HD
ATOM     28  H61 UNL     1      17.624  -4.178   7.927  1.00  0.00     0.177 HD
ENDBRANCH  24  26
ENDBRANCH  14  24
BRANCH  17  29
HETATM   29  N8  UNL     1      18.405  -6.404   3.221  1.00  0.00    -0.340 N
ATOM     30  H8  UNL     1      18.452  -7.130   2.506  1.00  0.00     0.164 HD
BRANCH  29  31
HETATM   31  C11 UNL     1      19.165  -5.386   2.820  1.00  0.00     0.354 C
HETATM   32  N9  UNL     1      18.740  -4.643   1.579  1.00  0.00    -0.023 N
HETATM   33  C12 UNL     1      19.814  -3.709   1.941  1.00  0.00     0.319 C
ATOM     34  H92 UNL     1      18.690  -5.091   0.664  1.00  0.00     0.283 HD
ATOM     35  H91 UNL     1      17.779  -4.340   1.426  1.00  0.00     0.283 HD
HETATM   36  S3  UNL     1      19.077  -3.731   3.621  1.00  0.00    -0.072 SA
BRANCH  33  37
HETATM   37  S2  UNL     1      19.695  -2.159   1.052  1.00  0.00    -0.072 SA
BRANCH  37  38
HETATM   38  C13 UNL     1      19.701  -0.827   2.352  1.00  0.00     0.305 C
HETATM   39  N10 UNL     1      21.026  -0.251   2.406  1.00  0.00    -0.285 N
HETATM   40  N11 UNL     1      21.096   1.065   2.774  1.00  0.00    -0.029 NA
ATOM     41  H10 UNL     1      21.860  -0.794   2.182  1.00  0.00     0.180 HD
HETATM   42  N12 UNL     1      20.023   1.832   2.326  1.00  0.00    -0.066 NA
HETATM   43  C14 UNL     1      18.791   1.186   2.778  1.00  0.00     0.436 C
HETATM   44  O3  UNL     1      18.676   0.016   2.032  1.00  0.00    -0.311 OA
BRANCH  43  45
HETATM   45  N13 UNL     1      17.738   2.153   2.490  1.00  0.00    -0.037 N
ATOM     46 3H13 UNL     1      18.035   2.925   1.893  1.00  0.00     0.279 HD
ATOM     47 2H13 UNL     1      17.010   1.800   1.868  1.00  0.00     0.279 HD
ATOM     48 1H13 UNL     1      17.395   2.444   3.406  1.00  0.00     0.279 HD
ENDBRANCH  43  45
ENDBRANCH  37  38
ENDBRANCH  33  37
ENDBRANCH  29  31
ENDBRANCH  17  29
ENDBRANCH  10  11
ENDBRANCH   9  10
ENDBRANCH   1   9
TORSDOF 13
ENDMDL