MODEL 1
REMARK VINA RESULT: -8.911177552      0.000      0.000
REMARK  12 active torsions:
REMARK  status: ('A' for Active; 'I' for Inactive)
REMARK    1  A    between atoms: O1_2  and  C2_3
REMARK    2  A    between atoms: C3_4  and  O2_5
REMARK    3  A    between atoms: C4_7  and  O3_8
REMARK    4  A    between atoms: C6_11  and  C7_12
REMARK    5  A    between atoms: C8_13  and  O4_14
REMARK    6  A    between atoms: N2_20  and  O6_21
REMARK    7  A    between atoms: C11_27  and  C12_28
REMARK    8  A    between atoms: C12_28  and  C13_29
REMARK    9  A    between atoms: C12_28  and  N9_41
REMARK   10  A    between atoms: C13_29  and  C14_30
REMARK   11  A    between atoms: C14_30  and  N4_31
REMARK   12  A    between atoms: N4_31  and  C15_33
REMARK       I    between atoms: N9_41  and  C17_43
ROOT
HETATM    1  C2  UNL     1      18.417 -11.857  -0.437  1.00  0.00     0.201 A
HETATM    2  C3  UNL     1      18.261 -13.159  -0.831  1.00  0.00     0.155 A
HETATM    3  C4  UNL     1      17.494 -13.775   0.135  1.00  0.00     0.135 A
HETATM    4  C5  UNL     1      17.202 -12.830   1.097  1.00  0.00     0.123 A
HETATM    5  C6  UNL     1      16.465 -12.942   2.268  1.00  0.00     0.086 A
HETATM    6  N3  UNL     1      16.361 -11.828   3.001  1.00  0.00    -0.340 N
ATOM      7  H3  UNL     1      15.827 -11.864   3.870  1.00  0.00     0.167 HD
HETATM    8  C11 UNL     1      16.925 -10.669   2.644  1.00  0.00     0.120 A
HETATM    9  N10 UNL     1      17.626 -10.601   1.512  1.00  0.00    -0.278 N
ATOM     10  H10 UNL     1      18.056  -9.717   1.239  1.00  0.00     0.189 HD
HETATM   11  N11 UNL     1      17.769 -11.658   0.741  1.00  0.00    -0.225 N
ENDROOT
BRANCH   8  12
HETATM   12  C12 UNL     1      16.747  -9.479   3.541  1.00  0.00     0.155 C
BRANCH  12  13
HETATM   13  C13 UNL     1      17.025  -8.225   2.734  1.00  0.00     0.053 C
BRANCH  13  14
HETATM   14  C14 UNL     1      18.127  -7.402   3.316  1.00  0.00     0.140 C
BRANCH  14  15
HETATM   15  N4  UNL     1      18.273  -7.720   4.710  1.00  0.00    -0.225 N
ATOM     16  H4  UNL     1      18.473  -8.677   5.002  1.00  0.00     0.177 HD
BRANCH  15  17
HETATM   17  C15 UNL     1      18.134  -6.674   5.691  1.00  0.00     0.687 C
HETATM   18  N5  UNL     1      19.107  -6.357   6.469  1.00  0.00    -0.211 N
HETATM   19  C16 UNL     1      18.984  -5.311   7.458  1.00  0.00     0.271 C
ATOM     20  H5  UNL     1      19.991  -6.858   6.385  1.00  0.00     0.179 HD
HETATM   21  N6  UNL     1      17.603  -5.018   7.785  1.00  0.00    -0.106 NA
HETATM   22  N7  UNL     1      16.893  -4.797   6.575  1.00  0.00    -0.015 NA
HETATM   23  N8  UNL     1      16.907  -5.968   5.815  1.00  0.00    -0.120 N
ATOM     24  H8  UNL     1      16.059  -6.308   5.363  1.00  0.00     0.202 HD
ENDBRANCH  15  17
ENDBRANCH  14  15
ENDBRANCH  13  14
ENDBRANCH  12  13
BRANCH  12  25
HETATM   25  N9  UNL     1      15.383  -9.413   3.977  1.00  0.00    -0.350 N
HETATM   26  C17 UNL     1      14.981  -9.130   5.303  1.00  0.00     0.214 C
HETATM   27  C18 UNL     1      13.546  -9.083   5.661  1.00  0.00     0.117 C
HETATM   28  O8  UNL     1      15.846  -8.920   6.179  1.00  0.00    -0.274 OA
ATOM     29  H9  UNL     1      14.654  -9.580   3.285  1.00  0.00     0.163 HD
ENDBRANCH  12  25
ENDBRANCH   8  12
BRANCH   5  30
HETATM   30  C7  UNL     1      15.876 -14.228   2.601  1.00  0.00     0.114 A
HETATM   31  C8  UNL     1      14.561 -14.528   2.283  1.00  0.00     0.162 A
HETATM   32  N1  UNL     1      13.981 -15.706   2.575  1.00  0.00    -0.286 N
HETATM   33  C9  UNL     1      14.735 -16.625   3.208  1.00  0.00     0.355 A
ATOM     34  H1  UNL     1      13.010 -15.895   2.326  1.00  0.00     0.172 HD
HETATM   35  O5  UNL     1      14.168 -17.721   3.471  1.00  0.00    -0.244 OA
HETATM   36  N2  UNL     1      16.000 -16.396   3.538  1.00  0.00    -0.133 N
HETATM   37  C10 UNL     1      16.587 -15.224   3.251  1.00  0.00     0.292 A
HETATM   38  O7  UNL     1      17.788 -14.979   3.553  1.00  0.00    -0.264 OA
BRANCH  31  39
HETATM   39  O4  UNL     1      13.814 -13.560   1.631  1.00  0.00    -0.345 OA
ATOM     40  H4  UNL     1      13.644 -13.678   0.705  1.00  0.00     0.219 HD
ENDBRANCH  31  39
BRANCH  36  41
HETATM   41  O6  UNL     1      16.711 -17.380   4.184  1.00  0.00    -0.276 OA
ATOM     42  H6  UNL     1      17.217 -17.154   4.956  1.00  0.00     0.245 HD
ENDBRANCH  36  41
ENDBRANCH   5  30
BRANCH   1  43
HETATM   43  O1  UNL     1      19.125 -10.905  -1.136  1.00  0.00    -0.337 OA
HETATM   44  C1  UNL     1      20.542 -10.920  -1.143  1.00  0.00     0.211 C
ENDBRANCH   1  43
BRANCH   3  45
HETATM   45  O3  UNL     1      17.077 -15.108   0.160  1.00  0.00    -0.356 OA
ATOM     46  H3  UNL     1      16.862 -15.629   0.924  1.00  0.00     0.218 HD
ENDBRANCH   3  45
BRANCH   2  47
HETATM   47  O2  UNL     1      18.763 -13.782  -1.981  1.00  0.00    -0.354 OA
ATOM     48  H2  UNL     1      19.663 -14.012  -2.179  1.00  0.00     0.218 HD
ENDBRANCH   2  47
TORSDOF 12
ENDMDL