MODEL 3
REMARK VINA RESULT: -9.468585756      2.345      8.797
REMARK  13 active torsions:
REMARK  status: ('A' for Active; 'I' for Inactive)
REMARK    1  A    between atoms: N1_1  and  C1_4
REMARK    2  A    between atoms: C2_7  and  S1_8
REMARK    3  A    between atoms: S1_8  and  C3_9
REMARK    4  A    between atoms: C3_9  and  C4_10
REMARK    5  A    between atoms: C4_10  and  N3_11
REMARK    6  A    between atoms: C5_12  and  C6_13
REMARK    7  A    between atoms: C8_22  and  O1_23
REMARK    8  A    between atoms: C9_25  and  N8_26
REMARK    9  A    between atoms: N8_26  and  C10_28
REMARK   10  A    between atoms: C10_28  and  O2_29
REMARK   11  A    between atoms: C10_28  and  C11_31
REMARK       I    between atoms: C11_31  and  N9_33
REMARK   12  A    between atoms: N9_33  and  N10_35
REMARK   13  A    between atoms: N13_48  and  O6_49
ROOT
HETATM    1  N3  UNL     1      19.227  -3.590   2.645  1.00  0.00    -0.327 N
HETATM    2  C5  UNL     1      19.052  -3.235   3.920  1.00  0.00     0.085 A
HETATM    3  C7  UNL     1      19.812  -2.115   4.135  1.00  0.00     0.074 A
HETATM    4  C8  UNL     1      20.470  -1.792   2.925  1.00  0.00     0.112 A
HETATM    5  C9  UNL     1      20.089  -2.732   1.997  1.00  0.00     0.140 A
ENDROOT
BRANCH   1   6
HETATM    6  C4  UNL     1      18.576  -4.735   2.055  1.00  0.00     0.141 C
BRANCH   6   7
HETATM    7  C3  UNL     1      19.498  -5.932   2.091  1.00  0.00     0.102 C
BRANCH   7   8
HETATM    8  S1  UNL     1      19.522  -6.712   3.721  1.00  0.00    -0.092 SA
BRANCH   8   9
HETATM    9  C2  UNL     1      18.145  -7.825   3.857  1.00  0.00     0.147 A
HETATM   10  N2  UNL     1      18.013  -8.875   3.026  1.00  0.00    -0.322 N
HETATM   11  C1  UNL     1      16.964  -9.729   3.125  1.00  0.00     0.120 A
ATOM     12  H2  UNL     1      18.717  -9.032   2.306  1.00  0.00     0.169 HD
HETATM   13  C13 UNL     1      15.993  -9.549   4.084  1.00  0.00     0.122 A
HETATM   14  C12 UNL     1      16.138  -8.469   4.928  1.00  0.00     0.159 A
HETATM   15  C14 UNL     1      14.904 -10.386   4.230  1.00  0.00     0.267 A
HETATM   16  N11 UNL     1      17.187  -7.650   4.800  1.00  0.00    -0.320 N
HETATM   17  N13 UNL     1      15.206  -8.255   5.886  1.00  0.00    -0.154 N
ATOM     18  H11 UNL     1      17.269  -6.859   5.438  1.00  0.00     0.169 HD
HETATM   19  C15 UNL     1      14.138  -9.066   6.037  1.00  0.00     0.355 A
HETATM   20  N12 UNL     1      13.996 -10.119   5.212  1.00  0.00    -0.273 N
HETATM   21  O5  UNL     1      13.300  -8.828   6.937  1.00  0.00    -0.244 OA
ATOM     22  H12 UNL     1      13.190 -10.733   5.324  1.00  0.00     0.173 HD
HETATM   23  O4  UNL     1      14.772 -11.359   3.468  1.00  0.00    -0.267 OA
BRANCH  11  24
HETATM   24  N1  UNL     1      16.822 -10.743   2.336  1.00  0.00    -0.384 N
ATOM     25  H12 UNL     1      16.877 -10.557   1.334  1.00  0.00     0.157 HD
ATOM     26  H11 UNL     1      16.663 -11.688   2.686  1.00  0.00     0.157 HD
ENDBRANCH  11  24
BRANCH  17  27
HETATM   27  O6  UNL     1      15.407  -7.164   6.695  1.00  0.00    -0.277 OA
ATOM     28  H6  UNL     1      14.683  -6.922   7.261  1.00  0.00     0.245 HD
ENDBRANCH  17  27
ENDBRANCH   8   9
ENDBRANCH   7   8
ENDBRANCH   6   7
ENDBRANCH   1   6
BRANCH   2  29
HETATM   29  C6  UNL     1      18.217  -3.886   4.954  1.00  0.00     0.161 A
HETATM   30  N4  UNL     1      16.919  -4.030   5.088  1.00  0.00    -0.265 N
HETATM   31  N5  UNL     1      16.635  -4.696   6.196  1.00  0.00    -0.005 NA
ATOM     32  H4  UNL     1      16.225  -3.678   4.428  1.00  0.00     0.186 HD
HETATM   33  N6  UNL     1      17.792  -4.993   6.800  1.00  0.00    -0.225 N
HETATM   34  N7  UNL     1      18.747  -4.505   6.054  1.00  0.00    -0.270 N
ATOM     35  H6  UNL     1      17.907  -5.502   7.677  1.00  0.00     0.205 HD
ATOM     36  H7  UNL     1      19.743  -4.575   6.260  1.00  0.00     0.190 HD
ENDBRANCH   2  29
BRANCH   5  37
HETATM   37  N8  UNL     1      20.401  -2.897   0.628  1.00  0.00    -0.340 N
ATOM     38  H8  UNL     1      20.741  -3.819   0.353  1.00  0.00     0.164 HD
BRANCH  37  39
HETATM   39  C10 UNL     1      20.299  -1.934  -0.408  1.00  0.00     0.315 C
BRANCH  39  40
HETATM   40  O2  UNL     1      20.873  -0.683   0.094  1.00  0.00    -0.368 OA
ATOM     41  H2  UNL     1      20.686  -0.006  -0.546  1.00  0.00     0.212 HD
ENDBRANCH  39  40
BRANCH  39  42
HETATM   42  C11 UNL     1      18.923  -1.545  -0.796  1.00  0.00     0.284 C
HETATM   43  O3  UNL     1      18.106  -1.140   0.114  1.00  0.00    -0.267 OA
HETATM   44  N9  UNL     1      18.418  -1.581  -2.105  1.00  0.00    -0.273 N
ATOM     45  H9  UNL     1      19.019  -1.894  -2.868  1.00  0.00     0.189 HD
BRANCH  44  46
HETATM   46  N10 UNL     1      17.072  -1.184  -2.384  1.00  0.00    -0.342 N
ATOM     47 2H10 UNL     1      16.439  -1.866  -2.802  1.00  0.00     0.176 HD
ATOM     48 1H10 UNL     1      16.750  -0.239  -2.171  1.00  0.00     0.176 HD
ENDBRANCH  44  46
ENDBRANCH  39  42
ENDBRANCH  37  39
ENDBRANCH   5  37
BRANCH   4  49
HETATM   49  O1  UNL     1      21.316  -0.721   2.792  1.00  0.00    -0.357 OA
ATOM     50  H1  UNL     1      21.144   0.010   2.209  1.00  0.00     0.218 HD
ENDBRANCH   4  49
TORSDOF 13
ENDMDL