MODEL 5
REMARK VINA RESULT: -5.918249453      2.560      5.193
REMARK  15 active torsions:
REMARK  status: ('A' for Active; 'I' for Inactive)
REMARK    1  A    between atoms: O1_2  and  C2_3
REMARK    2  A    between atoms: C2_3  and  C3_5
REMARK    3  A    between atoms: C4_9  and  N2_10
REMARK    4  A    between atoms: N2_10  and  C5_13
REMARK    5  A    between atoms: C5_13  and  O3_15
REMARK    6  A    between atoms: C7_17  and  N3_18
REMARK    7  A    between atoms: N3_18  and  C8_20
REMARK    8  A    between atoms: C11_28  and  N7_29
REMARK    9  A    between atoms: C12_32  and  C13_33
REMARK   10  A    between atoms: C13_33  and  O4_34
REMARK   11  A    between atoms: N8_36  and  O5_38
REMARK   12  A    between atoms: O5_38  and  C14_39
REMARK   13  A    between atoms: C15_44  and  O7_45
REMARK   14  A    between atoms: C15_44  and  C16_47
REMARK   15  A    between atoms: N11_49  and  O8_51
ROOT
HETATM    1  C3  UNL     1      20.504 -13.628   0.069  1.00  0.00     0.348 C
HETATM    2  N1  UNL     1      19.737 -14.626   0.835  1.00  0.00    -0.022 N
ATOM      3  H11 UNL     1      20.308 -15.366   1.245  1.00  0.00     0.281 HD
ATOM      4  H12 UNL     1      19.158 -15.238   0.260  1.00  0.00     0.281 HD
HETATM    5  C4  UNL     1      18.979 -13.828   1.824  1.00  0.00     0.438 C
HETATM    6  C7  UNL     1      17.681 -13.398   1.238  1.00  0.00     0.099 C
HETATM    7  C12 UNL     1      17.536 -13.913  -0.160  1.00  0.00     0.110 C
HETATM    8  N10 UNL     1      18.382 -13.934  -1.087  1.00  0.00    -0.346 N
ATOM      9  H10 UNL     1      18.002 -14.343  -1.941  1.00  0.00     0.163 HD
HETATM   10  C15 UNL     1      19.769 -13.519  -1.249  1.00  0.00     0.212 C
ENDROOT
BRANCH   6  11
HETATM   11  N3  UNL     1      17.284 -12.091   1.510  1.00  0.00    -0.349 N
ATOM     12  H3  UNL     1      17.654 -11.441   0.818  1.00  0.00     0.166 HD
BRANCH  11  13
HETATM   13  C8  UNL     1      16.519 -11.430   2.468  1.00  0.00     0.118 A
HETATM   14  C9  UNL     1      15.372 -11.899   3.037  1.00  0.00     0.147 A
HETATM   15  N4  UNL     1      14.736 -13.135   2.748  1.00  0.00    -0.080 NA
HETATM   16  N5  UNL     1      14.668 -11.155   3.958  1.00  0.00    -0.339 N
HETATM   17  C10 UNL     1      15.092  -9.946   4.321  1.00  0.00     0.183 A
ATOM     18  H5  UNL     1      13.814 -11.534   4.367  1.00  0.00     0.167 HD
HETATM   19  N6  UNL     1      16.214  -9.493   3.756  1.00  0.00    -0.337 N
HETATM   20  C11 UNL     1      16.950 -10.155   2.859  1.00  0.00     0.130 A
ATOM     21  H6  UNL     1      16.536  -8.566   4.033  1.00  0.00     0.168 HD
BRANCH  20  22
HETATM   22  N7  UNL     1      17.990  -9.583   2.378  1.00  0.00    -0.384 N
ATOM     23  H72 UNL     1      18.405  -9.962   1.526  1.00  0.00     0.157 HD
ATOM     24  H71 UNL     1      18.443  -8.781   2.815  1.00  0.00     0.157 HD
ENDBRANCH  20  22
ENDBRANCH  11  13
ENDBRANCH   6  11
BRANCH   5  25
HETATM   25  N2  UNL     1      18.822 -14.721   2.989  1.00  0.00    -0.015 N
ATOM     26  H22 UNL     1      18.244 -14.287   3.707  1.00  0.00     0.283 HD
ATOM     27  H21 UNL     1      18.230 -15.520   2.762  1.00  0.00     0.283 HD
BRANCH  25  28
HETATM   28  C5  UNL     1      20.063 -15.143   3.522  1.00  0.00     0.317 C
HETATM   29  C6  UNL     1      19.845 -15.515   4.993  1.00  0.00     0.070 C
BRANCH  28  30
HETATM   30  O3  UNL     1      20.585 -16.292   2.913  1.00  0.00    -0.370 OA
ATOM     31  H3  UNL     1      20.839 -16.973   3.525  1.00  0.00     0.212 HD
ENDBRANCH  28  30
ENDBRANCH  25  28
ENDBRANCH   5  25
BRANCH   7  32
HETATM   32  C13 UNL     1      16.236 -14.540  -0.494  1.00  0.00     0.190 C
HETATM   33  N8  UNL     1      15.563 -15.050   0.459  1.00  0.00    -0.233 N
ATOM     34  H8  UNL     1      15.991 -14.978   1.382  1.00  0.00     0.197 HD
BRANCH  32  35
HETATM   35  O4  UNL     1      15.780 -14.569  -1.780  1.00  0.00    -0.343 OA
ATOM     36  H4  UNL     1      15.614 -13.765  -2.259  1.00  0.00     0.219 HD
ENDBRANCH  32  35
BRANCH  33  37
HETATM   37  O5  UNL     1      14.370 -15.670   0.425  1.00  0.00    -0.181 OA
BRANCH  37  38
HETATM   38  C14 UNL     1      13.145 -15.104   0.132  1.00  0.00     0.394 C
HETATM   39  N9  UNL     1      12.776 -14.878  -1.212  1.00  0.00    -0.031 NA
HETATM   40  O6  UNL     1      12.390 -14.806   1.082  1.00  0.00    -0.240 OA
ENDBRANCH  37  38
ENDBRANCH  33  37
ENDBRANCH   7  32
BRANCH   1  41
HETATM   41  C2  UNL     1      21.828 -14.273  -0.206  1.00  0.00     0.295 C
HETATM   42  O2  UNL     1      22.650 -13.619  -0.937  1.00  0.00    -0.263 OA
BRANCH  41  43
HETATM   43  O1  UNL     1      22.164 -15.509   0.293  1.00  0.00    -0.325 OA
HETATM   44  C1  UNL     1      22.629 -16.517  -0.578  1.00  0.00     0.213 C
ENDBRANCH  41  43
ENDBRANCH   1  41
BRANCH  10  45
HETATM   45  O7  UNL     1      20.351 -14.421  -2.132  1.00  0.00    -0.364 OA
ATOM     46  H7  UNL     1      20.201 -14.098  -3.012  1.00  0.00     0.213 HD
ENDBRANCH  10  45
BRANCH  10  47
HETATM   47  C16 UNL     1      19.852 -12.174  -1.850  1.00  0.00     0.063 C
HETATM   48  C17 UNL     1      20.600 -11.036  -1.251  1.00  0.00     0.071 C
HETATM   49  N11 UNL     1      19.334 -11.939  -3.001  1.00  0.00    -0.273 N
ATOM     50  H11 UNL     1      19.418 -10.991  -3.367  1.00  0.00     0.193 HD
BRANCH  49  51
HETATM   51  O8  UNL     1      18.684 -12.851  -3.771  1.00  0.00    -0.290 OA
ATOM     52  H8  UNL     1      18.469 -12.740  -4.690  1.00  0.00     0.244 HD
ENDBRANCH  49  51
ENDBRANCH  10  47
TORSDOF 15
ENDMDL