MODEL 5
REMARK VINA RESULT: -7.027175869      3.672      6.294
REMARK  9 active torsions:
REMARK  status: ('A' for Active; 'I' for Inactive)
REMARK    1  A    between atoms: C2_2  and  C4_4
REMARK    2  A    between atoms: C4_4  and  C5_5
REMARK    3  A    between atoms: C5_5  and  C6_6
REMARK    4  A    between atoms: C6_6  and  C7_8
REMARK    5  A    between atoms: C7_8  and  N1_9
REMARK    6  A    between atoms: C7_8  and  C25_39
REMARK    7  A    between atoms: C18_21  and  N2_22
REMARK    8  A    between atoms: C20_29  and  C21_30
REMARK    9  A    between atoms: C21_30  and  C23_32
ROOT
HETATM    1  N1  UNL     1      63.451  78.504  80.522  1.00  0.00    -0.359 N
ATOM      2  H1  UNL     1      64.011  77.815  81.023  1.00  0.00     0.162 HD
HETATM    3  C8  UNL     1      62.780  79.378  81.254  1.00  0.00     0.080 C
HETATM    4  C9  UNL     1      61.937  80.410  80.550  1.00  0.00     0.076 C
HETATM    5  C10 UNL     1      62.689  81.742  80.377  1.00  0.00     0.007 C
HETATM    6  C11 UNL     1      63.377  82.041  81.657  1.00  0.00     0.000 C
HETATM    7  C12 UNL     1      63.880  83.452  81.854  1.00  0.00     0.000 C
HETATM    8  C13 UNL     1      64.860  83.356  83.037  1.00  0.00     0.000 C
HETATM    9  C14 UNL     1      64.164  83.168  84.341  1.00  0.00     0.000 C
HETATM   10  C15 UNL     1      64.994  82.636  85.459  1.00  0.00     0.000 C
HETATM   11  C16 UNL     1      65.298  81.184  85.446  1.00  0.00     0.002 C
HETATM   12  C17 UNL     1      64.686  80.379  86.570  1.00  0.00     0.043 C
HETATM   13  C18 UNL     1      64.306  78.966  86.161  1.00  0.00     0.282 C
HETATM   14  C19 UNL     1      62.897  78.617  86.456  1.00  0.00     0.290 C
HETATM   15  O2  UNL     1      62.453  79.234  87.494  1.00  0.00    -0.263 OA
HETATM   16  O3  UNL     1      62.078  77.772  85.790  1.00  0.00    -0.304 OA
HETATM   17  C20 UNL     1      61.669  77.820  84.404  1.00  0.00     0.237 C
HETATM   18  C24 UNL     1      62.207  79.050  83.770  1.00  0.00     0.253 C
HETATM   19  O6  UNL     1      61.829  80.082  84.453  1.00  0.00    -0.270 OA
HETATM   20  N3  UNL     1      62.996  79.270  82.646  1.00  0.00    -0.315 N
ATOM     21  H3  UNL     1      63.981  79.381  82.888  1.00  0.00     0.170 HD
ENDROOT
BRANCH   1  22
HETATM   22  C7  UNL     1      63.465  78.437  79.130  1.00  0.00     0.259 C
BRANCH  22  23
HETATM   23  C6  UNL     1      62.474  77.663  78.406  1.00  0.00     0.189 C
HETATM   24  O1  UNL     1      61.514  77.227  79.073  1.00  0.00    -0.290 OA
BRANCH  23  25
HETATM   25  C5  UNL     1      62.450  77.316  76.948  1.00  0.00     0.104 C
BRANCH  25  26
HETATM   26  C4  UNL     1      61.225  77.670  76.334  1.00  0.00    -0.148 C
BRANCH  26  27
HETATM   27  C2  UNL     1      60.126  77.988  75.783  1.00  0.00     0.048 C
HETATM   28  C1  UNL     1      58.910  78.072  76.721  1.00  0.00     0.022 C
HETATM   29  C3  UNL     1      59.813  78.307  74.381  1.00  0.00     0.022 C
ENDBRANCH  26  27
ENDBRANCH  25  26
ENDBRANCH  23  25
ENDBRANCH  22  23
BRANCH  22  30
HETATM   30  C25 UNL     1      64.790  77.798  78.741  1.00  0.00     0.204 C
HETATM   31  O7  UNL     1      65.101  76.638  79.037  1.00  0.00    -0.646 OA
HETATM   32  O8  UNL     1      65.696  78.572  78.012  1.00  0.00    -0.646 OA
ENDBRANCH  22  30
ENDBRANCH   1  22
BRANCH  17  33
HETATM   33  C21 UNL     1      60.154  77.821  84.421  1.00  0.00     0.121 C
HETATM   34  C22 UNL     1      59.527  77.746  85.762  1.00  0.00     0.024 C
BRANCH  33  35
HETATM   35  C23 UNL     1      59.738  76.581  83.678  1.00  0.00     0.179 C
HETATM   36  O4  UNL     1      60.609  75.713  83.408  1.00  0.00    -0.648 OA
HETATM   37  O5  UNL     1      58.435  76.353  83.276  1.00  0.00    -0.648 OA
ENDBRANCH  33  35
ENDBRANCH  17  33
BRANCH  13  38
HETATM   38  N2  UNL     1      65.154  78.078  86.980  1.00  0.00    -0.066 N
ATOM     39  H23 UNL     1      64.861  77.101  86.965  1.00  0.00     0.275 HD
ATOM     40  H22 UNL     1      66.086  77.929  86.592  1.00  0.00     0.275 HD
ATOM     41  H21 UNL     1      65.160  78.492  87.912  1.00  0.00     0.275 HD
ENDBRANCH  13  38
TORSDOF 9
ENDMDL