MODEL 1
REMARK VINA RESULT: -8.045790014      0.000      0.000
REMARK  11 active torsions:
REMARK  status: ('A' for Active; 'I' for Inactive)
REMARK    1  A    between atoms: C2_2  and  C3_4
REMARK    2  A    between atoms: C3_4  and  O2_5
REMARK    3  A    between atoms: O2_5  and  C4_6
REMARK    4  A    between atoms: C12_16  and  C13_17
REMARK    5  A    between atoms: C13_17  and  C15_19
REMARK    6  A    between atoms: C15_19  and  C16_20
REMARK    7  A    between atoms: C16_20  and  C17_21
REMARK    8  A    between atoms: C17_21  and  S1_22
REMARK    9  A    between atoms: S1_22  and  N2_25
REMARK   10  A    between atoms: N2_25  and  O6_27
REMARK   11  A    between atoms: C19_30  and  O7_31
ROOT
HETATM    1  C3  UNL     1      62.521  78.166  83.766  1.00  0.00     0.139 C
HETATM    2  C5  UNL     1      61.372  77.273  83.451  1.00  0.00     0.048 C
HETATM    3  C6  UNL     1      60.392  78.293  82.902  1.00  0.00     0.009 C
HETATM    4  C7  UNL     1      61.193  79.276  82.080  1.00  0.00     0.002 C
HETATM    5  C8  UNL     1      60.925  79.249  80.641  1.00  0.00    -0.005 C
HETATM    6  C9  UNL     1      59.586  78.557  80.323  1.00  0.00     0.006 C
HETATM    7  C10 UNL     1      59.168  78.874  78.882  1.00  0.00     0.006 C
HETATM    8  C11 UNL     1      60.276  78.672  77.921  1.00  0.00    -0.003 C
HETATM    9  C12 UNL     1      59.949  77.650  76.813  1.00  0.00    -0.004 C
HETATM   10  C18 UNL     1      61.412  77.499  76.297  1.00  0.00     0.037 C
HETATM   11  C19 UNL     1      62.292  77.576  77.507  1.00  0.00     0.123 C
HETATM   12  C20 UNL     1      61.354  77.844  78.634  1.00  0.00     0.023 C
HETATM   13  C21 UNL     1      61.953  78.693  79.728  1.00  0.00    -0.003 C
HETATM   14  C22 UNL     1      63.004  77.856  80.393  1.00  0.00     0.006 C
HETATM   15  C23 UNL     1      63.564  78.691  81.511  1.00  0.00     0.013 C
HETATM   16  C24 UNL     1      62.608  79.091  82.546  1.00  0.00    -0.001 C
HETATM   17  C25 UNL     1      63.182  80.408  83.124  1.00  0.00     0.019 C
ENDROOT
BRANCH   9  18
HETATM   18  C13 UNL     1      59.084  78.202  75.784  1.00  0.00    -0.014 C
HETATM   19  C14 UNL     1      59.802  78.574  74.490  1.00  0.00     0.010 C
BRANCH  18  20
HETATM   20  C15 UNL     1      57.781  77.592  75.502  1.00  0.00     0.005 C
BRANCH  20  21
HETATM   21  C16 UNL     1      56.654  78.419  75.063  1.00  0.00     0.017 C
BRANCH  21  22
HETATM   22  C17 UNL     1      56.081  78.400  73.720  1.00  0.00     0.165 C
BRANCH  22  23
HETATM   23  S1  UNL     1      56.428  79.828  72.760  1.00  0.00     0.248 S
HETATM   24  O4  UNL     1      55.257  80.384  72.079  1.00  0.00    -0.204 OA
HETATM   25  O5  UNL     1      57.213  80.939  73.773  1.00  0.00    -0.204 OA
BRANCH  23  26
HETATM   26  N2  UNL     1      57.501  79.455  71.649  1.00  0.00    -0.194 N
ATOM     27  H2  UNL     1      58.400  79.062  71.929  1.00  0.00     0.207 HD
BRANCH  26  28
HETATM   28  O6  UNL     1      57.230  79.656  70.308  1.00  0.00    -0.280 OA
ATOM     29  H6  UNL     1      57.935  79.774  69.683  1.00  0.00     0.245 HD
ENDBRANCH  26  28
ENDBRANCH  23  26
ENDBRANCH  22  23
ENDBRANCH  21  22
ENDBRANCH  20  21
ENDBRANCH  18  20
ENDBRANCH   9  18
BRANCH  11  30
HETATM   30  O7  UNL     1      62.880  76.300  77.660  1.00  0.00    -0.395 OA
ATOM     31  H7  UNL     1      62.177  75.666  77.584  1.00  0.00     0.210 HD
ENDBRANCH  11  30
BRANCH   1  32
HETATM   32  C2  UNL     1      63.756  77.523  84.165  1.00  0.00     0.159 C
HETATM   33  C1  UNL     1      65.144  78.009  84.032  1.00  0.00     0.094 C
HETATM   34  O1  UNL     1      63.669  76.393  84.696  1.00  0.00    -0.295 OA
ENDBRANCH   1  32
BRANCH   1  35
HETATM   35  O2  UNL     1      62.061  79.055  84.824  1.00  0.00    -0.286 OA
BRANCH  35  36
HETATM   36  C4  UNL     1      62.194  78.812  86.150  1.00  0.00     0.373 C
HETATM   37  N1  UNL     1      63.230  79.469  86.883  1.00  0.00    -0.032 NA
HETATM   38  O3  UNL     1      61.409  78.013  86.722  1.00  0.00    -0.242 OA
ENDBRANCH  35  36
ENDBRANCH   1  35
TORSDOF 11
ENDMDL