MODEL 5
REMARK VINA RESULT: -8.062128479      3.977      6.665
REMARK  11 active torsions:
REMARK  status: ('A' for Active; 'I' for Inactive)
REMARK    1  A    between atoms: C2_2  and  C3_3
REMARK    2  A    between atoms: C2_2  and  C16_21
REMARK    3  A    between atoms: C3_3  and  C5_5
REMARK    4  A    between atoms: C5_5  and  O1_6
REMARK    5  A    between atoms: C5_5  and  C6_8
REMARK    6  A    between atoms: C6_8  and  C7_9
REMARK    7  A    between atoms: C8_10  and  C10_12
REMARK    8  A    between atoms: C10_12  and  O2_13
REMARK    9  A    between atoms: C10_12  and  C11_15
REMARK   10  A    between atoms: C20_25  and  O4_26
REMARK   11  A    between atoms: C22_29  and  O5_30
ROOT
HETATM    1  C16 UNL     1      62.592  78.535  79.533  1.00  0.00     0.099 C
HETATM    2  C17 UNL     1      62.021  79.314  80.698  1.00  0.00     0.056 C
HETATM    3  C18 UNL     1      62.931  79.857  81.702  1.00  0.00    -0.011 C
HETATM    4  C19 UNL     1      63.395  81.241  81.275  1.00  0.00     0.018 C
HETATM    5  C20 UNL     1      62.123  80.079  82.988  1.00  0.00     0.129 C
HETATM    6  C21 UNL     1      61.597  78.791  83.537  1.00  0.00     0.064 C
HETATM    7  C22 UNL     1      62.519  77.626  83.379  1.00  0.00     0.121 C
HETATM    8  C23 UNL     1      63.934  78.034  83.137  1.00  0.00     0.037 C
HETATM    9  C24 UNL     1      64.128  78.992  82.006  1.00  0.00    -0.001 C
HETATM   10  C25 UNL     1      64.676  78.322  80.816  1.00  0.00     0.014 C
HETATM   11  C26 UNL     1      63.682  77.622  79.901  1.00  0.00     0.039 C
HETATM   12  C27 UNL     1      64.499  77.453  78.616  1.00  0.00     0.089 C
HETATM   13  C28 UNL     1      64.460  76.121  77.993  1.00  0.00     0.021 C
HETATM   14  C29 UNL     1      63.997  78.575  77.797  1.00  0.00     0.264 C
HETATM   15  O6  UNL     1      64.246  78.802  76.585  1.00  0.00    -0.265 OA
HETATM   16  O7  UNL     1      63.184  79.372  78.586  1.00  0.00    -0.305 OA
ENDROOT
BRANCH   1  17
HETATM   17  C2  UNL     1      61.365  77.917  78.920  1.00  0.00    -0.048 C
HETATM   18  C1  UNL     1      60.786  76.938  79.607  1.00  0.00     0.018 C
BRANCH  17  19
HETATM   19  C3  UNL     1      60.680  78.363  77.709  1.00  0.00     0.042 C
HETATM   20  C4  UNL     1      59.203  78.734  78.003  1.00  0.00     0.017 C
BRANCH  19  21
HETATM   21  C5  UNL     1      60.675  77.631  76.447  1.00  0.00     0.129 C
BRANCH  21  22
HETATM   22  O1  UNL     1      61.458  76.447  76.550  1.00  0.00    -0.395 OA
ATOM     23  H1  UNL     1      62.056  76.503  77.287  1.00  0.00     0.210 HD
ENDBRANCH  21  22
BRANCH  21  24
HETATM   24  C6  UNL     1      60.797  78.275  75.134  1.00  0.00     0.059 C
BRANCH  24  25
HETATM   25  C7  UNL     1      59.637  78.036  74.233  1.00  0.00    -0.019 C
HETATM   26  C8  UNL     1      58.730  78.948  73.935  1.00  0.00    -0.059 C
HETATM   27  C9  UNL     1      58.775  80.335  74.481  1.00  0.00     0.046 C
BRANCH  26  28
HETATM   28  C10 UNL     1      57.616  78.557  73.016  1.00  0.00     0.150 C
BRANCH  28  29
HETATM   29  O2  UNL     1      57.865  79.115  71.787  1.00  0.00    -0.391 OA
ATOM     30  H2  UNL     1      57.085  79.584  71.514  1.00  0.00     0.210 HD
ENDBRANCH  28  29
BRANCH  28  31
HETATM   31  C11 UNL     1      56.344  79.079  73.651  1.00  0.00     0.023 C
HETATM   32  C12 UNL     1      55.535  77.919  74.232  1.00  0.00     0.034 C
HETATM   33  C13 UNL     1      54.269  78.478  74.804  1.00  0.00     0.168 C
HETATM   34  O3  UNL     1      54.132  79.849  74.587  1.00  0.00    -0.391 OA
HETATM   35  C14 UNL     1      54.171  80.173  73.250  1.00  0.00     0.168 C
HETATM   36  C15 UNL     1      55.474  79.740  72.616  1.00  0.00     0.034 C
ENDBRANCH  28  31
ENDBRANCH  26  28
ENDBRANCH  24  25
ENDBRANCH  21  24
ENDBRANCH  19  21
ENDBRANCH  17  19
ENDBRANCH   1  17
BRANCH   5  37
HETATM   37  O4  UNL     1      62.870  80.731  83.945  1.00  0.00    -0.395 OA
ATOM     38  H4  UNL     1      62.949  80.211  84.736  1.00  0.00     0.210 HD
ENDBRANCH   5  37
BRANCH   7  39
HETATM   39  O5  UNL     1      62.505  76.893  84.590  1.00  0.00    -0.395 OA
ATOM     40  H5  UNL     1      62.664  77.502  85.301  1.00  0.00     0.210 HD
ENDBRANCH   7  39
TORSDOF 11
ENDMDL