MODEL 1
REMARK VINA RESULT: -7.436590384      0.000      0.000
REMARK  10 active torsions:
REMARK  status: ('A' for Active; 'I' for Inactive)
REMARK    1  A    between atoms: C2_2  and  C3_3
REMARK    2  A    between atoms: C3_3  and  C4_4
REMARK    3  A    between atoms: C4_4  and  C5_5
REMARK    4  A    between atoms: C5_5  and  C6_6
REMARK    5  A    between atoms: C5_5  and  O7_39
REMARK    6  A    between atoms: C7_7  and  C8_8
REMARK    7  A    between atoms: C14_15  and  O2_16
REMARK    8  A    between atoms: C17_20  and  O3_21
REMARK    9  A    between atoms: C20_25  and  O4_26
REMARK   10  A    between atoms: C25_32  and  O5_33
ROOT
HETATM    1  C8  UNL     1      63.020  78.271  79.932  1.00  0.00    -0.018 C
HETATM    2  C9  UNL     1      63.064  79.567  79.223  1.00  0.00     0.020 C
HETATM    3  C10 UNL     1      61.690  77.469  79.522  1.00  0.00     0.031 C
HETATM    4  C11 UNL     1      61.010  78.241  80.557  1.00  0.00     0.029 C
HETATM    5  C12 UNL     1      60.228  79.293  79.977  1.00  0.00     0.024 C
HETATM    6  C13 UNL     1      60.126  77.559  81.577  1.00  0.00     0.173 C
HETATM    7  O1  UNL     1      59.655  76.514  81.340  1.00  0.00    -0.294 OA
HETATM    8  C14 UNL     1      60.045  78.452  82.764  1.00  0.00     0.153 C
HETATM    9  C15 UNL     1      59.803  77.789  84.077  1.00  0.00     0.055 C
HETATM   10  C16 UNL     1      59.400  76.321  83.984  1.00  0.00     0.016 C
HETATM   11  C17 UNL     1      60.620  78.115  85.272  1.00  0.00     0.132 C
HETATM   12  C18 UNL     1      61.959  77.544  85.439  1.00  0.00     0.046 C
HETATM   13  C19 UNL     1      62.748  77.402  84.155  1.00  0.00     0.051 C
HETATM   14  C20 UNL     1      63.039  78.758  83.700  1.00  0.00     0.099 C
HETATM   15  C21 UNL     1      64.414  78.950  84.234  1.00  0.00    -0.011 C
HETATM   16  C22 UNL     1      65.409  77.898  83.765  1.00  0.00     0.018 C
HETATM   17  C23 UNL     1      65.017  80.288  83.949  1.00  0.00     0.018 C
HETATM   18  C24 UNL     1      64.241  78.699  85.752  1.00  0.00     0.044 C
HETATM   19  C25 UNL     1      62.944  78.256  86.302  1.00  0.00     0.125 C
HETATM   20  C26 UNL     1      62.486  79.077  82.411  1.00  0.00     0.128 A
HETATM   21  O6  UNL     1      61.832  80.239  82.053  1.00  0.00    -0.362 OA
HETATM   22  C27 UNL     1      61.048  79.511  82.795  1.00  0.00     0.203 A
HETATM   23  C28 UNL     1      62.319  78.185  81.226  1.00  0.00     0.053 C
ENDROOT
BRANCH   1  24
HETATM   24  C7  UNL     1      64.078  77.254  79.619  1.00  0.00    -0.018 C
HETATM   25  C6  UNL     1      64.840  77.108  78.441  1.00  0.00     0.001 C
BRANCH  25  26
HETATM   26  C5  UNL     1      64.504  76.675  77.077  1.00  0.00     0.143 C
BRANCH  26  27
HETATM   27  C4  UNL     1      63.420  75.670  76.921  1.00  0.00     0.036 C
BRANCH  27  28
HETATM   28  C3  UNL     1      62.051  76.040  76.533  1.00  0.00     0.002 C
BRANCH  28  29
HETATM   29  C2  UNL     1      61.885  77.534  76.256  1.00  0.00    -0.004 C
HETATM   30  C1  UNL     1      60.401  77.866  76.112  1.00  0.00     0.005 C
ENDBRANCH  28  29
ENDBRANCH  27  28
ENDBRANCH  26  27
BRANCH  26  31
HETATM   31  O7  UNL     1      65.697  76.179  76.477  1.00  0.00    -0.387 OA
HETATM   32  C29 UNL     1      65.806  74.816  76.544  1.00  0.00     0.202 C
ENDBRANCH  26  31
ENDBRANCH  25  26
ENDBRANCH   1  24
BRANCH  14  33
HETATM   33  O4  UNL     1      62.581  79.864  84.505  1.00  0.00    -0.386 OA
ATOM     34  H4  UNL     1      63.227  80.381  84.972  1.00  0.00     0.210 HD
ENDBRANCH  14  33
BRANCH   8  35
HETATM   35  O2  UNL     1      58.887  79.228  82.364  1.00  0.00    -0.379 OA
ATOM     36  H2  UNL     1      59.181  80.079  82.666  1.00  0.00     0.211 HD
ENDBRANCH   8  35
BRANCH  11  37
HETATM   37  O3  UNL     1      59.876  77.561  86.374  1.00  0.00    -0.395 OA
ATOM     38  H3  UNL     1      60.031  76.626  86.315  1.00  0.00     0.210 HD
ENDBRANCH  11  37
BRANCH  19  39
HETATM   39  O5  UNL     1      63.270  77.341  87.348  1.00  0.00    -0.395 OA
ATOM     40  H5  UNL     1      62.996  77.765  88.153  1.00  0.00     0.210 HD
ENDBRANCH  19  39
TORSDOF 10
ENDMDL