MODEL 3
REMARK VINA RESULT: -8.417273633      5.250      9.787
REMARK  11 active torsions:
REMARK  status: ('A' for Active; 'I' for Inactive)
REMARK    1  A    between atoms: C2_2  and  C3_3
REMARK    2  A    between atoms: C4_4  and  C5_5
REMARK    3  A    between atoms: C9_10  and  O2_12
REMARK    4  A    between atoms: C17_20  and  C18_21
REMARK    5  A    between atoms: C19_22  and  C20_23
REMARK    6  A    between atoms: C22_25  and  C23_26
REMARK    7  A    between atoms: C23_26  and  O4_28
REMARK    8  A    between atoms: O4_28  and  C24_29
REMARK    9  A    between atoms: C25_30  and  O5_31
REMARK   10  A    between atoms: C27_34  and  O6_35
REMARK   11  A    between atoms: C28_37  and  C29_38
ROOT
HETATM    1  C1  UNL     1      61.408  76.818  83.749  1.00  0.00     0.048 C
HETATM    2  C2  UNL     1      62.160  77.609  82.763  1.00  0.00    -0.062 C
HETATM    3  C17 UNL     1      61.534  77.836  81.568  1.00  0.00     0.007 C
ENDROOT
BRANCH   3   4
HETATM    4  C18 UNL     1      60.230  77.333  81.302  1.00  0.00     0.001 C
HETATM    5  C19 UNL     1      59.493  77.340  80.293  1.00  0.00     0.007 C
BRANCH   5   6
HETATM    6  C20 UNL     1      59.668  77.877  78.949  1.00  0.00    -0.056 C
HETATM    7  C21 UNL     1      59.019  79.113  78.501  1.00  0.00     0.048 C
HETATM    8  C22 UNL     1      60.433  77.158  78.142  1.00  0.00     0.089 C
BRANCH   8   9
HETATM    9  C23 UNL     1      60.789  77.417  76.795  1.00  0.00     0.283 C
HETATM   10  O3  UNL     1      60.013  77.561  75.848  1.00  0.00    -0.260 OA
BRANCH   9  11
HETATM   11  O4  UNL     1      62.173  77.532  76.437  1.00  0.00    -0.309 OA
BRANCH  11  12
HETATM   12  C24 UNL     1      63.186  77.423  77.410  1.00  0.00     0.177 C
HETATM   13  C25 UNL     1      63.688  78.825  77.737  1.00  0.00     0.151 C
HETATM   14  C26 UNL     1      65.157  78.838  77.423  1.00  0.00     0.067 C
HETATM   15  C27 UNL     1      65.541  77.371  77.517  1.00  0.00     0.137 C
HETATM   16  C28 UNL     1      64.362  76.713  76.822  1.00  0.00     0.147 C
BRANCH  13  17
HETATM   17  O5  UNL     1      63.509  79.082  79.100  1.00  0.00    -0.393 OA
ATOM     18  H5  UNL     1      63.230  79.982  79.221  1.00  0.00     0.210 HD
ENDBRANCH  13  17
BRANCH  15  19
HETATM   19  O6  UNL     1      65.623  77.038  78.852  1.00  0.00    -0.394 OA
ATOM     20  H6  UNL     1      65.113  77.671  79.344  1.00  0.00     0.210 HD
ENDBRANCH  15  19
BRANCH  16  21
HETATM   21  C29 UNL     1      64.355  75.253  77.013  1.00  0.00     0.182 C
HETATM   22  O7  UNL     1      63.372  74.531  76.812  1.00  0.00    -0.648 OA
HETATM   23  O8  UNL     1      65.527  74.654  77.445  1.00  0.00    -0.648 OA
ENDBRANCH  16  21
ENDBRANCH  11  12
ENDBRANCH   9  11
ENDBRANCH   8   9
ENDBRANCH   5   6
ENDBRANCH   3   4
BRANCH   2  24
HETATM   24  C3  UNL     1      63.486  78.156  82.953  1.00  0.00     0.004 C
HETATM   25  C4  UNL     1      63.794  79.428  82.799  1.00  0.00    -0.008 C
BRANCH  25  26
HETATM   26  C5  UNL     1      65.137  79.971  82.993  1.00  0.00     0.049 C
HETATM   27  C6  UNL     1      65.908  80.136  81.725  1.00  0.00     0.141 C
HETATM   28  O1  UNL     1      65.767  79.448  80.741  1.00  0.00    -0.297 OA
HETATM   29  C7  UNL     1      66.853  81.272  81.898  1.00  0.00     0.088 C
HETATM   30  C8  UNL     1      66.641  81.720  83.358  1.00  0.00     0.036 C
HETATM   31  C9  UNL     1      67.602  80.893  84.158  1.00  0.00     0.059 C
HETATM   32  C14 UNL     1      65.202  81.367  83.522  1.00  0.00    -0.022 C
HETATM   33  C10 UNL     1      69.007  81.238  83.634  1.00  0.00     0.046 C
HETATM   34  C11 UNL     1      67.404  79.431  83.895  1.00  0.00     0.043 C
HETATM   35  C12 UNL     1      65.974  78.999  83.808  1.00  0.00     0.005 C
HETATM   36  C13 UNL     1      65.447  78.683  85.155  1.00  0.00     0.011 C
HETATM   37  C15 UNL     1      64.614  81.595  84.855  1.00  0.00     0.017 C
HETATM   38  C16 UNL     1      64.431  82.263  82.557  1.00  0.00     0.017 C
BRANCH  31  39
HETATM   39  O2  UNL     1      67.619  81.178  85.505  1.00  0.00    -0.390 OA
ATOM     40  H2  UNL     1      67.898  80.458  86.058  1.00  0.00     0.210 HD
ENDBRANCH  31  39
ENDBRANCH  25  26
ENDBRANCH   2  24
TORSDOF 11
ENDMDL