MODEL 2
REMARK VINA RESULT: -7.875154710      2.408      3.660
REMARK  12 active torsions:
REMARK  status: ('A' for Active; 'I' for Inactive)
REMARK    1  A    between atoms: C2_2  and  C3_3
REMARK    2  A    between atoms: C2_2  and  O5_38
REMARK    3  A    between atoms: C3_3  and  C4_4
REMARK    4  A    between atoms: C4_4  and  N1_5
REMARK    5  A    between atoms: C4_4  and  C5_9
REMARK    6  A    between atoms: C5_9  and  O2_11
REMARK    7  A    between atoms: O2_11  and  C6_12
REMARK    8  A    between atoms: C9_15  and  O3_16
REMARK    9  A    between atoms: C23_31  and  O4_32
REMARK   10  A    between atoms: O5_38  and  C28_39
REMARK   11  A    between atoms: C28_39  and  C29_40
REMARK   12  A    between atoms: C29_40  and  O6_41
ROOT
HETATM    1  C6  UNL     1      62.943  76.962  78.099  1.00  0.00     0.139 C
HETATM    2  C7  UNL     1      62.298  78.259  77.606  1.00  0.00     0.036 C
HETATM    3  C8  UNL     1      61.445  78.610  78.834  1.00  0.00     0.041 C
HETATM    4  C9  UNL     1      62.192  78.065  80.020  1.00  0.00     0.068 C
HETATM    5  C10 UNL     1      63.414  77.415  79.486  1.00  0.00     0.050 C
HETATM    6  C11 UNL     1      64.626  78.256  79.392  1.00  0.00     0.010 C
HETATM    7  C12 UNL     1      64.774  79.306  80.450  1.00  0.00     0.006 C
HETATM    8  C13 UNL     1      63.470  80.062  80.532  1.00  0.00    -0.003 C
HETATM    9  C14 UNL     1      62.455  79.089  81.084  1.00  0.00     0.025 C
HETATM   10  C15 UNL     1      61.237  79.846  81.460  1.00  0.00     0.009 C
HETATM   11  C16 UNL     1      61.564  80.716  82.651  1.00  0.00     0.011 C
HETATM   12  C17 UNL     1      62.850  81.439  82.558  1.00  0.00    -0.029 C
HETATM   13  C18 UNL     1      63.853  81.029  83.623  1.00  0.00     0.016 C
HETATM   14  C19 UNL     1      63.532  81.361  81.217  1.00  0.00     0.003 C
HETATM   15  C20 UNL     1      62.852  82.458  80.386  1.00  0.00     0.040 C
HETATM   16  C21 UNL     1      62.035  83.232  81.361  1.00  0.00    -0.072 C
HETATM   17  C22 UNL     1      60.988  84.007  81.181  1.00  0.00     0.008 C
HETATM   18  C23 UNL     1      60.346  84.673  82.336  1.00  0.00     0.141 C
HETATM   19  C24 UNL     1      61.211  84.732  83.551  1.00  0.00     0.037 C
HETATM   20  C25 UNL     1      61.885  83.385  83.852  1.00  0.00     0.017 C
HETATM   21  C26 UNL     1      62.666  82.946  82.684  1.00  0.00    -0.013 C
HETATM   22  C27 UNL     1      64.014  83.622  82.698  1.00  0.00     0.021 C
ENDROOT
BRANCH   1  23
HETATM   23  O2  UNL     1      63.984  76.532  77.284  1.00  0.00    -0.314 OA
BRANCH  23  24
HETATM   24  C5  UNL     1      63.792  75.376  76.518  1.00  0.00     0.290 C
HETATM   25  O1  UNL     1      62.771  74.700  76.694  1.00  0.00    -0.263 OA
BRANCH  24  26
HETATM   26  C4  UNL     1      64.778  74.928  75.495  1.00  0.00     0.284 C
BRANCH  26  27
HETATM   27  C3  UNL     1      64.388  73.552  75.068  1.00  0.00     0.074 C
BRANCH  27  28
HETATM   28  C2  UNL     1      64.150  73.354  73.614  1.00  0.00     0.119 C
HETATM   29  C1  UNL     1      62.719  73.573  73.240  1.00  0.00     0.039 C
BRANCH  28  30
HETATM   30  O5  UNL     1      64.978  74.281  72.943  1.00  0.00    -0.384 OA
BRANCH  30  31
HETATM   31  C28 UNL     1      64.348  74.788  71.837  1.00  0.00     0.194 C
BRANCH  31  32
HETATM   32  C29 UNL     1      65.294  75.273  70.778  1.00  0.00     0.190 C
BRANCH  32  33
HETATM   33  O6  UNL     1      66.483  74.530  70.914  1.00  0.00    -0.399 OA
ATOM     34  H6  UNL     1      67.205  75.130  70.768  1.00  0.00     0.209 HD
ENDBRANCH  32  33
ENDBRANCH  31  32
ENDBRANCH  30  31
ENDBRANCH  28  30
ENDBRANCH  27  28
ENDBRANCH  26  27
BRANCH  26  35
HETATM   35  N1  UNL     1      66.084  74.960  76.105  1.00  0.00    -0.066 N
ATOM     36  H13 UNL     1      66.807  75.162  75.415  1.00  0.00     0.275 HD
ATOM     37  H12 UNL     1      66.193  75.782  76.699  1.00  0.00     0.275 HD
ATOM     38  H11 UNL     1      66.291  74.104  76.618  1.00  0.00     0.275 HD
ENDBRANCH  26  35
ENDBRANCH  24  26
ENDBRANCH  23  24
ENDBRANCH   1  23
BRANCH   4  39
HETATM   39  O3  UNL     1      61.383  77.064  80.599  1.00  0.00    -0.389 OA
ATOM     40  H3  UNL     1      61.512  77.107  81.539  1.00  0.00     0.210 HD
ENDBRANCH   4  39
BRANCH  18  41
HETATM   41  O4  UNL     1      59.141  83.998  82.637  1.00  0.00    -0.392 OA
ATOM     42  H4  UNL     1      58.806  84.324  83.464  1.00  0.00     0.210 HD
ENDBRANCH  18  41
TORSDOF 12
ENDMDL