MODEL 2
REMARK VINA RESULT: -7.434040861      2.834      5.564
REMARK  11 active torsions:
REMARK  status: ('A' for Active; 'I' for Inactive)
REMARK    1  A    between atoms: C2_2  and  C4_4
REMARK    2  A    between atoms: C7_9  and  O1_10
REMARK    3  A    between atoms: C13_17  and  O2_18
REMARK    4  A    between atoms: C14_20  and  C15_21
REMARK    5  A    between atoms: C19_25  and  O3_26
REMARK    6  A    between atoms: C23_31  and  O4_32
REMARK    7  A    between atoms: O4_32  and  C24_33
REMARK    8  A    between atoms: C24_33  and  C25_35
REMARK    9  A    between atoms: C25_35  and  C26_36
REMARK   10  A    between atoms: C26_36  and  C27_37
REMARK   11  A    between atoms: C27_37  and  C28_38
ROOT
HETATM    1  C4  UNL     1      63.461  76.786  77.918  1.00  0.00     0.016 C
HETATM    2  N1  UNL     1      64.318  77.334  78.652  1.00  0.00    -0.393 N
ATOM      3  H1  UNL     1      65.302  77.228  78.405  1.00  0.00     0.159 HD
HETATM    4  C5  UNL     1      63.998  78.090  79.799  1.00  0.00     0.127 C
HETATM    5  C6  UNL     1      62.747  78.904  79.419  1.00  0.00     0.039 C
HETATM    6  C7  UNL     1      62.527  79.899  80.495  1.00  0.00     0.125 C
HETATM    7  C8  UNL     1      61.602  79.472  81.602  1.00  0.00     0.042 C
HETATM    8  C9  UNL     1      60.403  78.783  81.115  1.00  0.00    -0.031 C
HETATM    9  C10 UNL     1      59.695  79.680  80.092  1.00  0.00     0.016 C
HETATM   10  C11 UNL     1      60.977  77.541  80.396  1.00  0.00     0.004 C
HETATM   11  C12 UNL     1      59.789  76.676  80.333  1.00  0.00     0.038 C
HETATM   12  C13 UNL     1      59.394  76.682  81.826  1.00  0.00     0.124 C
HETATM   13  C14 UNL     1      59.461  78.196  82.059  1.00  0.00     0.031 C
HETATM   14  C22 UNL     1      61.601  77.989  79.124  1.00  0.00     0.034 C
HETATM   15  C23 UNL     1      62.028  76.889  78.215  1.00  0.00     0.182 C
ENDROOT
BRANCH  13  16
HETATM   16  C15 UNL     1      59.429  78.577  83.487  1.00  0.00    -0.037 C
HETATM   17  C16 UNL     1      60.533  78.197  84.365  1.00  0.00     0.015 C
HETATM   18  C17 UNL     1      59.088  80.039  83.687  1.00  0.00     0.012 C
HETATM   19  C18 UNL     1      57.613  80.314  83.513  1.00  0.00     0.032 C
HETATM   20  C19 UNL     1      56.904  79.870  84.762  1.00  0.00     0.118 C
HETATM   21  C20 UNL     1      57.609  78.592  85.229  1.00  0.00     0.032 C
HETATM   22  C21 UNL     1      58.173  77.852  84.034  1.00  0.00     0.012 C
BRANCH  20  23
HETATM   23  O3  UNL     1      57.007  80.858  85.766  1.00  0.00    -0.396 OA
ATOM     24  H3  UNL     1      57.232  80.462  86.600  1.00  0.00     0.210 HD
ENDBRANCH  20  23
ENDBRANCH  13  16
BRANCH  12  25
HETATM   25  O2  UNL     1      60.363  75.979  82.477  1.00  0.00    -0.395 OA
ATOM     26  H2  UNL     1      59.912  75.435  83.112  1.00  0.00     0.210 HD
ENDBRANCH  12  25
BRANCH   6  27
HETATM   27  O1  UNL     1      63.763  80.187  81.123  1.00  0.00    -0.395 OA
ATOM     28  H1  UNL     1      63.597  80.539  81.990  1.00  0.00     0.210 HD
ENDBRANCH   6  27
BRANCH  15  29
HETATM   29  O4  UNL     1      61.213  76.758  77.068  1.00  0.00    -0.310 OA
BRANCH  29  30
HETATM   30  C24 UNL     1      60.497  77.723  76.440  1.00  0.00     0.259 C
HETATM   31  O5  UNL     1      61.044  78.385  75.554  1.00  0.00    -0.265 OA
BRANCH  30  32
HETATM   32  C25 UNL     1      59.069  77.983  76.814  1.00  0.00     0.111 C
BRANCH  32  33
HETATM   33  C26 UNL     1      58.276  78.571  75.701  1.00  0.00     0.020 C
BRANCH  33  34
HETATM   34  C27 UNL     1      57.460  77.578  74.946  1.00  0.00     0.113 C
BRANCH  34  35
HETATM   35  C28 UNL     1      57.967  77.214  73.623  1.00  0.00     0.172 C
HETATM   36  O6  UNL     1      59.020  77.661  73.130  1.00  0.00    -0.648 OA
HETATM   37  O7  UNL     1      57.230  76.315  72.864  1.00  0.00    -0.648 OA
ENDBRANCH  34  35
ENDBRANCH  33  34
ENDBRANCH  32  33
ENDBRANCH  30  32
ENDBRANCH  29  30
ENDBRANCH  15  29
BRANCH   1  38
HETATM   38  C2  UNL     1      64.008  76.026  76.741  1.00  0.00     0.025 C
HETATM   39  C1  UNL     1      63.432  74.601  76.702  1.00  0.00     0.016 C
HETATM   40  C3  UNL     1      65.505  75.833  76.852  1.00  0.00     0.016 C
ENDBRANCH   1  38
TORSDOF 11
ENDMDL