MODEL 5
REMARK VINA RESULT: -7.977991614      2.688     11.153
REMARK  11 active torsions:
REMARK  status: ('A' for Active; 'I' for Inactive)
REMARK    1  A    between atoms: O1_2  and  C2_3
REMARK    2  A    between atoms: C5_6  and  C6_7
REMARK    3  A    between atoms: C6_7  and  C7_8
REMARK    4  A    between atoms: C7_8  and  C8_10
REMARK    5  A    between atoms: C9_11  and  C10_12
REMARK    6  A    between atoms: C12_14  and  O3_15
REMARK    7  A    between atoms: C14_18  and  C16_20
REMARK    8  A    between atoms: C17_21  and  C18_22
REMARK    9  A    between atoms: C19_23  and  O4_24
REMARK   10  A    between atoms: C19_23  and  C20_26
REMARK   11  A    between atoms: C26_35  and  O8_36
ROOT
HETATM    1  C8  UNL     1      59.414  78.452  77.292  1.00  0.00     0.046 C
HETATM    2  C9  UNL     1      58.418  79.068  76.687  1.00  0.00    -0.018 C
ENDROOT
BRANCH   2   3
HETATM    3  C10 UNL     1      58.333  79.046  75.193  1.00  0.00     0.015 C
HETATM    4  C11 UNL     1      58.490  77.603  74.771  1.00  0.00     0.040 C
HETATM    5  C12 UNL     1      58.313  77.379  73.308  1.00  0.00     0.119 C
HETATM    6  C13 UNL     1      57.348  78.312  72.644  1.00  0.00     0.045 C
HETATM    7  C14 UNL     1      56.385  78.951  73.591  1.00  0.00    -0.020 C
HETATM    8  C15 UNL     1      55.384  77.906  74.035  1.00  0.00     0.020 C
HETATM    9  C21 UNL     1      57.045  79.664  74.721  1.00  0.00     0.001 C
HETATM   10  C22 UNL     1      56.072  79.873  75.879  1.00  0.00     0.011 C
BRANCH   5  11
HETATM   11  O3  UNL     1      57.974  76.023  73.111  1.00  0.00    -0.396 OA
ATOM     12  H3  UNL     1      57.895  75.613  73.964  1.00  0.00     0.210 HD
ENDBRANCH   5  11
BRANCH   7  13
HETATM   13  C16 UNL     1      55.611  79.982  72.812  1.00  0.00    -0.017 C
HETATM   14  C17 UNL     1      56.279  80.873  72.091  1.00  0.00    -0.000 C
BRANCH  14  15
HETATM   15  C18 UNL     1      55.573  81.884  71.324  1.00  0.00     0.043 C
HETATM   16  C19 UNL     1      55.537  81.825  70.008  1.00  0.00     0.142 C
BRANCH  16  17
HETATM   17  O4  UNL     1      56.178  80.792  69.355  1.00  0.00    -0.355 OA
ATOM     18  H4  UNL     1      55.998  79.893  69.608  1.00  0.00     0.218 HD
ENDBRANCH  16  17
BRANCH  16  19
HETATM   19  C20 UNL     1      54.838  82.827  69.251  1.00  0.00     0.233 C
HETATM   20  O5  UNL     1      55.417  83.890  68.920  1.00  0.00    -0.642 OA
HETATM   21  O6  UNL     1      53.525  82.639  68.878  1.00  0.00    -0.642 OA
ENDBRANCH  16  19
ENDBRANCH  14  15
ENDBRANCH   7  13
ENDBRANCH   2   3
BRANCH   1  22
HETATM   22  C7  UNL     1      59.492  78.479  78.735  1.00  0.00     0.151 C
HETATM   23  O2  UNL     1      58.868  79.360  79.361  1.00  0.00    -0.293 OA
BRANCH  22  24
HETATM   24  C6  UNL     1      60.290  77.489  79.454  1.00  0.00     0.114 C
BRANCH  24  25
HETATM   25  C5  UNL     1      61.183  78.088  80.522  1.00  0.00     0.130 C
HETATM   26  C4  UNL     1      60.633  77.868  81.916  1.00  0.00     0.035 C
HETATM   27  C3  UNL     1      61.488  77.011  82.774  1.00  0.00     0.034 C
HETATM   28  C2  UNL     1      62.314  77.728  83.788  1.00  0.00     0.120 C
HETATM   29  C28 UNL     1      63.080  78.896  83.281  1.00  0.00     0.034 C
HETATM   30  C27 UNL     1      64.125  78.484  82.248  1.00  0.00     0.037 C
HETATM   31  C26 UNL     1      63.895  79.198  80.933  1.00  0.00     0.152 C
HETATM   32  C23 UNL     1      63.429  78.157  79.935  1.00  0.00     0.087 A
HETATM   33  O7  UNL     1      62.400  77.411  80.444  1.00  0.00    -0.372 OA
HETATM   34  C24 UNL     1      63.790  78.233  78.523  1.00  0.00     0.044 A
HETATM   35  C25 UNL     1      64.574  77.300  79.376  1.00  0.00     0.044 A
BRANCH  28  36
HETATM   36  O1  UNL     1      63.228  76.819  84.320  1.00  0.00    -0.391 OA
HETATM   37  C1  UNL     1      63.716  77.231  85.555  1.00  0.00     0.202 C
ENDBRANCH  28  36
BRANCH  31  38
HETATM   38  O8  UNL     1      65.052  79.771  80.436  1.00  0.00    -0.393 OA
ATOM     39  H8  UNL     1      65.767  79.165  80.593  1.00  0.00     0.210 HD
ENDBRANCH  31  38
ENDBRANCH  24  25
ENDBRANCH  22  24
ENDBRANCH   1  22
TORSDOF 11
ENDMDL