MODEL 5
REMARK VINA RESULT: -6.331700434      1.677      2.068
REMARK  9 active torsions:
REMARK  status: ('A' for Active; 'I' for Inactive)
REMARK    1  A    between atoms: C2_2  and  C3_3
REMARK    2  A    between atoms: C5_6  and  C6_7
REMARK    3  A    between atoms: C6_7  and  C7_8
REMARK    4  A    between atoms: C7_8  and  O2_9
REMARK    5  A    between atoms: O2_9  and  C8_10
REMARK    6  A    between atoms: C13_15  and  O3_16
REMARK    7  A    between atoms: C16_20  and  O4_21
REMARK    8  A    between atoms: C17_23  and  O5_24
REMARK    9  A    between atoms: C22_30  and  C23_31
ROOT
HETATM    1  C3  UNL     1      61.190  78.233  82.063  1.00  0.00     0.116 C
HETATM    2  O1  UNL     1      62.263  78.086  82.919  1.00  0.00    -0.372 OA
HETATM    3  C4  UNL     1      62.781  79.213  83.480  1.00  0.00     0.183 C
HETATM    4  C5  UNL     1      61.803  79.808  84.486  1.00  0.00     0.026 C
HETATM    5  C10 UNL     1      62.381  81.076  85.053  1.00  0.00    -0.009 C
HETATM    6  C11 UNL     1      61.634  81.504  86.336  1.00  0.00     0.018 C
HETATM    7  C12 UNL     1      63.815  81.065  85.427  1.00  0.00     0.018 C
HETATM    8  C13 UNL     1      62.207  82.279  84.147  1.00  0.00     0.127 C
HETATM    9  C14 UNL     1      60.756  82.545  84.010  1.00  0.00     0.035 C
HETATM   10  C15 UNL     1      59.891  81.368  83.787  1.00  0.00     0.044 C
HETATM   11  C16 UNL     1      60.523  80.027  83.707  1.00  0.00     0.102 C
HETATM   12  C17 UNL     1      60.472  79.516  82.281  1.00  0.00     0.124 C
HETATM   13  C18 UNL     1      60.614  80.554  81.224  1.00  0.00     0.045 C
HETATM   14  C19 UNL     1      61.608  80.227  80.110  1.00  0.00     0.009 C
HETATM   15  C20 UNL     1      61.254  78.856  79.617  1.00  0.00    -0.001 C
HETATM   16  C21 UNL     1      61.784  78.541  78.287  1.00  0.00     0.027 C
HETATM   17  C22 UNL     1      61.092  77.394  77.594  1.00  0.00     0.162 C
HETATM   18  C24 UNL     1      62.432  76.876  77.228  1.00  0.00     0.150 C
HETATM   19  O8  UNL     1      62.812  76.016  76.467  1.00  0.00    -0.296 OA
HETATM   20  C25 UNL     1      63.063  77.837  78.166  1.00  0.00     0.023 C
HETATM   21  C26 UNL     1      64.154  78.607  77.414  1.00  0.00     0.024 C
HETATM   22  C27 UNL     1      63.566  77.140  79.380  1.00  0.00     0.018 C
HETATM   23  C28 UNL     1      63.196  77.768  80.668  1.00  0.00     0.009 C
HETATM   24  C29 UNL     1      61.661  77.915  80.701  1.00  0.00     0.032 C
ENDROOT
BRANCH   4  25
HETATM   25  C6  UNL     1      61.627  78.851  85.624  1.00  0.00     0.042 C
BRANCH  25  26
HETATM   26  C7  UNL     1      62.719  77.980  86.065  1.00  0.00     0.168 C
BRANCH  26  27
HETATM   27  O2  UNL     1      62.455  77.703  87.449  1.00  0.00    -0.391 OA
BRANCH  27  28
HETATM   28  C8  UNL     1      63.620  77.776  88.171  1.00  0.00     0.163 C
HETATM   29  C9  UNL     1      64.761  77.934  87.205  1.00  0.00     0.033 C
ENDBRANCH  27  28
ENDBRANCH  26  27
ENDBRANCH  25  26
ENDBRANCH   4  25
BRANCH  11  30
HETATM   30  O4  UNL     1      59.590  79.186  84.408  1.00  0.00    -0.386 OA
ATOM     31  H4  UNL     1      59.280  78.610  83.720  1.00  0.00     0.210 HD
ENDBRANCH  11  30
BRANCH   8  32
HETATM   32  O3  UNL     1      62.849  83.345  84.745  1.00  0.00    -0.395 OA
ATOM     33  H3  UNL     1      62.191  84.002  84.941  1.00  0.00     0.210 HD
ENDBRANCH   8  32
BRANCH  12  34
HETATM   34  O5  UNL     1      59.080  79.153  82.118  1.00  0.00    -0.383 OA
ATOM     35  H5  UNL     1      59.108  78.208  82.032  1.00  0.00     0.210 HD
ENDBRANCH  12  34
BRANCH   1  36
HETATM   36  C2  UNL     1      60.242  77.104  82.434  1.00  0.00     0.004 C
HETATM   37  C1  UNL     1      60.593  76.145  83.277  1.00  0.00     0.010 C
ENDBRANCH   1  36
BRANCH  17  38
HETATM   38  C23 UNL     1      60.274  77.737  76.427  1.00  0.00     0.184 C
HETATM   39  O6  UNL     1      59.015  77.638  76.449  1.00  0.00    -0.647 OA
HETATM   40  O7  UNL     1      60.879  78.187  75.254  1.00  0.00    -0.647 OA
ENDBRANCH  17  38
TORSDOF 9
ENDMDL