MODEL 4
REMARK VINA RESULT: -7.779849167      2.496      4.114
REMARK  12 active torsions:
REMARK  status: ('A' for Active; 'I' for Inactive)
REMARK    1  A    between atoms: C2_2  and  C3_3
REMARK    2  A    between atoms: C2_2  and  C26_31
REMARK    3  A    between atoms: C3_3  and  C4_4
REMARK    4  A    between atoms: C4_4  and  O1_5
REMARK    5  A    between atoms: C4_4  and  C5_7
REMARK    6  A    between atoms: C5_7  and  C6_9
REMARK    7  A    between atoms: C26_31  and  O5_32
REMARK    8  A    between atoms: C26_31  and  C27_34
REMARK    9  A    between atoms: C27_34  and  O6_35
REMARK   10  A    between atoms: C27_34  and  C28_37
REMARK   11  A    between atoms: C28_37  and  C30_39
REMARK   12  A    between atoms: C30_39  and  O7_40
ROOT
HETATM    1  C6  UNL     1      63.756  77.742  78.881  1.00  0.00     0.067 C
HETATM    2  C7  UNL     1      65.133  78.434  78.875  1.00  0.00     0.013 C
HETATM    3  C8  UNL     1      65.286  78.450  80.422  1.00  0.00     0.007 C
HETATM    4  C9  UNL     1      63.999  79.123  80.767  1.00  0.00     0.003 C
HETATM    5  C10 UNL     1      62.945  78.596  79.832  1.00  0.00    -0.029 C
HETATM    6  C11 UNL     1      62.391  79.757  79.001  1.00  0.00     0.016 C
HETATM    7  C12 UNL     1      61.864  77.780  80.437  1.00  0.00     0.011 C
HETATM    8  C13 UNL     1      62.103  77.465  81.933  1.00  0.00     0.012 C
HETATM    9  C14 UNL     1      62.247  78.874  82.489  1.00  0.00    -0.020 A
HETATM   10  C15 UNL     1      61.062  79.526  82.495  1.00  0.00     0.026 A
HETATM   11  C16 UNL     1      61.893  79.466  83.695  1.00  0.00     0.017 A
HETATM   12  C17 UNL     1      61.119  80.310  84.591  1.00  0.00     0.184 C
HETATM   13  O3  UNL     1      60.025  79.518  85.019  1.00  0.00    -0.355 OA
HETATM   14  C18 UNL     1      60.363  78.318  85.543  1.00  0.00     0.157 C
HETATM   15  C19 UNL     1      59.096  77.464  85.590  1.00  0.00     0.078 C
HETATM   16  C20 UNL     1      60.835  78.410  86.999  1.00  0.00     0.078 C
HETATM   17  O4  UNL     1      61.287  77.552  84.791  1.00  0.00    -0.350 OA
HETATM   18  C21 UNL     1      62.379  78.407  84.608  1.00  0.00     0.136 C
HETATM   19  C22 UNL     1      63.670  77.765  84.292  1.00  0.00     0.034 C
HETATM   20  C23 UNL     1      64.450  78.289  83.115  1.00  0.00     0.013 C
HETATM   21  C24 UNL     1      63.662  79.211  82.197  1.00  0.00    -0.031 C
HETATM   22  C25 UNL     1      63.899  80.630  82.749  1.00  0.00     0.016 C
ENDROOT
BRANCH   1  23
HETATM   23  C5  UNL     1      63.197  77.479  77.583  1.00  0.00     0.160 C
HETATM   24  O2  UNL     1      63.285  78.205  76.615  1.00  0.00    -0.295 OA
BRANCH  23  25
HETATM   25  C4  UNL     1      62.424  76.202  77.347  1.00  0.00     0.192 C
BRANCH  25  26
HETATM   26  C3  UNL     1      62.943  75.480  76.151  1.00  0.00     0.075 C
BRANCH  26  27
HETATM   27  C2  UNL     1      64.267  74.826  76.349  1.00  0.00    -0.056 C
HETATM   28  C1  UNL     1      64.682  74.562  77.559  1.00  0.00     0.017 C
BRANCH  27  29
HETATM   29  C26 UNL     1      65.126  74.539  75.156  1.00  0.00     0.175 C
BRANCH  29  30
HETATM   30  O5  UNL     1      66.430  74.442  75.810  1.00  0.00    -0.389 OA
ATOM     31  H5  UNL     1      66.871  73.860  75.202  1.00  0.00     0.210 HD
ENDBRANCH  29  30
BRANCH  29  32
HETATM   32  C27 UNL     1      64.967  73.212  74.532  1.00  0.00     0.156 C
BRANCH  32  33
HETATM   33  O6  UNL     1      66.309  72.660  74.327  1.00  0.00    -0.392 OA
ATOM     34  H6  UNL     1      66.502  72.721  73.399  1.00  0.00     0.210 HD
ENDBRANCH  32  33
BRANCH  32  35
HETATM   35  C28 UNL     1      64.369  73.188  73.153  1.00  0.00     0.037 C
HETATM   36  C29 UNL     1      62.906  73.237  73.016  1.00  0.00     0.015 C
BRANCH  35  37
HETATM   37  C30 UNL     1      64.978  74.224  72.229  1.00  0.00     0.170 C
BRANCH  37  38
HETATM   38  O7  UNL     1      66.213  73.821  71.726  1.00  0.00    -0.400 OA
ATOM     39  H7  UNL     1      66.388  74.187  70.866  1.00  0.00     0.209 HD
ENDBRANCH  37  38
ENDBRANCH  35  37
ENDBRANCH  32  35
ENDBRANCH  29  32
ENDBRANCH  27  29
ENDBRANCH  26  27
ENDBRANCH  25  26
BRANCH  25  40
HETATM   40  O1  UNL     1      61.071  76.424  77.256  1.00  0.00    -0.388 OA
ATOM     41  H1  UNL     1      60.642  76.322  78.098  1.00  0.00     0.210 HD
ENDBRANCH  25  40
ENDBRANCH  23  25
ENDBRANCH   1  23
TORSDOF 12
ENDMDL