MODEL 4
REMARK VINA RESULT: -8.299576709      1.834      2.840
REMARK  8 active torsions:
REMARK  status: ('A' for Active; 'I' for Inactive)
REMARK    1  A    between atoms: N2_9  and  C8_10
REMARK    2  A    between atoms: C8_10  and  C9_11
REMARK    3  A    between atoms: C10_12  and  C11_13
REMARK       I    between atoms: C11_13  and  N3_15
REMARK    4  A    between atoms: N3_15  and  C12_17
REMARK    5  A    between atoms: C12_17  and  C13_18
REMARK    6  A    between atoms: N4_21  and  C15_22
REMARK    7  A    between atoms: C17_24  and  O2_25
REMARK    8  A    between atoms: C18_27  and  C19_28
ROOT
HETATM    1  C9  UNL     1      12.195  37.710  77.188  1.00  0.00     0.020 A
HETATM    2  C10 UNL     1      11.173  37.977  78.127  1.00  0.00     0.061 A
HETATM    3  C14 UNL     1      11.697  38.787  79.090  1.00  0.00     0.116 A
HETATM    4  N4  UNL     1      12.972  39.048  78.827  1.00  0.00    -0.319 N
HETATM    5  C20 UNL     1      13.277  38.395  77.671  1.00  0.00     0.026 A
HETATM    6  C21 UNL     1      14.618  38.516  77.100  1.00  0.00     0.070 C
ENDROOT
BRANCH   1   7
HETATM    7  C8  UNL     1      11.965  36.900  75.989  1.00  0.00     0.117 C
BRANCH   7   8
HETATM    8  N2  UNL     1      12.085  37.447  74.704  1.00  0.00    -0.267 N
HETATM    9  C6  UNL     1      13.253  37.209  73.917  1.00  0.00     0.054 A
HETATM   10  C5  UNL     1      13.438  37.731  72.651  1.00  0.00     0.018 A
HETATM   11  C7  UNL     1      14.251  36.417  74.499  1.00  0.00     0.037 A
HETATM   12  C4  UNL     1      14.583  37.499  71.931  1.00  0.00     0.057 A
HETATM   13  C23 UNL     1      12.382  38.569  72.043  1.00  0.00     0.223 A
HETATM   14  C3  UNL     1      15.556  36.720  72.516  1.00  0.00     0.034 A
HETATM   15  N1  UNL     1      14.720  38.057  70.637  1.00  0.00    -0.102 NA
HETATM   16  C2  UNL     1      15.400  36.184  73.777  1.00  0.00    -0.058 A
HETATM   17  C1  UNL     1      16.461  35.353  74.403  1.00  0.00     0.048 C
HETATM   18  O5  UNL     1      11.287  38.773  72.868  1.00  0.00    -0.299 OA
HETATM   19  C22 UNL     1      11.075  38.269  74.127  1.00  0.00     0.371 A
HETATM   20  O4  UNL     1      10.033  38.512  74.767  1.00  0.00    -0.238 OA
ENDBRANCH   7   8
ENDBRANCH   1   7
BRANCH   2  21
HETATM   21  C11 UNL     1       9.818  37.433  78.096  1.00  0.00     0.254 C
HETATM   22  O1  UNL     1       8.999  37.783  79.022  1.00  0.00    -0.268 OA
HETATM   23  N3  UNL     1       9.331  36.538  77.122  1.00  0.00    -0.356 N
ATOM     24  H3  UNL     1       9.946  36.219  76.374  1.00  0.00     0.162 HD
BRANCH  23  25
HETATM   25  C12 UNL     1       7.972  36.073  77.176  1.00  0.00     0.134 C
BRANCH  25  26
HETATM   26  C13 UNL     1       7.432  35.495  75.916  1.00  0.00     0.104 C
HETATM   27 BR1  UNL     1       8.853  35.019  74.687  1.00  0.00    -0.095 Br
ENDBRANCH  25  26
ENDBRANCH  23  25
ENDBRANCH   2  21
BRANCH   4  28
HETATM   28  C15 UNL     1      13.855  39.856  79.630  1.00  0.00     0.084 A
HETATM   29  C16 UNL     1      15.199  39.974  79.634  1.00  0.00     0.075 A
HETATM   30  C17 UNL     1      15.754  40.828  80.528  1.00  0.00     0.090 A
HETATM   31  C18 UNL     1      14.885  41.501  81.352  1.00  0.00     0.105 A
HETATM   32  S1  UNL     1      13.360  40.923  80.857  1.00  0.00    -0.064 SA
BRANCH  30  33
HETATM   33  O2  UNL     1      17.148  41.079  80.676  1.00  0.00    -0.359 OA
ATOM     34  H2  UNL     1      17.635  41.763  80.232  1.00  0.00     0.217 HD
ENDBRANCH  30  33
BRANCH  31  35
HETATM   35  C19 UNL     1      15.211  42.485  82.411  1.00  0.00     0.274 C
HETATM   36  N5  UNL     1      16.177  42.101  83.368  1.00  0.00    -0.057 NA
HETATM   37  O3  UNL     1      14.662  43.595  82.458  1.00  0.00    -0.270 OA
ENDBRANCH  31  35
ENDBRANCH   4  28
TORSDOF 8
ENDMDL