MODEL 3
REMARK VINA RESULT: -8.424951615      2.193      3.140
REMARK  9 active torsions:
REMARK  status: ('A' for Active; 'I' for Inactive)
REMARK    1  A    between atoms: C1_2  and  C2_3
REMARK       I    between atoms: C1_2  and  N2_18
REMARK    2  A    between atoms: C2_3  and  N1_4
REMARK    3  A    between atoms: C3_5  and  O2_6
REMARK    4  A    between atoms: C6_10  and  O3_11
REMARK    5  A    between atoms: N2_18  and  C12_20
REMARK    6  A    between atoms: C12_20  and  C13_21
REMARK    7  A    between atoms: C13_21  and  C14_22
REMARK    8  A    between atoms: C14_22  and  C15_23
REMARK    9  A    between atoms: N3_24  and  C16_26
ROOT
HETATM    1  C12 UNL     1      14.313  37.154  76.971  1.00  0.00     0.123 C
ENDROOT
BRANCH   1   2
HETATM    2  N2  UNL     1      14.472  38.555  77.249  1.00  0.00    -0.360 N
HETATM    3  C1  UNL     1      14.758  39.085  78.530  1.00  0.00     0.235 C
HETATM    4  O1  UNL     1      14.886  38.299  79.495  1.00  0.00    -0.272 OA
ATOM      5  H2  UNL     1      14.372  39.210  76.473  1.00  0.00     0.162 HD
BRANCH   3   6
HETATM    6  C2  UNL     1      14.916  40.532  78.789  1.00  0.00     0.236 C
BRANCH   6   7
HETATM    7  N1  UNL     1      14.396  40.911  80.083  1.00  0.00    -0.299 N
HETATM    8  C3  UNL     1      13.115  40.894  80.494  1.00  0.00     0.152 A
HETATM    9  C4  UNL     1      13.076  41.328  81.801  1.00  0.00     0.012 A
HETATM   10  C5  UNL     1      14.379  41.611  82.179  1.00  0.00     0.012 A
HETATM   11  C10 UNL     1      12.236  41.624  82.990  1.00  0.00     0.047 C
HETATM   12  C6  UNL     1      15.160  41.341  81.089  1.00  0.00     0.152 A
HETATM   13  C7  UNL     1      14.324  42.076  83.587  1.00  0.00     0.047 C
HETATM   14  C8  UNL     1      13.881  40.912  84.405  1.00  0.00    -0.021 C
HETATM   15  C11 UNL     1      12.991  42.850  83.541  1.00  0.00     0.026 C
HETATM   16  C9  UNL     1      12.611  40.642  84.037  1.00  0.00    -0.021 C
BRANCH   8  17
HETATM   17  O2  UNL     1      12.015  40.512  79.749  1.00  0.00    -0.345 OA
ATOM     18  H2  UNL     1      11.222  41.017  79.609  1.00  0.00     0.219 HD
ENDBRANCH   8  17
BRANCH  12  19
HETATM   19  O3  UNL     1      16.545  41.500  81.063  1.00  0.00    -0.345 OA
ATOM     20  H3  UNL     1      17.087  41.568  80.286  1.00  0.00     0.219 HD
ENDBRANCH  12  19
ENDBRANCH   6   7
ENDBRANCH   3   6
ENDBRANCH   1   2
BRANCH   1  21
HETATM   21  C13 UNL     1      12.897  36.684  76.922  1.00  0.00     0.025 C
BRANCH  21  22
HETATM   22  C14 UNL     1      11.862  37.754  76.896  1.00  0.00     0.046 C
BRANCH  22  23
HETATM   23  C15 UNL     1      11.003  37.744  78.150  1.00  0.00     0.061 C
HETATM   24  N3  UNL     1       9.677  37.541  77.914  1.00  0.00    -0.368 N
ATOM     25  H3  UNL     1       9.254  38.469  77.911  1.00  0.00     0.165 HD
BRANCH  24  26
HETATM   26  C16 UNL     1       8.747  36.751  77.703  1.00  0.00     0.055 A
HETATM   27  C17 UNL     1       8.294  36.467  76.423  1.00  0.00     0.022 A
HETATM   28  C18 UNL     1       7.253  35.608  76.163  1.00  0.00     0.151 A
HETATM   29  C24 UNL     1       8.796  36.968  75.125  1.00  0.00     0.072 C
HETATM   30  N4  UNL     1       6.648  35.017  77.217  1.00  0.00    -0.330 N
HETATM   31  O4  UNL     1       7.034  35.530  74.803  1.00  0.00    -0.335 OA
HETATM   32  C19 UNL     1       7.069  35.275  78.486  1.00  0.00     0.089 A
ATOM     33  H4  UNL     1       5.871  34.375  77.062  1.00  0.00     0.168 HD
HETATM   34  S1  UNL     1       6.542  34.713  80.011  1.00  0.00    -0.064 SA
HETATM   35  C22 UNL     1       8.091  36.113  78.800  1.00  0.00     0.027 A
HETATM   36  C20 UNL     1       7.637  35.561  81.006  1.00  0.00     0.054 A
HETATM   37 BR1  UNL     1       7.794  35.547  82.929  1.00  0.00    -0.043 Br
HETATM   38  C21 UNL     1       8.389  36.266  80.102  1.00  0.00     0.043 A
HETATM   39  C23 UNL     1       8.000  36.223  74.088  1.00  0.00     0.182 C
ENDBRANCH  24  26
ENDBRANCH  22  23
ENDBRANCH  21  22
ENDBRANCH   1  21
TORSDOF 9
ENDMDL