MODEL 5
REMARK VINA RESULT: -7.829206483      2.977      4.899
REMARK  7 active torsions:
REMARK  status: ('A' for Active; 'I' for Inactive)
REMARK    1  A    between atoms: C8_8  and  N1_9
REMARK       I    between atoms: N1_9  and  C9_11
REMARK    2  A    between atoms: C9_11  and  C10_13
REMARK    3  A    between atoms: C14_20  and  N3_21
REMARK    4  A    between atoms: N3_21  and  C15_23
REMARK    5  A    between atoms: C15_23  and  C16_24
REMARK    6  A    between atoms: C20_30  and  C21_31
REMARK       I    between atoms: C21_31  and  N4_33
REMARK    7  A    between atoms: N4_33  and  C23_35
ROOT
HETATM    1  C1  UNL     1      18.302  31.785  71.787  1.00  0.00     0.040 C
HETATM    2  C2  UNL     1      16.796  31.802  71.862  1.00  0.00     0.125 C
HETATM    3  C3  UNL     1      16.164  32.335  70.614  1.00  0.00     0.037 C
HETATM    4  C4  UNL     1      16.716  33.738  70.334  1.00  0.00     0.045 C
HETATM    5  C5  UNL     1      16.356  34.552  71.541  1.00  0.00    -0.009 A
HETATM    6  C6  UNL     1      16.207  33.948  72.771  1.00  0.00     0.078 A
HETATM    7  C7  UNL     1      15.875  34.713  73.861  1.00  0.00     0.066 A
HETATM    8  C8  UNL     1      15.684  36.114  73.726  1.00  0.00     0.038 A
HETATM    9  C19 UNL     1      15.833  36.694  72.515  1.00  0.00     0.047 A
HETATM   10  C20 UNL     1      16.173  35.902  71.415  1.00  0.00     0.043 A
HETATM   11  O5  UNL     1      16.384  32.567  72.956  1.00  0.00    -0.346 OA
ENDROOT
BRANCH   8  12
HETATM   12  N1  UNL     1      15.341  36.822  74.888  1.00  0.00    -0.321 N
HETATM   13  C9  UNL     1      14.055  37.029  75.398  1.00  0.00     0.280 C
HETATM   14  O1  UNL     1      13.020  36.584  74.847  1.00  0.00    -0.265 OA
ATOM     15  H1  UNL     1      16.112  37.231  75.417  1.00  0.00     0.169 HD
BRANCH  13  16
HETATM   16  C10 UNL     1      13.888  37.812  76.659  1.00  0.00     0.143 A
HETATM   17  N2  UNL     1      14.863  38.412  77.303  1.00  0.00    -0.349 N
HETATM   18  C11 UNL     1      14.608  39.068  78.394  1.00  0.00     0.023 A
ATOM     19  H2  UNL     1      15.818  38.362  76.948  1.00  0.00     0.166 HD
HETATM   20  C12 UNL     1      13.305  39.104  78.825  1.00  0.00     0.009 A
HETATM   21  C18 UNL     1      15.582  39.823  79.279  1.00  0.00     0.060 C
HETATM   22  S1  UNL     1      12.530  38.170  77.607  1.00  0.00    -0.069 SA
HETATM   23  C13 UNL     1      12.907  39.839  80.081  1.00  0.00     0.073 C
HETATM   24  C14 UNL     1      13.635  41.135  80.208  1.00  0.00     0.082 C
HETATM   25  C17 UNL     1      14.960  41.182  79.492  1.00  0.00     0.031 C
BRANCH  24  26
HETATM   26  N3  UNL     1      13.826  41.585  81.550  1.00  0.00    -0.408 N
ATOM     27  H3  UNL     1      13.198  41.301  82.302  1.00  0.00     0.154 HD
BRANCH  26  28
HETATM   28  C15 UNL     1      14.928  42.446  81.790  1.00  0.00     0.228 C
BRANCH  28  29
HETATM   29  C16 UNL     1      15.480  42.090  83.137  1.00  0.00     0.190 C
HETATM   30  O2  UNL     1      16.416  42.727  83.681  1.00  0.00    -0.647 OA
HETATM   31  O3  UNL     1      14.947  41.013  83.828  1.00  0.00    -0.647 OA
ENDBRANCH  28  29
ENDBRANCH  26  28
ENDBRANCH  24  26
ENDBRANCH  13  16
ENDBRANCH   8  12
BRANCH  10  32
HETATM   32  C21 UNL     1      16.342  36.496  70.084  1.00  0.00     0.254 C
HETATM   33  O4  UNL     1      17.525  36.647  69.680  1.00  0.00    -0.267 OA
HETATM   34  N4  UNL     1      15.237  36.886  69.279  1.00  0.00    -0.347 N
HETATM   35  C22 UNL     1      15.495  37.464  67.979  1.00  0.00     0.153 C
BRANCH  34  36
HETATM   36  C23 UNL     1      13.911  36.682  69.804  1.00  0.00     0.089 C
HETATM   37  C24 UNL     1      13.031  35.842  68.947  1.00  0.00     0.028 C
HETATM   38  C25 UNL     1      12.131  36.734  68.155  1.00  0.00     0.039 C
HETATM   39  C26 UNL     1      12.144  38.038  68.874  1.00  0.00     0.172 C
HETATM   40  F1  UNL     1      12.465  39.098  68.025  1.00  0.00    -0.249 F
HETATM   41  C27 UNL     1      13.145  37.964  69.977  1.00  0.00     0.062 C
ENDBRANCH  34  36
ENDBRANCH  10  32
TORSDOF 7
ENDMDL