MODEL 4
REMARK VINA RESULT: -6.899066778      3.332      5.285
REMARK  8 active torsions:
REMARK  status: ('A' for Active; 'I' for Inactive)
REMARK    1  A    between atoms: O1_2  and  C2_3
REMARK    2  A    between atoms: C3_4  and  O2_5
REMARK    3  A    between atoms: C5_7  and  C6_8
REMARK    4  A    between atoms: C10_13  and  O4_14
REMARK    5  A    between atoms: C14_18  and  N1_19
REMARK    6  A    between atoms: C17_26  and  N4_27
REMARK    7  A    between atoms: N4_27  and  C18_29
REMARK    8  A    between atoms: C21_32  and  O5_33
ROOT
HETATM    1  C2  UNL     1      10.910  38.132  77.955  1.00  0.00     0.137 A
HETATM    2  C3  UNL     1      12.210  38.365  78.335  1.00  0.00     0.118 A
HETATM    3  C5  UNL     1      13.229  38.097  77.451  1.00  0.00     0.053 A
HETATM    4  C8  UNL     1      12.946  37.607  76.200  1.00  0.00    -0.027 A
HETATM    5  C9  UNL     1      11.624  37.391  75.842  1.00  0.00     0.018 A
HETATM    6  C10 UNL     1      10.578  37.627  76.682  1.00  0.00     0.116 A
HETATM    7  C12 UNL     1      11.148  36.991  74.514  1.00  0.00    -0.011 A
HETATM    8  C13 UNL     1       9.937  37.554  74.261  1.00  0.00     0.045 A
HETATM    9  C14 UNL     1       9.217  37.071  73.174  1.00  0.00     0.076 A
HETATM   10  C16 UNL     1       9.734  36.043  72.389  1.00  0.00     0.170 A
HETATM   11  F1  UNL     1       8.986  35.614  71.353  1.00  0.00    -0.201 F
HETATM   12  C17 UNL     1      10.989  35.486  72.676  1.00  0.00     0.078 A
HETATM   13  C23 UNL     1      11.707  35.970  73.728  1.00  0.00    -0.013 A
HETATM   14  C24 UNL     1      13.162  35.626  73.652  1.00  0.00     0.022 C
HETATM   15  C25 UNL     1      13.541  35.663  72.141  1.00  0.00     0.015 C
HETATM   16  C26 UNL     1      14.002  36.836  74.069  1.00  0.00    -0.006 C
HETATM   17  C27 UNL     1      13.662  38.037  73.163  1.00  0.00     0.011 C
HETATM   18  C28 UNL     1      14.159  37.222  75.440  1.00  0.00     0.045 C
ENDROOT
BRANCH  12  19
HETATM   19  N4  UNL     1      11.401  34.274  72.034  1.00  0.00    -0.360 N
ATOM     20  H4  UNL     1      12.148  34.376  71.346  1.00  0.00     0.161 HD
BRANCH  19  21
HETATM   21  C18 UNL     1      10.919  32.945  72.217  1.00  0.00     0.284 C
HETATM   22  C19 UNL     1      10.397  32.636  73.597  1.00  0.00     0.057 C
HETATM   23  C20 UNL     1      11.382  31.778  74.382  1.00  0.00     0.037 C
HETATM   24  C21 UNL     1      11.647  30.457  73.726  1.00  0.00     0.144 C
HETATM   25  C22 UNL     1      11.603  30.659  72.209  1.00  0.00     0.266 C
HETATM   26  N5  UNL     1      12.039  32.023  71.983  1.00  0.00    -0.052 N
ATOM     27  H52 UNL     1      12.451  32.147  71.059  1.00  0.00     0.279 HD
ATOM     28  H51 UNL     1      12.857  32.263  72.543  1.00  0.00     0.279 HD
BRANCH  24  29
HETATM   29  O5  UNL     1      12.958  30.089  74.038  1.00  0.00    -0.394 OA
ATOM     30  H5  UNL     1      13.337  29.698  73.260  1.00  0.00     0.210 HD
ENDBRANCH  24  29
ENDBRANCH  19  21
ENDBRANCH  12  19
BRANCH   9  31
HETATM   31  N1  UNL     1       7.989  37.718  72.939  1.00  0.00    -0.330 N
HETATM   32  C15 UNL     1       7.776  38.631  72.105  1.00  0.00     0.201 C
HETATM   33  N2  UNL     1       6.438  39.151  72.026  1.00  0.00    -0.066 NA
HETATM   34  N3  UNL     1       8.784  39.169  71.290  1.00  0.00    -0.066 NA
ATOM     35  H1  UNL     1       7.194  37.415  73.502  1.00  0.00     0.168 HD
ENDBRANCH   9  31
BRANCH   6  36
HETATM   36  O4  UNL     1       9.252  37.403  76.405  1.00  0.00    -0.352 OA
HETATM   37  C11 UNL     1       8.586  36.203  76.854  1.00  0.00     0.210 C
ENDBRANCH   6  36
BRANCH   3  38
HETATM   38  C6  UNL     1      14.620  38.314  77.783  1.00  0.00     0.159 C
HETATM   39  C7  UNL     1      15.410  37.238  78.396  1.00  0.00     0.097 C
HETATM   40  O3  UNL     1      15.146  39.416  77.547  1.00  0.00    -0.293 OA
ENDBRANCH   3  38
BRANCH   1  41
HETATM   41  O1  UNL     1       9.926  38.409  78.859  1.00  0.00    -0.351 OA
HETATM   42  C1  UNL     1       9.488  37.632  79.928  1.00  0.00     0.210 C
ENDBRANCH   1  41
BRANCH   2  43
HETATM   43  O2  UNL     1      12.526  38.869  79.601  1.00  0.00    -0.352 OA
HETATM   44  C4  UNL     1      12.596  40.247  79.873  1.00  0.00     0.210 C
ENDBRANCH   2  43
TORSDOF 8
ENDMDL