MODEL 4
REMARK VINA RESULT: -8.681595628      6.192      9.568
REMARK  9 active torsions:
REMARK  status: ('A' for Active; 'I' for Inactive)
REMARK    1  A    between atoms: O1_2  and  C2_3
REMARK    2  A    between atoms: C4_5  and  C5_6
REMARK    3  A    between atoms: C5_6  and  C6_7
REMARK    4  A    between atoms: C6_7  and  N1_8
REMARK       I    between atoms: N1_8  and  C7_10
REMARK    5  A    between atoms: C7_10  and  C8_12
REMARK    6  A    between atoms: C12_18  and  N3_19
REMARK    7  A    between atoms: N3_19  and  C13_21
REMARK    8  A    between atoms: N5_30  and  C19_31
REMARK    9  A    between atoms: C30_44  and  O4_45
ROOT
HETATM    1  C8  UNL     1       7.391  35.550  78.450  1.00  0.00     0.101 A
HETATM    2  C9  UNL     1       8.087  35.971  79.557  1.00  0.00     0.037 A
HETATM    3  C10 UNL     1       9.124  36.867  79.447  1.00  0.00     0.008 A
HETATM    4  C11 UNL     1       9.831  37.308  80.537  1.00  0.00     0.103 A
HETATM    5  N2  UNL     1      10.843  38.185  80.445  1.00  0.00    -0.352 N
ATOM      6  H2  UNL     1      11.346  38.490  81.278  1.00  0.00     0.166 HD
HETATM    7  C12 UNL     1      11.177  38.653  79.232  1.00  0.00     0.103 A
HETATM    8  C17 UNL     1      10.514  38.260  78.066  1.00  0.00     0.079 A
HETATM    9  C18 UNL     1       9.483  37.362  78.177  1.00  0.00     0.057 A
HETATM   10  N5  UNL     1       8.795  36.947  77.069  1.00  0.00    -0.285 N
HETATM   11  C27 UNL     1       7.785  36.067  77.234  1.00  0.00     0.268 A
HETATM   12  O3  UNL     1       7.164  35.694  76.236  1.00  0.00    -0.267 OA
ENDROOT
BRANCH   1  13
HETATM   13  C7  UNL     1       6.283  34.600  78.533  1.00  0.00     0.257 C
HETATM   14  N1  UNL     1       4.996  34.974  78.097  1.00  0.00    -0.356 N
ATOM     15  H1  UNL     1       4.839  35.911  77.724  1.00  0.00     0.162 HD
HETATM   16  O2  UNL     1       6.456  33.445  78.988  1.00  0.00    -0.267 OA
BRANCH  14  17
HETATM   17  C6  UNL     1       3.900  34.040  78.174  1.00  0.00     0.127 C
BRANCH  17  18
HETATM   18  C5  UNL     1       2.610  34.732  78.546  1.00  0.00     0.058 C
BRANCH  18  19
HETATM   19  C4  UNL     1       2.906  35.871  79.439  1.00  0.00    -0.051 A
HETATM   20  C3  UNL     1       3.819  35.772  80.478  1.00  0.00     0.047 A
HETATM   21  C2  UNL     1       4.100  36.824  81.313  1.00  0.00     0.104 A
HETATM   22  C30 UNL     1       3.445  38.018  81.100  1.00  0.00     0.138 A
HETATM   23  C29 UNL     1       2.534  38.141  80.073  1.00  0.00     0.152 A
HETATM   24  C28 UNL     1       2.248  37.078  79.228  1.00  0.00     0.052 A
HETATM   25  F1  UNL     1       1.901  39.326  79.882  1.00  0.00    -0.203 F
BRANCH  21  26
HETATM   26  O1  UNL     1       5.013  36.667  82.327  1.00  0.00    -0.353 OA
HETATM   27  C1  UNL     1       5.808  35.536  82.511  1.00  0.00     0.210 C
ENDBRANCH  21  26
BRANCH  22  28
HETATM   28  O4  UNL     1       3.686  39.118  81.911  1.00  0.00    -0.355 OA
ATOM     29  H4  UNL     1       3.096  39.340  82.622  1.00  0.00     0.218 HD
ENDBRANCH  22  28
ENDBRANCH  18  19
ENDBRANCH  17  18
ENDBRANCH  14  17
ENDBRANCH   1  13
BRANCH  10  30
HETATM   30  C19 UNL     1       9.153  37.428  75.779  1.00  0.00    -0.002 C
HETATM   31  C20 UNL     1       9.312  38.914  75.623  1.00  0.00     0.053 C
HETATM   32  C21 UNL     1       9.039  39.298  74.174  1.00  0.00     0.006 C
HETATM   33  C22 UNL     1      10.324  39.664  73.482  1.00  0.00     0.000 C
HETATM   34  C23 UNL     1      11.200  38.487  73.144  1.00  0.00     0.000 C
HETATM   35  C24 UNL     1      12.084  38.158  74.298  1.00  0.00     0.000 C
HETATM   36  C25 UNL     1      11.620  37.100  75.223  1.00  0.00     0.006 C
HETATM   37  C26 UNL     1      10.234  36.623  75.132  1.00  0.00     0.053 C
ENDBRANCH  10  30
BRANCH   7  38
HETATM   38  N3  UNL     1      12.132  39.492  79.078  1.00  0.00    -0.370 N
ATOM     39  H3  UNL     1      12.121  40.054  78.228  1.00  0.00     0.161 HD
BRANCH  38  40
HETATM   40  C13 UNL     1      13.211  39.714  79.987  1.00  0.00     0.110 C
HETATM   41  C14 UNL     1      13.417  41.166  80.333  1.00  0.00     0.054 C
HETATM   42  C15 UNL     1      14.909  41.275  80.505  1.00  0.00     0.234 C
HETATM   43  N4  UNL     1      15.489  40.058  80.030  1.00  0.00    -0.073 N
HETATM   44  C16 UNL     1      14.505  39.390  79.237  1.00  0.00     0.257 C
ATOM     45  H42 UNL     1      16.367  40.205  79.533  1.00  0.00     0.277 HD
ATOM     46  H41 UNL     1      15.855  39.475  80.782  1.00  0.00     0.277 HD
ENDBRANCH  38  40
ENDBRANCH   7  38
TORSDOF 9
ENDMDL