MODEL 4
REMARK VINA RESULT: -9.164920175      1.235      1.794
REMARK  10 active torsions:
REMARK  status: ('A' for Active; 'I' for Inactive)
REMARK    1  A    between atoms: C1_1  and  C25_44
REMARK    2  A    between atoms: N1_2  and  N2_4
REMARK    3  A    between atoms: N2_4  and  C2_6
REMARK    4  A    between atoms: C3_9  and  N4_10
REMARK    5  A    between atoms: N4_10  and  C4_12
REMARK    6  A    between atoms: C4_12  and  C5_13
REMARK    7  A    between atoms: C10_18  and  C11_19
REMARK    8  A    between atoms: C11_19  and  C12_20
REMARK    9  A    between atoms: N8_34  and  C20_36
REMARK   10  A    between atoms: C20_36  and  C21_37
ROOT
HETATM    1  C2  UNL     1      13.821  37.670  77.478  1.00  0.00     0.260 A
HETATM    2  N3  UNL     1      12.566  37.228  77.676  1.00  0.00    -0.153 N
ATOM      3  H3  UNL     1      12.233  36.420  77.151  1.00  0.00     0.188 HD
HETATM    4  C3  UNL     1      11.748  37.826  78.545  1.00  0.00     0.684 A
HETATM    5  N7  UNL     1      12.233  38.905  79.226  1.00  0.00    -0.154 N
ATOM      6  H7  UNL     1      11.637  39.388  79.898  1.00  0.00     0.188 HD
HETATM    7  C19 UNL     1      13.483  39.335  79.018  1.00  0.00     0.245 A
HETATM    8  N8  UNL     1      13.970  40.341  79.632  1.00  0.00    -0.331 N
ATOM      9  H8  UNL     1      14.933  40.595  79.412  1.00  0.00     0.168 HD
HETATM   10  O1  UNL     1      14.265  38.702  78.138  1.00  0.00    -0.244 OA
ENDROOT
BRANCH   4  11
HETATM   11  N4  UNL     1      10.556  37.494  78.799  1.00  0.00    -0.222 N
ATOM     12  H4  UNL     1      10.132  36.862  78.120  1.00  0.00     0.178 HD
BRANCH  11  13
HETATM   13  C4  UNL     1       9.713  37.863  79.881  1.00  0.00     0.179 C
BRANCH  13  14
HETATM   14  C5  UNL     1       8.701  36.764  80.099  1.00  0.00    -0.011 A
HETATM   15  C6  UNL     1       8.026  36.220  79.012  1.00  0.00     0.011 A
HETATM   16  C7  UNL     1       7.100  35.220  79.205  1.00  0.00     0.002 A
HETATM   17  C8  UNL     1       6.823  34.739  80.467  1.00  0.00     0.016 A
HETATM   18  C9  UNL     1       7.503  35.290  81.530  1.00  0.00     0.017 A
HETATM   19  C10 UNL     1       7.471  35.036  82.909  1.00  0.00     0.042 A
HETATM   20  C18 UNL     1       8.433  36.292  81.358  1.00  0.00     0.068 A
HETATM   21  N5  UNL     1       8.344  35.853  83.521  1.00  0.00    -0.303 N
HETATM   22  N6  UNL     1       8.911  36.595  82.589  1.00  0.00    -0.299 N
ATOM     23  H5  UNL     1       8.535  35.893  84.522  1.00  0.00     0.186 HD
ATOM     24  H6  UNL     1       9.618  37.306  82.772  1.00  0.00     0.187 HD
BRANCH  19  25
HETATM   25  C11 UNL     1       6.590  34.019  83.522  1.00  0.00     0.098 C
BRANCH  25  26
HETATM   26  C12 UNL     1       5.488  34.725  84.264  1.00  0.00    -0.052 A
HETATM   27  C13 UNL     1       4.547  35.505  83.639  1.00  0.00     0.007 A
HETATM   28  C14 UNL     1       3.546  36.145  84.326  1.00  0.00     0.001 A
HETATM   29  C15 UNL     1       3.497  35.988  85.704  1.00  0.00     0.000 A
HETATM   30  C16 UNL     1       4.414  35.219  86.380  1.00  0.00     0.001 A
HETATM   31  C17 UNL     1       5.396  34.598  85.650  1.00  0.00     0.007 A
ENDBRANCH  25  26
ENDBRANCH  19  25
ENDBRANCH  13  14
ENDBRANCH  11  13
ENDBRANCH   4  11
BRANCH   1  32
HETATM   32  N2  UNL     1      14.573  37.054  76.623  1.00  0.00    -0.265 N
ATOM     33  H2  UNL     1      15.076  36.210  76.896  1.00  0.00     0.190 HD
BRANCH  32  34
HETATM   34  N1  UNL     1      14.690  37.548  75.341  1.00  0.00    -0.308 N
HETATM   35  C1  UNL     1      14.239  36.884  74.348  1.00  0.00     0.126 C
ATOM     36  H1  UNL     1      15.141  38.449  75.184  1.00  0.00     0.186 HD
BRANCH  35  37
HETATM   37  C25 UNL     1      13.591  35.585  74.606  1.00  0.00     0.021 A
HETATM   38  C26 UNL     1      14.199  34.368  74.808  1.00  0.00     0.021 A
HETATM   39  C27 UNL     1      13.406  33.314  75.017  1.00  0.00     0.008 A
HETATM   40  C28 UNL     1      12.056  33.524  75.013  1.00  0.00     0.050 A
HETATM   41  S1  UNL     1      11.931  35.195  74.718  1.00  0.00    -0.101 SA
ENDBRANCH  35  37
ENDBRANCH  32  34
ENDBRANCH   1  32
BRANCH   8  42
HETATM   42  C20 UNL     1      13.308  41.130  80.582  1.00  0.00     0.104 C
BRANCH  42  43
HETATM   43  C21 UNL     1      14.348  41.683  81.524  1.00  0.00    -0.004 A
HETATM   44  C22 UNL     1      14.245  42.022  82.842  1.00  0.00     0.031 A
HETATM   45  C23 UNL     1      15.484  42.483  83.258  1.00  0.00     0.088 A
HETATM   46  N9  UNL     1      16.311  42.415  82.196  1.00  0.00    -0.374 N
HETATM   47  C24 UNL     1      15.639  41.931  81.130  1.00  0.00     0.100 A
ATOM     48  H9  UNL     1      17.294  42.687  82.197  1.00  0.00     0.164 HD
ENDBRANCH  42  43
ENDBRANCH   8  42
TORSDOF 10
ENDMDL