MODEL 3
REMARK VINA RESULT: -7.475707161      1.622      1.923
REMARK  11 active torsions:
REMARK  status: ('A' for Active; 'I' for Inactive)
REMARK    1  A    between atoms: C2_2  and  O1_3
REMARK    2  A    between atoms: O1_3  and  C3_4
REMARK       I    between atoms: C3_4  and  N1_6
REMARK    3  A    between atoms: N1_6  and  C4_7
REMARK    4  A    between atoms: C4_7  and  C5_8
REMARK    5  A    between atoms: C5_8  and  C6_9
REMARK    6  A    between atoms: C6_9  and  C7_10
REMARK    7  A    between atoms: C7_10  and  N2_11
REMARK    8  A    between atoms: C7_10  and  S1_15
REMARK    9  A    between atoms: S1_15  and  C8_16
REMARK   10  A    between atoms: C10_20  and  N4_21
REMARK       I    between atoms: N4_21  and  C11_23
REMARK       I    between atoms: C11_23  and  N5_25
REMARK   11  A    between atoms: N5_25  and  C12_27
ROOT
HETATM    1  C8  UNL     1      11.175  38.057  79.509  1.00  0.00     0.062 A
HETATM    2  C9  UNL     1      11.092  37.789  80.690  1.00  0.00     0.116 A
HETATM    3  N3  UNL     1      10.062  37.414  81.428  1.00  0.00    -0.345 N
ATOM      4  H3  UNL     1      10.079  37.222  82.430  1.00  0.00     0.167 HD
HETATM    5  C10 UNL     1       8.901  37.323  80.559  1.00  0.00     0.153 A
HETATM    6  S3  UNL     1       9.467  37.765  79.030  1.00  0.00    -0.045 SA
ENDROOT
BRANCH   5   7
HETATM    7  N4  UNL     1       7.825  36.999  81.153  1.00  0.00    -0.288 N
HETATM    8  C11 UNL     1       7.406  35.573  80.938  1.00  0.00     0.328 C
HETATM    9  O3  UNL     1       8.294  34.838  80.620  1.00  0.00    -0.247 OA
HETATM   10  N5  UNL     1       6.064  35.302  81.142  1.00  0.00    -0.288 N
ATOM     11  H5  UNL     1       5.838  34.343  80.877  1.00  0.00     0.172 HD
ATOM     12  H4  UNL     1       7.291  37.651  81.728  1.00  0.00     0.172 HD
BRANCH  10  13
HETATM   13  C12 UNL     1       5.043  35.908  81.564  1.00  0.00     0.153 A
HETATM   14  N6  UNL     1       4.532  37.048  80.871  1.00  0.00    -0.335 N
HETATM   15  C13 UNL     1       3.538  37.626  81.551  1.00  0.00     0.052 A
ATOM     16  H6  UNL     1       4.881  37.379  79.970  1.00  0.00     0.168 HD
HETATM   17  C14 UNL     1       2.937  38.852  81.037  1.00  0.00     0.031 A
HETATM   18  C18 UNL     1       3.063  37.246  82.710  1.00  0.00     0.052 A
HETATM   19  C15 UNL     1       1.991  39.552  81.654  1.00  0.00     0.004 A
HETATM   20  C16 UNL     1       1.488  39.110  82.916  1.00  0.00     0.020 A
HETATM   21  C17 UNL     1       2.090  37.963  83.353  1.00  0.00     0.030 A
HETATM   22 BR1  UNL     1       1.515  37.165  85.033  1.00  0.00    -0.050 Br
HETATM   23  S2  UNL     1       4.081  35.855  82.977  1.00  0.00    -0.050 SA
ENDBRANCH  10  13
ENDBRANCH   5   7
BRANCH   1  24
HETATM   24  S1  UNL     1      12.534  38.535  78.479  1.00  0.00    -0.088 SA
BRANCH  24  25
HETATM   25  C7  UNL     1      13.726  39.546  79.111  1.00  0.00     0.250 C
BRANCH  25  26
HETATM   26  C6  UNL     1      13.404  40.755  80.015  1.00  0.00     0.046 C
BRANCH  26  27
HETATM   27  C5  UNL     1      14.678  41.046  80.648  1.00  0.00     0.036 C
BRANCH  27  28
HETATM   28  C4  UNL     1      15.024  42.279  81.347  1.00  0.00     0.224 C
BRANCH  28  29
HETATM   29  N1  UNL     1      15.391  41.836  82.689  1.00  0.00    -0.391 NA
HETATM   30  C3  UNL     1      15.727  41.446  83.883  1.00  0.00     0.434 C
HETATM   31  O2  UNL     1      16.675  41.538  84.682  1.00  0.00    -0.221 OA
BRANCH  30  32
HETATM   32  O1  UNL     1      14.688  40.561  84.492  1.00  0.00    -0.293 OA
BRANCH  32  33
HETATM   33  C2  UNL     1      15.177  39.792  85.604  1.00  0.00     0.177 C
HETATM   34  C1  UNL     1      14.227  39.736  86.728  1.00  0.00     0.034 C
ENDBRANCH  32  33
ENDBRANCH  30  32
ENDBRANCH  28  29
ENDBRANCH  27  28
ENDBRANCH  26  27
ENDBRANCH  25  26
BRANCH  25  35
HETATM   35  N2  UNL     1      14.934  38.930  79.567  1.00  0.00    -0.066 N
ATOM     36  H23 UNL     1      15.764  39.335  79.133  1.00  0.00     0.275 HD
ATOM     37  H22 UNL     1      15.149  39.167  80.535  1.00  0.00     0.275 HD
ATOM     38  H21 UNL     1      14.871  37.923  79.419  1.00  0.00     0.275 HD
ENDBRANCH  25  35
ENDBRANCH  24  25
ENDBRANCH   1  24
TORSDOF 11
ENDMDL