MODEL 5
REMARK VINA RESULT: -6.919292559      2.662      5.796
REMARK  9 active torsions:
REMARK  status: ('A' for Active; 'I' for Inactive)
REMARK    1  A    between atoms: C2_2  and  N1_3
REMARK    2  A    between atoms: N1_3  and  C3_6
REMARK    3  A    between atoms: C3_6  and  C4_7
REMARK    4  A    between atoms: C5_9  and  O2_10
REMARK    5  A    between atoms: C6_12  and  N2_13
REMARK       I    between atoms: N2_13  and  C7_15
REMARK    6  A    between atoms: C7_15  and  C8_17
REMARK    7  A    between atoms: C19_30  and  O6_31
REMARK    8  A    between atoms: O6_31  and  C20_32
REMARK       I    between atoms: C20_32  and  N3_34
REMARK    9  A    between atoms: N3_34  and  C21_36
ROOT
HETATM    1  C4  UNL     1      13.529  35.892  73.037  1.00  0.00     0.179 C
HETATM    2  O1  UNL     1      13.703  34.753  72.249  1.00  0.00    -0.350 OA
HETATM    3  C5  UNL     1      12.534  34.069  72.011  1.00  0.00     0.280 C
HETATM    4  C6  UNL     1      12.591  32.646  72.588  1.00  0.00     0.146 C
HETATM    5  C9  UNL     1      13.559  31.797  71.816  1.00  0.00     0.108 C
HETATM    6  C10 UNL     1      14.475  31.091  72.756  1.00  0.00     0.129 C
HETATM    7  O5  UNL     1      14.366  31.162  73.968  1.00  0.00    -0.298 OA
HETATM    8  C11 UNL     1      15.590  30.247  72.239  1.00  0.00     0.078 C
HETATM    9  C12 UNL     1      16.842  31.048  71.973  1.00  0.00     0.007 C
HETATM   10  C13 UNL     1      17.467  31.573  73.246  1.00  0.00     0.000 C
HETATM   11  C14 UNL     1      18.468  32.622  72.872  1.00  0.00     0.000 C
HETATM   12  C15 UNL     1      18.660  33.660  73.957  1.00  0.00     0.000 C
HETATM   13  C16 UNL     1      18.040  34.946  73.475  1.00  0.00     0.000 C
HETATM   14  C17 UNL     1      16.947  35.459  74.342  1.00  0.00     0.002 C
HETATM   15  C18 UNL     1      15.590  34.894  74.014  1.00  0.00     0.035 C
HETATM   16  C19 UNL     1      14.542  35.959  74.161  1.00  0.00     0.164 C
ENDROOT
BRANCH  16  17
HETATM   17  O6  UNL     1      13.809  35.846  75.371  1.00  0.00    -0.296 OA
BRANCH  17  18
HETATM   18  C20 UNL     1      13.666  36.932  76.191  1.00  0.00     0.365 C
HETATM   19  O7  UNL     1      13.757  38.064  75.683  1.00  0.00    -0.238 OA
HETATM   20  N3  UNL     1      13.421  36.842  77.594  1.00  0.00    -0.302 N
ATOM     21  H3  UNL     1      13.344  35.922  78.027  1.00  0.00     0.171 HD
BRANCH  20  22
HETATM   22  C21 UNL     1      13.282  38.004  78.400  1.00  0.00     0.049 A
HETATM   23  C22 UNL     1      12.035  38.484  78.740  1.00  0.00    -0.032 A
HETATM   24  C23 UNL     1      10.789  37.796  78.271  1.00  0.00     0.050 C
HETATM   25  C24 UNL     1      11.903  39.610  79.521  1.00  0.00     0.051 A
HETATM   26  C25 UNL     1      13.032  40.258  79.964  1.00  0.00     0.117 A
HETATM   27  F1  UNL     1      12.852  41.362  80.730  1.00  0.00    -0.206 F
HETATM   28  C26 UNL     1      14.299  39.793  79.634  1.00  0.00     0.051 A
HETATM   29  C27 UNL     1      14.401  38.670  78.854  1.00  0.00    -0.032 A
HETATM   30  C28 UNL     1      15.776  38.169  78.497  1.00  0.00     0.050 C
ENDBRANCH  20  22
ENDBRANCH  17  18
ENDBRANCH  16  17
BRANCH   1  31
HETATM   31  C3  UNL     1      13.569  37.165  72.201  1.00  0.00     0.266 C
BRANCH  31  32
HETATM   32  N1  UNL     1      12.847  38.208  72.852  1.00  0.00    -0.073 N
ATOM     33  H12 UNL     1      12.908  39.102  72.363  1.00  0.00     0.277 HD
ATOM     34  H11 UNL     1      13.278  38.508  73.727  1.00  0.00     0.277 HD
BRANCH  32  35
HETATM   35  C2  UNL     1      11.466  37.734  73.022  1.00  0.00     0.228 C
HETATM   36  C1  UNL     1      10.728  38.538  74.057  1.00  0.00     0.034 C
ENDBRANCH  32  35
ENDBRANCH  31  32
ENDBRANCH   1  31
BRANCH   3  37
HETATM   37  O2  UNL     1      12.248  33.917  70.655  1.00  0.00    -0.369 OA
ATOM     38  H2  UNL     1      12.224  34.740  70.181  1.00  0.00     0.212 HD
ENDBRANCH   3  37
BRANCH   4  39
HETATM   39  N2  UNL     1      11.278  32.036  72.510  1.00  0.00    -0.345 N
HETATM   40  C7  UNL     1      10.582  31.595  73.675  1.00  0.00     0.279 C
HETATM   41  O3  UNL     1      11.153  31.757  74.782  1.00  0.00    -0.265 OA
ATOM     42  H2  UNL     1      10.840  31.918  71.596  1.00  0.00     0.163 HD
BRANCH  40  43
HETATM   43  C8  UNL     1       9.279  30.986  73.631  1.00  0.00     0.332 C
HETATM   44  O4  UNL     1       8.419  31.171  74.535  1.00  0.00    -0.297 OA
ENDBRANCH  40  43
ENDBRANCH   4  39
TORSDOF 9
ENDMDL