MODEL 4
REMARK VINA RESULT: -8.434632800      0.935      1.183
REMARK  11 active torsions:
REMARK  status: ('A' for Active; 'I' for Inactive)
REMARK    1  A    between atoms: C2_2  and  C3_3
REMARK    2  A    between atoms: C3_3  and  C4_4
REMARK    3  A    between atoms: C4_4  and  C5_5
REMARK    4  A    between atoms: C9_10  and  O1_11
REMARK    5  A    between atoms: C11_13  and  O2_14
REMARK    6  A    between atoms: C12_16  and  O3_17
REMARK    7  A    between atoms: C15_21  and  C16_22
REMARK       I    between atoms: C16_22  and  N1_24
REMARK    8  A    between atoms: N1_24  and  C17_26
REMARK    9  A    between atoms: C17_26  and  C18_27
REMARK   10  A    between atoms: N2_32  and  N3_34
REMARK   11  A    between atoms: N3_34  and  C22_36
ROOT
HETATM    1  C5  UNL     1      11.334  37.732  77.536  1.00  0.00    -0.017 A
HETATM    2  C6  UNL     1      10.105  37.103  77.435  1.00  0.00     0.026 A
HETATM    3  C7  UNL     1       9.245  36.944  78.500  1.00  0.00    -0.002 A
HETATM    4  C8  UNL     1       8.017  36.315  78.422  1.00  0.00     0.058 A
HETATM    5 BR1  UNL     1       7.472  35.620  76.716  1.00  0.00    -0.047 Br
HETATM    6  C9  UNL     1       7.193  36.180  79.531  1.00  0.00     0.122 A
HETATM    7  C11 UNL     1       7.604  36.686  80.759  1.00  0.00     0.135 A
HETATM    8  C12 UNL     1       8.821  37.308  80.831  1.00  0.00     0.113 A
HETATM    9  C13 UNL     1       9.658  37.454  79.737  1.00  0.00     0.013 A
HETATM   10  C14 UNL     1      10.849  38.074  79.867  1.00  0.00     0.033 A
HETATM   11  C15 UNL     1      11.723  38.229  78.759  1.00  0.00     0.043 A
ENDROOT
BRANCH   1  12
HETATM   12  C4  UNL     1      12.169  37.858  76.358  1.00  0.00     0.043 C
BRANCH  12  13
HETATM   13  C3  UNL     1      12.521  36.704  75.576  1.00  0.00     0.048 C
HETATM   14  N2  UNL     1      12.450  36.594  74.325  1.00  0.00    -0.299 N
ATOM     15  H2  UNL     1      12.772  35.689  73.983  1.00  0.00     0.187 HD
BRANCH  13  16
HETATM   16  C2  UNL     1      13.049  35.527  76.298  1.00  0.00     0.021 C
HETATM   17  C1  UNL     1      12.776  34.297  75.903  1.00  0.00     0.013 C
ENDBRANCH  13  16
BRANCH  14  18
HETATM   18  N3  UNL     1      12.036  37.424  73.332  1.00  0.00    -0.285 N
ATOM     19  H3  UNL     1      12.666  37.600  72.550  1.00  0.00     0.188 HD
BRANCH  18  20
HETATM   20  C22 UNL     1      10.858  38.011  73.332  1.00  0.00     0.119 A
HETATM   21  C23 UNL     1       9.691  37.336  73.599  1.00  0.00     0.050 A
HETATM   22  C24 UNL     1       8.456  37.931  73.633  1.00  0.00     0.005 A
HETATM   23  C25 UNL     1       8.411  39.307  73.376  1.00  0.00     0.017 A
HETATM   24  C26 UNL     1       9.603  39.982  73.105  1.00  0.00     0.089 A
HETATM   25  N4  UNL     1      10.774  39.336  73.089  1.00  0.00    -0.351 N
ATOM     26  H4  UNL     1      11.626  39.859  72.888  1.00  0.00     0.166 HD
ENDBRANCH  18  20
ENDBRANCH  14  18
ENDBRANCH  12  13
ENDBRANCH   1  12
BRANCH  11  27
HETATM   27  C16 UNL     1      12.937  38.921  79.073  1.00  0.00     0.252 C
HETATM   28  O4  UNL     1      14.015  38.213  79.073  1.00  0.00    -0.268 OA
HETATM   29  N1  UNL     1      13.064  40.271  79.365  1.00  0.00    -0.354 N
ATOM     30  H1  UNL     1      12.237  40.870  79.354  1.00  0.00     0.162 HD
BRANCH  29  31
HETATM   31  C17 UNL     1      14.384  40.853  79.693  1.00  0.00     0.155 C
BRANCH  31  32
HETATM   32  C18 UNL     1      14.486  40.899  81.201  1.00  0.00     0.139 C
HETATM   33  C19 UNL     1      13.219  41.455  81.817  1.00  0.00     0.035 C
HETATM   34  C20 UNL     1      13.845  42.165  83.038  1.00  0.00     0.029 C
HETATM   35  C21 UNL     1      15.052  42.774  82.330  1.00  0.00     0.168 C
HETATM   36  O5  UNL     1      15.511  41.728  81.559  1.00  0.00    -0.384 OA
ENDBRANCH  31  32
ENDBRANCH  29  31
ENDBRANCH  11  27
BRANCH   6  37
HETATM   37  O1  UNL     1       5.985  35.541  79.372  1.00  0.00    -0.352 OA
HETATM   38  C10 UNL     1       4.715  36.124  79.432  1.00  0.00     0.210 C
ENDBRANCH   6  37
BRANCH   8  39
HETATM   39  O3  UNL     1       9.268  37.828  82.037  1.00  0.00    -0.357 OA
ATOM     40  H3  UNL     1       9.791  37.294  82.623  1.00  0.00     0.217 HD
ENDBRANCH   8  39
BRANCH   7  41
HETATM   41  O2  UNL     1       6.777  36.547  81.866  1.00  0.00    -0.356 OA
ATOM     42  H2  UNL     1       6.808  35.744  82.373  1.00  0.00     0.218 HD
ENDBRANCH   7  41
TORSDOF 11
ENDMDL