MODEL 1
REMARK VINA RESULT: -8.760119695      0.000      0.000
REMARK  10 active torsions:
REMARK  status: ('A' for Active; 'I' for Inactive)
REMARK    1  A    between atoms: C14_15  and  O2_16
REMARK    2  A    between atoms: C15_18  and  N1_19
REMARK    3  A    between atoms: N1_19  and  C16_21
REMARK    4  A    between atoms: C16_21  and  C17_22
REMARK    5  A    between atoms: C17_22  and  O3_23
REMARK    6  A    between atoms: C17_22  and  C18_25
REMARK    7  A    between atoms: C18_25  and  C19_26
REMARK    8  A    between atoms: C19_26  and  N2_27
REMARK    9  A    between atoms: C27_37  and  O4_38
REMARK   10  A    between atoms: C27_37  and  C28_40
ROOT
HETATM    1  C1  UNL     1      12.696  33.974  71.799  1.00  0.00     0.010 C
HETATM    2  C2  UNL     1      13.239  35.199  72.540  1.00  0.00    -0.015 C
HETATM    3  C3  UNL     1      12.291  36.308  72.335  1.00  0.00     0.014 C
HETATM    4  C4  UNL     1      11.377  36.623  73.524  1.00  0.00     0.031 C
HETATM    5  C5  UNL     1      12.264  36.668  74.751  1.00  0.00    -0.010 C
HETATM    6  C6  UNL     1      11.821  37.512  75.851  1.00  0.00     0.063 C
HETATM    7  O1  UNL     1      11.220  38.677  75.444  1.00  0.00    -0.343 OA
HETATM    8  C7  UNL     1      10.260  38.582  74.482  1.00  0.00     0.071 C
HETATM    9  C8  UNL     1       9.787  40.027  74.227  1.00  0.00     0.047 C
HETATM   10  C9  UNL     1       9.015  37.864  74.973  1.00  0.00     0.039 C
HETATM   11  C10 UNL     1       8.984  38.188  76.470  1.00  0.00     0.009 C
HETATM   12  C11 UNL     1       9.661  37.066  77.150  1.00  0.00     0.008 C
HETATM   13  C12 UNL     1       9.383  37.049  78.610  1.00  0.00     0.021 C
HETATM   14  C13 UNL     1       8.005  37.460  79.015  1.00  0.00     0.013 C
HETATM   15  C14 UNL     1      10.380  38.106  79.117  1.00  0.00     0.168 C
HETATM   16  C15 UNL     1      11.486  38.007  78.203  1.00  0.00     0.026 C
HETATM   17  C23 UNL     1      11.122  36.993  77.057  1.00  0.00     0.096 C
HETATM   18  C24 UNL     1      10.703  37.922  73.220  1.00  0.00    -0.009 C
HETATM   19  C25 UNL     1      11.530  38.914  72.457  1.00  0.00     0.018 C
HETATM   20  C26 UNL     1       9.495  37.608  72.342  1.00  0.00     0.018 C
HETATM   21  C27 UNL     1      12.741  35.307  75.022  1.00  0.00     0.097 C
HETATM   22  C29 UNL     1      13.709  34.906  73.903  1.00  0.00     0.048 C
ENDROOT
BRANCH  16  23
HETATM   23  N1  UNL     1      12.819  37.922  78.559  1.00  0.00    -0.371 N
ATOM     24  H1  UNL     1      13.238  36.992  78.573  1.00  0.00     0.164 HD
BRANCH  23  25
HETATM   25  C16 UNL     1      13.633  38.982  78.895  1.00  0.00     0.092 C
BRANCH  25  26
HETATM   26  C17 UNL     1      15.102  38.939  78.941  1.00  0.00     0.158 C
BRANCH  26  27
HETATM   27  O3  UNL     1      15.760  38.713  77.759  1.00  0.00    -0.390 OA
ATOM     28  H3  UNL     1      16.536  39.233  77.588  1.00  0.00     0.210 HD
ENDBRANCH  26  27
BRANCH  26  29
HETATM   29  C18 UNL     1      15.543  40.310  79.496  1.00  0.00     0.057 C
BRANCH  29  30
HETATM   30  C19 UNL     1      14.390  41.203  79.814  1.00  0.00     0.132 C
BRANCH  30  31
HETATM   31  N2  UNL     1      14.597  41.671  81.195  1.00  0.00    -0.352 N
HETATM   32  C20 UNL     1      15.711  42.276  81.666  1.00  0.00     0.108 A
HETATM   33  C21 UNL     1      15.572  42.578  82.995  1.00  0.00     0.106 A
HETATM   34  N3  UNL     1      14.328  42.130  83.312  1.00  0.00    -0.361 N
HETATM   35  C22 UNL     1      13.748  41.584  82.213  1.00  0.00     0.182 A
ATOM     36  H3  UNL     1      13.897  42.195  84.234  1.00  0.00     0.166 HD
ENDBRANCH  30  31
ENDBRANCH  29  30
ENDBRANCH  26  29
ENDBRANCH  25  26
ENDBRANCH  23  25
ENDBRANCH  16  23
BRANCH  15  37
HETATM   37  O2  UNL     1      10.597  37.929  80.474  1.00  0.00    -0.389 OA
ATOM     38  H2  UNL     1      11.488  38.181  80.691  1.00  0.00     0.210 HD
ENDBRANCH  15  37
BRANCH  21  39
HETATM   39  O4  UNL     1      13.546  35.359  76.175  1.00  0.00    -0.384 OA
ATOM     40  H4  UNL     1      14.153  34.629  76.135  1.00  0.00     0.211 HD
ENDBRANCH  21  39
BRANCH  21  41
HETATM   41  C28 UNL     1      11.729  34.205  75.096  1.00  0.00     0.157 C
HETATM   42 CL1  UNL     1      12.535  32.595  75.138  1.00  0.00    -0.127 Cl
ENDBRANCH  21  41
TORSDOF 10
ENDMDL