MODEL 5
REMARK VINA RESULT: -7.704748917      3.895     10.329
REMARK  9 active torsions:
REMARK  status: ('A' for Active; 'I' for Inactive)
REMARK    1  A    between atoms: C2_2  and  C3_3
REMARK    2  A    between atoms: C4_4  and  O1_5
REMARK    3  A    between atoms: C5_9  and  S1_10
REMARK    4  A    between atoms: S1_10  and  C6_11
REMARK    5  A    between atoms: C6_11  and  C7_12
REMARK    6  A    between atoms: C7_12  and  N2_13
REMARK    7  A    between atoms: N3_16  and  C10_17
REMARK    8  A    between atoms: C10_17  and  C11_18
REMARK    9  A    between atoms: C11_18  and  O2_19
ROOT
HETATM    1  N2  UNL     1      -2.658 -15.005  -7.692  1.00  0.00     0.092 N
HETATM    2  C8  UNL     1      -2.680 -13.557  -7.794  1.00  0.00     0.302 C
HETATM    3  C9  UNL     1      -2.018 -12.868  -6.659  1.00  0.00     0.302 C
HETATM    4  N3  UNL     1      -0.548 -13.075  -6.623  1.00  0.00     0.095 N
HETATM    5  C25 UNL     1      -0.397 -14.433  -7.135  1.00  0.00     0.302 C
HETATM    6  C26 UNL     1      -1.603 -15.310  -6.738  1.00  0.00     0.302 C
ENDROOT
BRANCH   4   7
HETATM    7  C10 UNL     1       0.079 -12.133  -7.468  1.00  0.00     0.313 C
BRANCH   7   8
HETATM    8  C11 UNL     1       1.042 -11.123  -6.975  1.00  0.00     0.115 C
HETATM    9  C12 UNL     1       2.251 -10.999  -7.880  1.00  0.00     0.043 C
HETATM   10  C13 UNL     1       2.310  -9.734  -8.645  1.00  0.00     0.018 C
HETATM   11  C14 UNL     1       2.132  -8.486  -7.831  1.00  0.00     0.001 C
HETATM   12  C15 UNL     1       2.029  -7.351  -8.866  1.00  0.00     0.017 C
HETATM   13  C22 UNL     1       3.264  -8.047  -7.043  1.00  0.00    -0.003 C
HETATM   14  C23 UNL     1       0.813  -8.612  -7.141  1.00  0.00     0.056 C
HETATM   15  C16 UNL     1       3.478  -7.225  -9.290  1.00  0.00     0.016 C
HETATM   16  C17 UNL     1       4.265  -7.464  -8.026  1.00  0.00    -0.001 C
HETATM   17  C18 UNL     1       4.826  -6.170  -7.465  1.00  0.00     0.015 C
HETATM   18  C21 UNL     1       5.474  -8.310  -8.192  1.00  0.00     0.015 C
HETATM   19  C19 UNL     1       5.923  -6.615  -6.518  1.00  0.00     0.001 C
HETATM   20  C20 UNL     1       6.288  -8.012  -6.950  1.00  0.00     0.001 C
HETATM   21  N4  UNL     1       3.513  -8.060  -5.825  1.00  0.00    -0.404 N
ATOM     22  H42 UNL     1       2.841  -8.452  -5.166  1.00  0.00     0.155 HD
ATOM     23  H41 UNL     1       4.311  -7.751  -5.269  1.00  0.00     0.155 HD
HETATM   24  C24 UNL     1       0.628  -9.863  -6.359  1.00  0.00     0.207 C
HETATM   25  F1  UNL     1      -0.625  -9.875  -5.829  1.00  0.00    -0.246 F
BRANCH   8  26
HETATM   26  O2  UNL     1       1.605 -11.844  -5.825  1.00  0.00    -0.385 OA
ATOM     27  H2  UNL     1       1.001 -11.569  -5.145  1.00  0.00     0.210 HD
ENDBRANCH   8  26
ENDBRANCH   7   8
ENDBRANCH   4   7
BRANCH   1  28
HETATM   28  C7  UNL     1      -2.452 -15.538  -8.989  1.00  0.00     0.283 C
BRANCH  28  29
HETATM   29  C6  UNL     1      -3.647 -16.265  -9.528  1.00  0.00     0.112 C
BRANCH  29  30
HETATM   30  S1  UNL     1      -4.775 -16.723  -8.243  1.00  0.00    -0.092 SA
BRANCH  30  31
HETATM   31  C5  UNL     1      -6.418 -16.216  -8.563  1.00  0.00     0.149 A
HETATM   32  N1  UNL     1      -6.643 -15.482  -9.686  1.00  0.00    -0.317 N
HETATM   33  C4  UNL     1      -7.851 -15.076 -10.041  1.00  0.00     0.153 A
ATOM     34  H1  UNL     1      -5.850 -15.235 -10.277  1.00  0.00     0.170 HD
HETATM   35  C3  UNL     1      -8.931 -15.401  -9.257  1.00  0.00     0.060 A
HETATM   36  C27 UNL     1      -8.696 -16.150  -8.112  1.00  0.00     0.257 A
HETATM   37  N5  UNL     1      -7.449 -16.533  -7.801  1.00  0.00    -0.303 N
HETATM   38  O3  UNL     1      -9.693 -16.442  -7.410  1.00  0.00    -0.267 OA
ATOM     39  H5  UNL     1      -7.294 -17.083  -6.955  1.00  0.00     0.171 HD
BRANCH  33  40
HETATM   40  O1  UNL     1      -8.052 -14.334 -11.182  1.00  0.00    -0.345 OA
ATOM     41  H1  UNL     1      -7.743 -14.673 -12.014  1.00  0.00     0.219 HD
ENDBRANCH  33  40
BRANCH  35  42
HETATM   42  C2  UNL     1     -10.264 -14.952  -9.663  1.00  0.00     0.044 C
HETATM   43  C1  UNL     1     -10.871 -16.061 -10.518  1.00  0.00     0.010 C
ENDBRANCH  35  42
ENDBRANCH  30  31
ENDBRANCH  29  30
ENDBRANCH  28  29
ENDBRANCH   1  28
TORSDOF 9
ENDMDL