MODEL 1
REMARK VINA RESULT: -7.223008611      0.000      0.000
REMARK  11 active torsions:
REMARK  status: ('A' for Active; 'I' for Inactive)
REMARK    1  A    between atoms: O1_2  and  C2_3
REMARK    2  A    between atoms: C3_4  and  O2_5
REMARK    3  A    between atoms: C4_7  and  O3_8
REMARK    4  A    between atoms: C5_10  and  N1_11
REMARK    5  A    between atoms: N1_11  and  C6_12
REMARK    6  A    between atoms: N1_11  and  C14_21
REMARK    7  A    between atoms: C6_12  and  C7_13
REMARK    8  A    between atoms: C8_14  and  C9_15
REMARK    9  A    between atoms: C10_16  and  C11_17
REMARK   10  A    between atoms: C21_29  and  O5_30
REMARK   11  A    between atoms: C28_38  and  O6_39
ROOT
HETATM    1  C2  UNL     1      -2.128 -17.825  -8.814  1.00  0.00     0.129 C
HETATM    2  C3  UNL     1      -2.052 -16.423  -9.207  1.00  0.00     0.187 C
HETATM    3  C4  UNL     1      -0.847 -15.618  -8.891  1.00  0.00     0.183 C
HETATM    4  C5  UNL     1      -0.203 -15.931  -7.615  1.00  0.00     0.261 C
HETATM    5  C17 UNL     1      -0.777 -17.097  -6.944  1.00  0.00     0.056 C
HETATM    6  C18 UNL     1      -2.037 -16.889  -6.172  1.00  0.00     0.043 C
HETATM    7  C19 UNL     1      -3.282 -17.495  -6.642  1.00  0.00     0.146 C
HETATM    8  O4  UNL     1      -4.161 -16.266  -6.972  1.00  0.00    -0.341 OA
HETATM    9  C20 UNL     1      -5.098 -16.797  -7.887  1.00  0.00     0.110 A
HETATM   10  C21 UNL     1      -6.304 -16.522  -8.548  1.00  0.00     0.099 A
HETATM   11  C22 UNL     1      -6.865 -17.467  -9.405  1.00  0.00     0.040 A
HETATM   12  C23 UNL     1      -6.215 -18.708  -9.601  1.00  0.00     0.011 A
HETATM   13  C24 UNL     1      -5.014 -18.977  -8.936  1.00  0.00    -0.047 A
HETATM   14  C25 UNL     1      -4.661 -17.982  -8.208  1.00  0.00    -0.001 A
HETATM   15  C26 UNL     1      -3.273 -18.234  -7.893  1.00  0.00     0.057 C
HETATM   16  C27 UNL     1      -3.744 -19.597  -8.329  1.00  0.00     0.059 C
HETATM   17  C28 UNL     1      -0.921 -18.229  -7.935  1.00  0.00     0.163 C
ENDROOT
BRANCH   4  18
HETATM   18  N1  UNL     1       0.019 -14.744  -6.765  1.00  0.00     0.103 N
BRANCH  18  19
HETATM   19  C6  UNL     1      -0.720 -13.636  -7.375  1.00  0.00     0.301 C
BRANCH  19  20
HETATM   20  C7  UNL     1      -1.626 -12.866  -6.593  1.00  0.00     0.003 C
HETATM   21  C8  UNL     1      -2.890 -12.603  -6.882  1.00  0.00    -0.002 C
BRANCH  21  22
HETATM   22  C9  UNL     1      -3.737 -11.804  -6.012  1.00  0.00    -0.000 C
HETATM   23  C10 UNL     1      -3.280 -10.671  -5.521  1.00  0.00     0.001 C
BRANCH  23  24
HETATM   24  C11 UNL     1      -4.087  -9.830  -4.645  1.00  0.00     0.019 C
HETATM   25  C12 UNL     1      -3.526  -9.125  -3.700  1.00  0.00     0.008 C
HETATM   26  C13 UNL     1      -2.068  -9.151  -3.485  1.00  0.00     0.062 C
HETATM   27 CL1  UNL     1      -4.563  -8.132  -2.676  1.00  0.00    -0.089 Cl
ENDBRANCH  23  24
ENDBRANCH  21  22
ENDBRANCH  19  20
ENDBRANCH  18  19
BRANCH  18  28
HETATM   28  C14 UNL     1       1.386 -14.360  -6.715  1.00  0.00     0.216 C
HETATM   29  C15 UNL     1       1.848 -13.319  -7.680  1.00  0.00     0.042 C
HETATM   30  C16 UNL     1       1.797 -14.000  -5.325  1.00  0.00     0.042 C
ENDBRANCH  18  28
ENDBRANCH   4  18
BRANCH   3  31
HETATM   31  O3  UNL     1       0.023 -15.697 -10.003  1.00  0.00    -0.391 OA
ATOM     32  H3  UNL     1       0.041 -14.841 -10.413  1.00  0.00     0.210 HD
ENDBRANCH   3  31
BRANCH   2  33
HETATM   33  O2  UNL     1      -2.354 -16.243 -10.605  1.00  0.00    -0.390 OA
ATOM     34  H2  UNL     1      -1.822 -15.560 -10.996  1.00  0.00     0.210 HD
ENDBRANCH   2  33
BRANCH  17  35
HETATM   35  O6  UNL     1      -1.246 -19.372  -7.234  1.00  0.00    -0.392 OA
ATOM     36  H6  UNL     1      -0.587 -19.518  -6.565  1.00  0.00     0.210 HD
ENDBRANCH  17  35
BRANCH   1  37
HETATM   37  O1  UNL     1      -2.207 -18.623  -9.919  1.00  0.00    -0.378 OA
HETATM   38  C1  UNL     1      -1.154 -19.114 -10.563  1.00  0.00     0.202 C
ENDBRANCH   1  37
BRANCH  10  39
HETATM   39  O5  UNL     1      -6.866 -15.285  -8.288  1.00  0.00    -0.358 OA
ATOM     40  H5  UNL     1      -7.685 -15.099  -8.734  1.00  0.00     0.217 HD
ENDBRANCH  10  39
TORSDOF 11
ENDMDL