MODEL 5
REMARK VINA RESULT: -7.598826478      2.353      5.364
REMARK  12 active torsions:
REMARK  status: ('A' for Active; 'I' for Inactive)
REMARK    1  A    between atoms: C3_3  and  C5_5
REMARK    2  A    between atoms: C6_6  and  O1_7
REMARK    3  A    between atoms: O1_7  and  C7_8
REMARK    4  A    between atoms: C7_8  and  C8_10
REMARK    5  A    between atoms: C8_10  and  C9_11
REMARK    6  A    between atoms: C9_11  and  C10_12
REMARK    7  A    between atoms: C18_20  and  O3_21
REMARK    8  A    between atoms: C19_23  and  O4_24
REMARK    9  A    between atoms: C20_26  and  O5_27
REMARK   10  A    between atoms: C21_29  and  O6_30
REMARK   11  A    between atoms: C22_32  and  S1_33
REMARK   12  A    between atoms: S1_33  and  C23_34
ROOT
HETATM    1  C1  UNL     1       1.626 -10.502  -6.906  1.00  0.00     0.017 C
HETATM    2  C2  UNL     1       1.200 -11.639  -6.934  1.00  0.00    -0.082 C
HETATM    3  C3  UNL     1       0.716 -13.045  -6.953  1.00  0.00    -0.004 C
HETATM    4  C4  UNL     1       0.643 -13.559  -5.742  1.00  0.00     0.029 C
ENDROOT
BRANCH   3   5
HETATM    5  C5  UNL     1       0.592 -13.633  -8.243  1.00  0.00     0.107 C
HETATM    6  C6  UNL     1      -0.814 -13.982  -8.760  1.00  0.00     0.122 C
HETATM    7  C16 UNL     1      -0.636 -14.262 -10.211  1.00  0.00    -0.021 C
HETATM    8  C22 UNL     1      -1.014 -15.268  -7.983  1.00  0.00     0.125 C
HETATM    9  C17 UNL     1      -1.587 -13.976 -11.102  1.00  0.00     0.020 C
HETATM   10  C18 UNL     1       0.599 -14.819 -10.831  1.00  0.00     0.181 C
HETATM   11  C19 UNL     1       1.773 -14.918  -9.932  1.00  0.00     0.189 C
HETATM   12  C20 UNL     1       1.277 -14.980  -8.465  1.00  0.00     0.124 C
HETATM   13  C21 UNL     1       0.205 -16.058  -8.376  1.00  0.00     0.173 C
BRANCH   6  14
HETATM   14  O1  UNL     1      -1.835 -13.124  -8.618  1.00  0.00    -0.303 OA
BRANCH  14  15
HETATM   15  C7  UNL     1      -2.330 -12.438  -7.575  1.00  0.00     0.260 C
HETATM   16  O2  UNL     1      -2.809 -13.117  -6.635  1.00  0.00    -0.265 OA
BRANCH  15  17
HETATM   17  C8  UNL     1      -2.338 -10.926  -7.481  1.00  0.00     0.116 C
BRANCH  17  18
HETATM   18  C9  UNL     1      -3.640 -10.517  -6.886  1.00  0.00     0.048 C
BRANCH  18  19
HETATM   19  C10 UNL     1      -3.399 -10.027  -5.499  1.00  0.00    -0.058 A
HETATM   20  C11 UNL     1      -2.137  -9.814  -4.984  1.00  0.00     0.007 A
HETATM   21  C12 UNL     1      -1.949  -9.359  -3.687  1.00  0.00     0.001 A
HETATM   22  C13 UNL     1      -3.051  -9.115  -2.902  1.00  0.00     0.000 A
HETATM   23  C14 UNL     1      -4.308  -9.326  -3.409  1.00  0.00     0.001 A
HETATM   24  C15 UNL     1      -4.494  -9.782  -4.708  1.00  0.00     0.007 A
ENDBRANCH  18  19
ENDBRANCH  17  18
ENDBRANCH  15  17
ENDBRANCH  14  15
ENDBRANCH   6  14
BRANCH  10  25
HETATM   25  O3  UNL     1       0.384 -15.998 -11.533  1.00  0.00    -0.388 OA
ATOM     26  H3  UNL     1       0.844 -16.746 -11.169  1.00  0.00     0.210 HD
ENDBRANCH  10  25
BRANCH  11  27
HETATM   27  O4  UNL     1       2.519 -13.748 -10.022  1.00  0.00    -0.390 OA
ATOM     28  H4  UNL     1       2.497 -13.430 -10.917  1.00  0.00     0.210 HD
ENDBRANCH  11  27
BRANCH  12  29
HETATM   29  O5  UNL     1       2.373 -15.204  -7.687  1.00  0.00    -0.384 OA
ATOM     30  H5  UNL     1       2.219 -15.145  -6.752  1.00  0.00     0.210 HD
ENDBRANCH  12  29
BRANCH  13  31
HETATM   31  O6  UNL     1       0.634 -16.889  -7.318  1.00  0.00    -0.391 OA
ATOM     32  H6  UNL     1      -0.159 -17.072  -6.826  1.00  0.00     0.210 HD
ENDBRANCH  13  31
BRANCH   8  33
HETATM   33  S1  UNL     1      -2.520 -16.081  -7.913  1.00  0.00    -0.117 SA
BRANCH  33  34
HETATM   34  C23 UNL     1      -3.778 -15.976  -9.076  1.00  0.00     0.022 A
HETATM   35  C24 UNL     1      -4.839 -15.107  -8.867  1.00  0.00     0.020 A
HETATM   36  C25 UNL     1      -5.856 -14.997  -9.747  1.00  0.00     0.001 A
HETATM   37  C26 UNL     1      -5.904 -15.740 -10.905  1.00  0.00     0.002 A
HETATM   38  C27 UNL     1      -4.860 -16.605 -11.126  1.00  0.00     0.025 A
HETATM   39  C28 UNL     1      -3.814 -16.736 -10.248  1.00  0.00     0.050 A
HETATM   40 CL1  UNL     1      -2.505 -17.888 -10.574  1.00  0.00    -0.083 Cl
ENDBRANCH  33  34
ENDBRANCH   8  33
ENDBRANCH   3   5
TORSDOF 12
ENDMDL