MODEL 4
REMARK VINA RESULT: -7.312947169      2.185      3.358
REMARK  10 active torsions:
REMARK  status: ('A' for Active; 'I' for Inactive)
REMARK    1  A    between atoms: C15_16  and  O2_17
REMARK    2  A    between atoms: C15_16  and  C16_19
REMARK    3  A    between atoms: C16_19  and  C17_20
REMARK    4  A    between atoms: C16_19  and  C18_26
REMARK    5  A    between atoms: C17_20  and  O3_21
REMARK    6  A    between atoms: O3_21  and  S1_22
REMARK    7  A    between atoms: C18_26  and  O7_27
REMARK    8  A    between atoms: C18_26  and  C19_29
REMARK    9  A    between atoms: C19_29  and  C20_30
REMARK   10  A    between atoms: C24_35  and  O8_36
ROOT
HETATM    1  C1  UNL     1      -3.877 -10.106  -7.450  1.00  0.00     0.018 C
HETATM    2  C2  UNL     1      -3.075 -10.665  -6.270  1.00  0.00    -0.014 C
HETATM    3  C3  UNL     1      -3.471 -12.054  -5.922  1.00  0.00     0.012 C
HETATM    4  C4  UNL     1      -2.805 -13.135  -6.693  1.00  0.00     0.007 C
HETATM    5  C5  UNL     1      -1.695 -12.608  -7.564  1.00  0.00    -0.001 C
HETATM    6  C6  UNL     1      -0.862 -11.706  -6.671  1.00  0.00    -0.005 C
HETATM    7  C7  UNL     1       0.515 -11.506  -7.238  1.00  0.00     0.006 C
HETATM    8  C8  UNL     1       1.239 -12.813  -7.171  1.00  0.00     0.009 C
HETATM    9  C9  UNL     1       0.317 -14.013  -7.290  1.00  0.00     0.037 C
HETATM   10  C10 UNL     1      -0.854 -13.695  -8.185  1.00  0.00    -0.033 C
HETATM   11  C11 UNL     1      -0.455 -13.237  -9.551  1.00  0.00     0.016 C
HETATM   12  C12 UNL     1      -1.671 -14.941  -8.381  1.00  0.00     0.017 C
HETATM   13  C13 UNL     1      -0.893 -15.963  -9.200  1.00  0.00     0.082 C
HETATM   14  C14 UNL     1       0.566 -15.734  -9.013  1.00  0.00     0.162 C
HETATM   15  O1  UNL     1       1.301 -15.926  -9.908  1.00  0.00    -0.295 OA
HETATM   16  C15 UNL     1       1.085 -15.251  -7.668  1.00  0.00     0.130 C
HETATM   17  C21 UNL     1      -1.617 -10.442  -6.443  1.00  0.00     0.001 C
HETATM   18  C22 UNL     1      -1.113  -9.674  -5.246  1.00  0.00     0.008 C
HETATM   19  C23 UNL     1      -2.208  -9.735  -4.213  1.00  0.00     0.033 C
HETATM   20  C24 UNL     1      -3.448  -9.775  -5.074  1.00  0.00     0.126 C
ENDROOT
BRANCH  16  21
HETATM   21  O2  UNL     1       2.438 -15.002  -7.849  1.00  0.00    -0.381 OA
ATOM     22  H2  UNL     1       2.932 -15.792  -8.032  1.00  0.00     0.211 HD
ENDBRANCH  16  21
BRANCH  16  23
HETATM   23  C16 UNL     1       0.937 -16.386  -6.702  1.00  0.00     0.082 C
BRANCH  23  24
HETATM   24  C17 UNL     1       1.283 -16.049  -5.267  1.00  0.00     0.203 C
BRANCH  24  25
HETATM   25  O3  UNL     1       2.548 -15.561  -5.087  1.00  0.00    -0.256 OA
BRANCH  25  26
HETATM   26  S1  UNL     1       3.620 -16.840  -5.157  1.00  0.00     0.251 S
HETATM   27  O4  UNL     1       4.714 -16.725  -4.147  1.00  0.00    -0.572 OA
HETATM   28  O5  UNL     1       2.930 -18.165  -4.907  1.00  0.00    -0.572 OA
HETATM   29  O6  UNL     1       4.345 -16.956  -6.679  1.00  0.00    -0.572 OA
ENDBRANCH  25  26
ENDBRANCH  24  25
ENDBRANCH  23  24
BRANCH  23  30
HETATM   30  C18 UNL     1      -0.172 -17.324  -6.803  1.00  0.00     0.128 C
BRANCH  30  31
HETATM   31  O7  UNL     1       0.367 -18.661  -6.673  1.00  0.00    -0.395 OA
ATOM     32  H7  UNL     1      -0.330 -19.226  -6.362  1.00  0.00     0.210 HD
ENDBRANCH  30  31
BRANCH  30  33
HETATM   33  C19 UNL     1      -1.336 -17.314  -5.912  1.00  0.00     0.047 C
BRANCH  33  34
HETATM   34  C20 UNL     1      -2.558 -18.077  -6.378  1.00  0.00     0.117 C
HETATM   35 CL1  UNL     1      -3.937 -16.931  -6.613  1.00  0.00    -0.130 Cl
ENDBRANCH  33  34
ENDBRANCH  30  33
ENDBRANCH  23  30
ENDBRANCH  16  23
BRANCH  20  36
HETATM   36  O8  UNL     1      -4.478 -10.320  -4.340  1.00  0.00    -0.395 OA
ATOM     37  H8  UNL     1      -4.213 -11.126  -3.914  1.00  0.00     0.210 HD
ENDBRANCH  20  36
TORSDOF 10
ENDMDL