MODEL 5
REMARK VINA RESULT: -6.149056177      2.660      5.469
REMARK  12 active torsions:
REMARK  status: ('A' for Active; 'I' for Inactive)
REMARK    1  A    between atoms: S1_2  and  C2_3
REMARK    2  A    between atoms: C3_4  and  C4_5
REMARK    3  A    between atoms: C4_5  and  O2_7
REMARK    4  A    between atoms: O2_7  and  C5_8
REMARK    5  A    between atoms: C5_8  and  C6_9
REMARK    6  A    between atoms: C6_9  and  C7_10
REMARK    7  A    between atoms: C9_12  and  C10_13
REMARK    8  A    between atoms: C10_13  and  C11_14
REMARK    9  A    between atoms: C11_14  and  O3_16
REMARK   10  A    between atoms: C16_21  and  O4_22
REMARK   11  A    between atoms: C17_24  and  O5_25
REMARK   12  A    between atoms: C23_33  and  O6_34
ROOT
HETATM    1  C7  UNL     1      -1.053 -13.434  -7.107  1.00  0.00    -0.060 C
HETATM    2  C8  UNL     1      -0.740 -11.994  -7.084  1.00  0.00     0.033 C
HETATM    3  C9  UNL     1      -1.679 -11.133  -6.188  1.00  0.00     0.019 C
HETATM    4  C13 UNL     1      -0.765  -9.982  -5.926  1.00  0.00    -0.025 C
HETATM    5  C14 UNL     1       0.506 -10.432  -5.902  1.00  0.00    -0.022 C
HETATM    6  C15 UNL     1       0.473 -11.849  -6.141  1.00  0.00     0.049 C
HETATM    7  C16 UNL     1       1.597 -12.455  -6.876  1.00  0.00     0.166 C
HETATM    8  C17 UNL     1       1.424 -13.976  -6.632  1.00  0.00     0.117 C
HETATM    9  C18 UNL     1       2.471 -14.685  -7.358  1.00  0.00     0.024 C
HETATM   10  C19 UNL     1       2.845 -14.292  -8.747  1.00  0.00     0.013 C
HETATM   11  C20 UNL     1       2.517 -16.187  -7.255  1.00  0.00     0.013 C
HETATM   12  C21 UNL     1       1.448 -16.862  -8.074  1.00  0.00     0.050 C
HETATM   13  C22 UNL     1       0.153 -16.775  -7.297  1.00  0.00     0.022 C
HETATM   14 BR1  UNL     1      -0.854 -18.383  -7.170  1.00  0.00    -0.053 Br
HETATM   15  C23 UNL     1      -0.380 -15.749  -6.695  1.00  0.00     0.088 C
HETATM   16  C24 UNL     1       0.021 -14.355  -6.531  1.00  0.00     0.016 C
ENDROOT
BRANCH   1  17
HETATM   17  C6  UNL     1      -1.800 -13.967  -8.288  1.00  0.00     0.062 C
BRANCH  17  18
HETATM   18  C5  UNL     1      -3.256 -14.197  -8.164  1.00  0.00     0.183 C
BRANCH  18  19
HETATM   19  O2  UNL     1      -3.589 -15.504  -8.516  1.00  0.00    -0.318 OA
BRANCH  19  20
HETATM   20  C4  UNL     1      -4.480 -16.301  -7.846  1.00  0.00     0.283 C
HETATM   21  O1  UNL     1      -4.228 -16.679  -6.667  1.00  0.00    -0.260 OA
BRANCH  20  22
HETATM   22  C3  UNL     1      -5.739 -16.743  -8.447  1.00  0.00     0.089 C
HETATM   23  C2  UNL     1      -5.793 -17.802  -9.188  1.00  0.00     0.050 C
BRANCH  23  24
HETATM   24  S1  UNL     1      -4.410 -18.855  -9.586  1.00  0.00    -0.146 SA
HETATM   25  C1  UNL     1      -4.218 -20.055  -8.213  1.00  0.00     0.095 C
ENDBRANCH  23  24
ENDBRANCH  20  22
ENDBRANCH  19  20
ENDBRANCH  18  19
ENDBRANCH  17  18
ENDBRANCH   1  17
BRANCH   3  26
HETATM   26  C10 UNL     1      -2.831 -10.636  -6.993  1.00  0.00     0.040 C
BRANCH  26  27
HETATM   27  C11 UNL     1      -4.118 -10.454  -6.330  1.00  0.00     0.114 C
HETATM   28  C12 UNL     1      -4.197 -10.066  -4.892  1.00  0.00     0.039 C
BRANCH  27  29
HETATM   29  O3  UNL     1      -4.981 -11.582  -6.563  1.00  0.00    -0.396 OA
ATOM     30  H3  UNL     1      -4.549 -12.234  -7.102  1.00  0.00     0.210 HD
ENDBRANCH  27  29
ENDBRANCH  26  27
ENDBRANCH   3  26
BRANCH   8  31
HETATM   31  O5  UNL     1       1.946 -14.007  -5.267  1.00  0.00    -0.382 OA
ATOM     32  H5  UNL     1       1.174 -13.664  -4.833  1.00  0.00     0.211 HD
ENDBRANCH   8  31
BRANCH  15  33
HETATM   33  O6  UNL     1      -1.608 -16.056  -6.067  1.00  0.00    -0.359 OA
ATOM     34  H6  UNL     1      -1.975 -15.320  -5.592  1.00  0.00     0.217 HD
ENDBRANCH  15  33
BRANCH   7  35
HETATM   35  O4  UNL     1       1.575 -12.106  -8.191  1.00  0.00    -0.391 OA
ATOM     36  H4  UNL     1       2.135 -12.673  -8.709  1.00  0.00     0.210 HD
ENDBRANCH   7  35
TORSDOF 12
ENDMDL