MODEL 5
REMARK VINA RESULT: -6.985384439      5.682      9.849
REMARK  12 active torsions:
REMARK  status: ('A' for Active; 'I' for Inactive)
REMARK    1  A    between atoms: C2_2  and  O1_3
REMARK    2  A    between atoms: C2_2  and  C13_21
REMARK    3  A    between atoms: O1_3  and  C3_4
REMARK    4  A    between atoms: C3_4  and  C4_5
REMARK    5  A    between atoms: C4_5  and  N1_6
REMARK    6  A    between atoms: C6_8  and  O2_9
REMARK    7  A    between atoms: O2_9  and  C7_10
REMARK    8  A    between atoms: C10_14  and  O3_15
REMARK    9  A    between atoms: C11_17  and  C12_18
REMARK   10  A    between atoms: C12_18  and  O4_19
REMARK   11  A    between atoms: C13_21  and  O5_22
REMARK   12  A    between atoms: C23_33  and  O6_34
ROOT
HETATM    1  C13 UNL     1      -0.388 -14.705  -7.070  1.00  0.00     0.084 C
HETATM    2  C14 UNL     1      -1.710 -14.753  -6.375  1.00  0.00     0.041 C
HETATM    3  C15 UNL     1      -2.639 -13.802  -7.141  1.00  0.00     0.013 C
HETATM    4  C16 UNL     1      -2.129 -12.389  -7.138  1.00  0.00    -0.033 C
HETATM    5  C17 UNL     1      -1.879 -12.000  -8.597  1.00  0.00     0.016 C
HETATM    6  C18 UNL     1      -0.803 -12.367  -6.448  1.00  0.00    -0.003 C
HETATM    7  C19 UNL     1      -0.157 -10.999  -6.428  1.00  0.00     0.006 C
HETATM    8  C20 UNL     1      -1.112 -10.083  -5.666  1.00  0.00     0.006 C
HETATM    9  C21 UNL     1      -2.403 -10.058  -6.449  1.00  0.00    -0.003 C
HETATM   10  C22 UNL     1      -3.351  -9.005  -5.882  1.00  0.00     0.037 C
HETATM   11  C23 UNL     1      -3.852  -9.378  -4.520  1.00  0.00     0.118 C
HETATM   12  C24 UNL     1      -4.414 -10.761  -4.545  1.00  0.00     0.032 C
HETATM   13  C25 UNL     1      -3.529 -11.790  -5.164  1.00  0.00     0.012 C
HETATM   14  C26 UNL     1      -3.062 -11.404  -6.526  1.00  0.00    -0.033 C
HETATM   15  C27 UNL     1      -4.259 -11.263  -7.459  1.00  0.00     0.016 C
HETATM   16  C28 UNL     1       0.192 -13.328  -7.044  1.00  0.00     0.045 C
ENDROOT
BRANCH   1  17
HETATM   17  C2  UNL     1       0.610 -15.718  -6.553  1.00  0.00     0.151 C
HETATM   18  C1  UNL     1       1.985 -15.062  -6.741  1.00  0.00     0.042 C
BRANCH  17  19
HETATM   19  O1  UNL     1       0.605 -16.855  -7.308  1.00  0.00    -0.382 OA
BRANCH  19  20
HETATM   20  C3  UNL     1       0.168 -17.998  -6.665  1.00  0.00     0.198 C
BRANCH  20  21
HETATM   21  C4  UNL     1      -0.763 -18.840  -7.478  1.00  0.00     0.299 C
BRANCH  21  22
HETATM   22  N1  UNL     1      -1.988 -18.166  -7.810  1.00  0.00     0.102 N
HETATM   23  C5  UNL     1      -2.380 -18.242  -9.176  1.00  0.00     0.307 C
HETATM   24  C6  UNL     1      -3.715 -17.486  -9.154  1.00  0.00     0.183 C
HETATM   25  C10 UNL     1      -4.261 -17.890  -7.800  1.00  0.00     0.184 C
HETATM   26  C11 UNL     1      -3.133 -18.601  -7.085  1.00  0.00     0.277 C
BRANCH  24  27
HETATM   27  O2  UNL     1      -3.404 -16.144  -9.218  1.00  0.00    -0.356 OA
BRANCH  27  28
HETATM   28  C7  UNL     1      -4.005 -15.455 -10.230  1.00  0.00     0.130 C
HETATM   29  C8  UNL     1      -4.658 -16.314 -11.274  1.00  0.00     0.064 C
HETATM   30  C9  UNL     1      -2.920 -14.649 -10.942  1.00  0.00     0.064 C
HETATM   31 CL1  UNL     1      -5.129 -14.276  -9.520  1.00  0.00    -0.089 Cl
ENDBRANCH  27  28
ENDBRANCH  24  27
BRANCH  25  32
HETATM   32  O3  UNL     1      -4.657 -16.740  -7.080  1.00  0.00    -0.391 OA
ATOM     33  H3  UNL     1      -5.187 -16.993  -6.333  1.00  0.00     0.210 HD
ENDBRANCH  25  32
BRANCH  26  34
HETATM   34  C12 UNL     1      -3.311 -20.114  -7.198  1.00  0.00     0.202 C
BRANCH  34  35
HETATM   35  O4  UNL     1      -3.225 -20.691  -5.911  1.00  0.00    -0.399 OA
ATOM     36  H4  UNL     1      -2.389 -20.463  -5.520  1.00  0.00     0.209 HD
ENDBRANCH  34  35
ENDBRANCH  26  34
ENDBRANCH  21  22
ENDBRANCH  20  21
ENDBRANCH  19  20
ENDBRANCH  17  19
ENDBRANCH   1  17
BRANCH   1  37
HETATM   37  O5  UNL     1      -0.618 -15.038  -8.422  1.00  0.00    -0.387 OA
ATOM     38  H5  UNL     1      -0.929 -14.243  -8.839  1.00  0.00     0.210 HD
ENDBRANCH   1  37
BRANCH  11  39
HETATM   39  O6  UNL     1      -2.933  -9.160  -3.508  1.00  0.00    -0.396 OA
ATOM     40  H6  UNL     1      -3.328  -9.031  -2.653  1.00  0.00     0.210 HD
ENDBRANCH  11  39
TORSDOF 12
ENDMDL