MODEL 2
REMARK VINA RESULT: -4.997925072      8.782     13.294
REMARK  15 active torsions:
REMARK  status: ('A' for Active; 'I' for Inactive)
REMARK    1  A    between atoms: C2_2  and  C3_3
REMARK    2  A    between atoms: C3_3  and  N1_4
REMARK    3  A    between atoms: N1_4  and  C4_5
REMARK    4  A    between atoms: N1_4  and  C7_8
REMARK    5  A    between atoms: C4_5  and  C5_6
REMARK    6  A    between atoms: C7_8  and  C8_10
REMARK    7  A    between atoms: C9_11  and  O1_12
REMARK       I    between atoms: N2_15  and  C11_16
REMARK    8  A    between atoms: C11_16  and  C12_18
REMARK    9  A    between atoms: C12_18  and  N3_19
REMARK   10  A    between atoms: C12_18  and  C18_28
REMARK       I    between atoms: N3_19  and  C13_21
REMARK   11  A    between atoms: C13_21  and  O4_23
REMARK   12  A    between atoms: O4_23  and  C14_24
REMARK   13  A    between atoms: C22_32  and  C23_33
REMARK   14  A    between atoms: C23_33  and  O5_34
REMARK   15  A    between atoms: N4_36  and  O6_38
ROOT
HETATM    1  C8  UNL     1       8.091  -8.537  -6.295  1.00  0.00     0.108 C
HETATM    2  C9  UNL     1       7.272  -7.553  -5.534  1.00  0.00     0.149 C
HETATM    3  C10 UNL     1       6.056  -7.275  -6.376  1.00  0.00     0.159 C
HETATM    4  N2  UNL     1       6.189  -8.122  -7.543  1.00  0.00    -0.335 N
HETATM    5  C11 UNL     1       5.157  -8.664  -8.327  1.00  0.00     0.244 C
HETATM    6  O2  UNL     1       5.327  -9.444  -9.311  1.00  0.00    -0.271 OA
HETATM    7  C22 UNL     1       7.636  -8.299  -7.745  1.00  0.00     0.176 C
ENDROOT
BRANCH   5   8
HETATM    8  C12 UNL     1       3.733  -8.347  -8.044  1.00  0.00     0.186 C
BRANCH   8   9
HETATM    9  N3  UNL     1       2.844  -9.445  -8.372  1.00  0.00    -0.323 N
HETATM   10  C13 UNL     1       1.876  -9.940  -7.422  1.00  0.00     0.362 C
HETATM   11  O3  UNL     1       1.761  -9.442  -6.275  1.00  0.00    -0.238 OA
ATOM     12  H3  UNL     1       2.904  -9.878  -9.294  1.00  0.00     0.165 HD
BRANCH  10  13
HETATM   13  O4  UNL     1       1.032 -10.988  -7.748  1.00  0.00    -0.294 OA
BRANCH  13  14
HETATM   14  C14 UNL     1       1.274 -12.342  -7.541  1.00  0.00     0.061 C
HETATM   15  C15 UNL     1       2.427 -12.924  -8.284  1.00  0.00     0.046 C
HETATM   16  C16 UNL     1       1.384 -12.707  -6.075  1.00  0.00     0.046 C
HETATM   17  C17 UNL     1       0.020 -13.073  -8.051  1.00  0.00     0.046 C
ENDBRANCH  13  14
ENDBRANCH  10  13
ENDBRANCH   8   9
BRANCH   8  18
HETATM   18  C18 UNL     1       3.255  -7.189  -8.919  1.00  0.00    -0.022 C
HETATM   19  C19 UNL     1       2.259  -6.371  -8.116  1.00  0.00     0.017 C
HETATM   20  C20 UNL     1       2.586  -7.684 -10.165  1.00  0.00     0.017 C
HETATM   21  C21 UNL     1       4.367  -6.258  -9.322  1.00  0.00     0.017 C
ENDBRANCH   8  18
ENDBRANCH   5   8
BRANCH   7  22
HETATM   22  C23 UNL     1       8.010  -9.402  -8.613  1.00  0.00     0.159 C
HETATM   23  N4  UNL     1       8.456  -9.160  -9.801  1.00  0.00    -0.249 N
ATOM     24  H4  UNL     1       8.536  -8.190 -10.106  1.00  0.00     0.196 HD
BRANCH  22  25
HETATM   25  O5  UNL     1       7.896 -10.714  -8.186  1.00  0.00    -0.347 OA
ATOM     26  H5  UNL     1       8.137 -11.436  -8.755  1.00  0.00     0.219 HD
ENDBRANCH  22  25
BRANCH  23  27
HETATM   27  O6  UNL     1       8.826 -10.161 -10.668  1.00  0.00    -0.288 OA
ATOM     28  H6  UNL     1       9.407 -10.868 -10.412  1.00  0.00     0.244 HD
ENDBRANCH  23  27
ENDBRANCH   7  22
BRANCH   2  29
HETATM   29  O1  UNL     1       8.003  -6.348  -5.335  1.00  0.00    -0.393 OA
ATOM     30  H1  UNL     1       8.266  -5.978  -6.170  1.00  0.00     0.210 HD
ENDBRANCH   2  29
BRANCH   1  31
HETATM   31  C7  UNL     1       9.545  -8.391  -6.168  1.00  0.00     0.084 C
HETATM   32  S1  UNL     1      10.438  -7.533  -7.249  1.00  0.00    -0.065 SA
BRANCH  31  33
HETATM   33  N1  UNL     1      10.246  -8.990  -5.099  1.00  0.00    -0.375 N
BRANCH  33  34
HETATM   34  C3  UNL     1      10.034 -10.365  -4.734  1.00  0.00     0.123 C
BRANCH  34  35
HETATM   35  C2  UNL     1      10.388 -11.330  -5.836  1.00  0.00     0.015 C
HETATM   36  C1  UNL     1       9.462 -12.526  -5.687  1.00  0.00     0.006 C
ENDBRANCH  34  35
ENDBRANCH  33  34
BRANCH  33  37
HETATM   37  C4  UNL     1      11.222  -8.243  -4.305  1.00  0.00     0.123 C
BRANCH  37  38
HETATM   38  C5  UNL     1      11.451  -8.910  -2.965  1.00  0.00     0.015 C
HETATM   39  C6  UNL     1      10.932  -8.067  -1.830  1.00  0.00     0.006 C
ENDBRANCH  37  38
ENDBRANCH  33  37
ENDBRANCH  31  33
ENDBRANCH   1  31
TORSDOF 15
ENDMDL