MODEL 4
REMARK VINA RESULT: -7.678719772      1.786      2.114
REMARK  9 active torsions:
REMARK  status: ('A' for Active; 'I' for Inactive)
REMARK    1  A    between atoms: C2_2  and  C3_3
REMARK    2  A    between atoms: C2_2  and  C12_17
REMARK    3  A    between atoms: C3_3  and  O1_4
REMARK    4  A    between atoms: O1_4  and  C4_5
REMARK    5  A    between atoms: C4_5  and  C5_6
REMARK       I    between atoms: C5_6  and  N1_8
REMARK    6  A    between atoms: N1_8  and  C6_10
REMARK    7  A    between atoms: C12_17  and  O3_18
REMARK    8  A    between atoms: C27_34  and  O4_35
REMARK    9  A    between atoms: C28_37  and  O5_38
ROOT
HETATM    1  C12 UNL     1       0.042 -13.920  -7.940  1.00  0.00     0.071 C
HETATM    2  C13 UNL     1       0.248 -15.440  -7.920  1.00  0.00     0.039 C
HETATM    3  C14 UNL     1      -1.169 -15.921  -7.569  1.00  0.00     0.009 C
HETATM    4  C15 UNL     1      -2.042 -14.730  -7.744  1.00  0.00     0.001 C
HETATM    5  C16 UNL     1      -3.415 -14.987  -8.202  1.00  0.00    -0.005 C
HETATM    6  C17 UNL     1      -4.142 -15.881  -7.235  1.00  0.00     0.006 C
HETATM    7  C18 UNL     1      -4.621 -17.106  -7.982  1.00  0.00     0.014 C
HETATM    8  C19 UNL     1      -5.541 -16.678  -9.075  1.00  0.00     0.010 C
HETATM    9  C20 UNL     1      -6.899 -16.273  -8.537  1.00  0.00     0.020 C
HETATM   10  C21 UNL     1      -4.908 -15.640 -10.002  1.00  0.00     0.035 C
HETATM   11  C22 UNL     1      -3.469 -15.525  -9.620  1.00  0.00    -0.003 C
HETATM   12  C23 UNL     1      -2.774 -14.472 -10.466  1.00  0.00     0.006 C
HETATM   13  C24 UNL     1      -1.342 -14.286 -10.017  1.00  0.00     0.013 C
HETATM   14  C25 UNL     1      -1.224 -13.780  -8.609  1.00  0.00    -0.009 C
HETATM   15  C26 UNL     1      -1.915 -12.441  -8.501  1.00  0.00     0.019 C
HETATM   16  C27 UNL     1      -5.245 -16.516 -11.162  1.00  0.00     0.173 C
HETATM   17  C28 UNL     1      -5.614 -17.643 -10.218  1.00  0.00     0.180 C
HETATM   18  C29 UNL     1      -4.632 -18.702 -10.174  1.00  0.00     0.101 C
HETATM   19  N2  UNL     1      -3.845 -19.562 -10.158  1.00  0.00    -0.194 NA
ENDROOT
BRANCH  17  20
HETATM   20  O5  UNL     1      -6.885 -18.176 -10.443  1.00  0.00    -0.372 OA
ATOM     21  H5  UNL     1      -7.264 -17.947 -11.284  1.00  0.00     0.212 HD
ENDBRANCH  17  20
BRANCH  16  22
HETATM   22  O4  UNL     1      -6.421 -16.043 -11.784  1.00  0.00    -0.391 OA
ATOM     23  H4  UNL     1      -6.806 -16.738 -12.305  1.00  0.00     0.210 HD
ENDBRANCH  16  22
BRANCH   1  24
HETATM   24  C2  UNL     1       1.304 -13.271  -8.277  1.00  0.00     0.040 C
HETATM   25  C1  UNL     1       2.455 -14.231  -8.491  1.00  0.00     0.015 C
BRANCH  24  26
HETATM   26  C3  UNL     1       1.701 -12.063  -7.531  1.00  0.00     0.175 C
BRANCH  26  27
HETATM   27  O1  UNL     1       0.861 -11.026  -7.359  1.00  0.00    -0.382 OA
BRANCH  27  28
HETATM   28  C4  UNL     1       0.859 -10.221  -6.298  1.00  0.00     0.270 C
BRANCH  28  29
HETATM   29  C5  UNL     1      -0.538  -9.704  -5.980  1.00  0.00     0.245 C
HETATM   30  O2  UNL     1      -1.209  -9.285  -6.904  1.00  0.00    -0.271 OA
HETATM   31  N1  UNL     1      -0.932  -9.753  -4.647  1.00  0.00    -0.324 N
ATOM     32  H1  UNL     1      -0.254 -10.131  -3.986  1.00  0.00     0.169 HD
BRANCH  31  33
HETATM   33  C6  UNL     1      -2.183  -9.330  -4.105  1.00  0.00     0.056 A
HETATM   34  C7  UNL     1      -2.343  -8.251  -3.268  1.00  0.00     0.031 A
HETATM   35  C8  UNL     1      -3.601  -7.891  -2.770  1.00  0.00     0.002 A
HETATM   36  C9  UNL     1      -4.733  -8.600  -3.096  1.00  0.00     0.002 A
HETATM   37  C10 UNL     1      -4.571  -9.674  -3.930  1.00  0.00     0.026 A
HETATM   38  C11 UNL     1      -3.346 -10.039  -4.425  1.00  0.00     0.060 A
HETATM   39 CL1  UNL     1      -3.266 -11.433  -5.485  1.00  0.00    -0.082 Cl
ENDBRANCH  31  33
ENDBRANCH  28  29
ENDBRANCH  27  28
ENDBRANCH  26  27
ENDBRANCH  24  26
ENDBRANCH   1  24
BRANCH   1  40
HETATM   40  O3  UNL     1      -0.164 -13.642  -6.550  1.00  0.00    -0.389 OA
ATOM     41  H3  UNL     1      -0.725 -12.876  -6.529  1.00  0.00     0.210 HD
ENDBRANCH   1  40
TORSDOF 9
ENDMDL