MODEL 1
REMARK VINA RESULT: -7.165232889      0.000      0.000
REMARK  8 active torsions:
REMARK  status: ('A' for Active; 'I' for Inactive)
REMARK    1  A    between atoms: C2_2  and  C3_3
REMARK    2  A    between atoms: C3_3  and  C4_4
REMARK    3  A    between atoms: C4_4  and  C5_5
REMARK    4  A    between atoms: C5_5  and  C6_6
REMARK    5  A    between atoms: C6_6  and  C7_7
REMARK       I    between atoms: C7_7  and  N1_9
REMARK    6  A    between atoms: N1_9  and  N2_11
REMARK       I    between atoms: N2_11  and  C8_13
REMARK    7  A    between atoms: C8_13  and  C9_15
REMARK    8  A    between atoms: C19_30  and  C20_31
ROOT
HETATM    1  C9  UNL     1      -1.640 -11.075  -7.303  1.00  0.00     0.137 C
HETATM    2  C10 UNL     1      -2.964 -11.664  -7.675  1.00  0.00     0.191 C
HETATM    3  O3  UNL     1      -3.006 -13.042  -7.504  1.00  0.00    -0.330 OA
HETATM    4  C11 UNL     1      -2.055 -13.686  -8.309  1.00  0.00     0.309 C
HETATM    5  O4  UNL     1      -2.576 -13.641  -9.613  1.00  0.00    -0.326 OA
HETATM    6  C12 UNL     1      -1.596 -13.517 -10.567  1.00  0.00     0.215 C
HETATM    7  C13 UNL     1      -0.773 -14.727 -10.759  1.00  0.00    -0.007 A
HETATM    8  C14 UNL     1      -0.151 -14.750 -11.985  1.00  0.00     0.012 A
HETATM    9  C15 UNL     1       0.668 -15.785 -12.380  1.00  0.00     0.002 A
HETATM   10  C16 UNL     1       0.865 -16.837 -11.505  1.00  0.00     0.021 A
HETATM   11  C17 UNL     1       0.253 -16.841 -10.270  1.00  0.00     0.037 A
HETATM   12 BR1  UNL     1       0.525 -18.288  -9.066  1.00  0.00    -0.049 Br
HETATM   13  C18 UNL     1      -0.570 -15.772  -9.904  1.00  0.00     0.054 A
HETATM   14  N3  UNL     1      -1.119 -15.932  -8.605  1.00  0.00    -0.372 N
ATOM     15  H3  UNL     1      -0.805 -16.773  -8.121  1.00  0.00     0.160 HD
HETATM   16  C19 UNL     1      -2.033 -15.128  -7.851  1.00  0.00     0.214 C
HETATM   17  O5  UNL     1      -0.841 -13.061  -8.302  1.00  0.00    -0.319 OA
HETATM   18  C21 UNL     1      -0.605 -12.156  -7.304  1.00  0.00     0.074 C
HETATM   19  C22 UNL     1      -0.531 -12.862  -5.972  1.00  0.00     0.047 C
HETATM   20  C23 UNL     1       0.786 -11.562  -7.578  1.00  0.00     0.047 C
ENDROOT
BRANCH  16  21
HETATM   21  C20 UNL     1      -3.443 -15.624  -7.964  1.00  0.00     0.086 C
HETATM   22  N4  UNL     1      -4.107 -15.891  -6.924  1.00  0.00    -0.409 N
ATOM     23  H42 UNL     1      -3.667 -15.765  -6.012  1.00  0.00     0.155 HD
ATOM     24  H41 UNL     1      -5.067 -16.228  -7.000  1.00  0.00     0.155 HD
ENDBRANCH  16  21
BRANCH   1  25
HETATM   25  C8  UNL     1      -1.719 -10.332  -6.033  1.00  0.00     0.245 C
HETATM   26  N2  UNL     1      -2.797 -10.319  -5.145  1.00  0.00    -0.267 N
ATOM     27  H2  UNL     1      -3.624 -10.869  -5.375  1.00  0.00     0.190 HD
HETATM   28  O2  UNL     1      -0.703  -9.633  -5.713  1.00  0.00    -0.271 OA
BRANCH  26  29
HETATM   29  N1  UNL     1      -2.794  -9.582  -3.947  1.00  0.00    -0.268 N
HETATM   30  C7  UNL     1      -3.939  -8.911  -3.479  1.00  0.00     0.236 C
HETATM   31  O1  UNL     1      -5.046  -8.921  -4.097  1.00  0.00    -0.272 OA
ATOM     32  H1  UNL     1      -1.934  -9.531  -3.400  1.00  0.00     0.190 HD
BRANCH  30  33
HETATM   33  C6  UNL     1      -3.891  -8.148  -2.214  1.00  0.00     0.104 C
BRANCH  33  34
HETATM   34  C5  UNL     1      -3.768  -6.674  -2.429  1.00  0.00     0.010 C
BRANCH  34  35
HETATM   35  C4  UNL     1      -2.340  -6.214  -2.543  1.00  0.00     0.004 C
BRANCH  35  36
HETATM   36  C3  UNL     1      -2.276  -4.910  -3.299  1.00  0.00     0.026 C
BRANCH  36  37
HETATM   37  C2  UNL     1      -3.620  -4.475  -3.744  1.00  0.00    -0.037 C
HETATM   38  C1  UNL     1      -3.723  -3.374  -4.509  1.00  0.00     0.007 C
ENDBRANCH  36  37
ENDBRANCH  35  36
ENDBRANCH  34  35
ENDBRANCH  33  34
ENDBRANCH  30  33
ENDBRANCH  26  29
ENDBRANCH   1  25
TORSDOF 8
ENDMDL