MODEL 1
REMARK VINA RESULT: -8.138686807      0.000      0.000
REMARK  10 active torsions:
REMARK  status: ('A' for Active; 'I' for Inactive)
REMARK    1  A    between atoms: C2_2  and  C3_3
REMARK    2  A    between atoms: C3_3  and  N1_4
REMARK    3  A    between atoms: C3_3  and  C13_23
REMARK    4  A    between atoms: N1_4  and  C4_6
REMARK    5  A    between atoms: C5_9  and  N3_10
REMARK    6  A    between atoms: N3_10  and  N4_12
REMARK    7  A    between atoms: C14_26  and  S1_27
REMARK    8  A    between atoms: C16_31  and  C17_32
REMARK    9  A    between atoms: C17_32  and  O2_34
REMARK   10  A    between atoms: O2_34  and  C18_35
ROOT
HETATM    1  C13 UNL     1      -2.232 -10.872  -5.640  1.00  0.00     0.067 A
HETATM    2  N6  UNL     1      -2.983 -10.136  -4.775  1.00  0.00    -0.336 N
ATOM      3  H6  UNL     1      -3.982 -10.261  -4.610  1.00  0.00     0.168 HD
HETATM    4  C14 UNL     1      -2.201  -9.214  -4.170  1.00  0.00     0.144 A
HETATM    5  N7  UNL     1      -0.963  -9.373  -4.653  1.00  0.00    -0.330 N
ATOM      6  H7  UNL     1      -0.150  -8.819  -4.385  1.00  0.00     0.168 HD
HETATM    7  C16 UNL     1      -0.960 -10.400  -5.569  1.00  0.00     0.135 A
ENDROOT
BRANCH   1   8
HETATM    8  C3  UNL     1      -2.758 -11.954  -6.459  1.00  0.00     0.135 C
BRANCH   8   9
HETATM    9  C2  UNL     1      -2.908 -11.431  -7.904  1.00  0.00     0.027 C
HETATM   10  C1  UNL     1      -3.818 -10.213  -7.934  1.00  0.00     0.007 C
ENDBRANCH   8   9
BRANCH   8  11
HETATM   11  N1  UNL     1      -2.008 -13.142  -6.560  1.00  0.00    -0.364 N
ATOM     12  H1  UNL     1      -1.089 -13.172  -6.119  1.00  0.00     0.162 HD
BRANCH  11  13
HETATM   13  C4  UNL     1      -2.418 -14.185  -7.174  1.00  0.00     0.141 A
HETATM   14  N2  UNL     1      -3.631 -14.737  -7.079  1.00  0.00    -0.174 N
HETATM   15  C5  UNL     1      -4.022 -15.845  -7.769  1.00  0.00     0.698 A
ATOM     16  H2  UNL     1      -4.308 -14.302  -6.451  1.00  0.00     0.186 HD
HETATM   17  N5  UNL     1      -3.194 -16.472  -8.610  1.00  0.00    -0.199 N
HETATM   18  C11 UNL     1      -1.964 -15.963  -8.746  1.00  0.00     0.134 A
ATOM     19  H5  UNL     1      -3.487 -17.301  -9.127  1.00  0.00     0.183 HD
HETATM   20  C12 UNL     1      -1.545 -14.849  -8.063  1.00  0.00     0.094 A
HETATM   21 CL1  UNL     1       0.060 -14.185  -8.240  1.00  0.00    -0.079 Cl
BRANCH  15  22
HETATM   22  N3  UNL     1      -5.212 -16.308  -7.615  1.00  0.00    -0.134 N
ATOM     23  H3  UNL     1      -5.423 -16.895  -6.807  1.00  0.00     0.205 HD
BRANCH  22  24
HETATM   24  N4  UNL     1      -6.218 -16.019  -8.538  1.00  0.00    -0.314 N
HETATM   25  C6  UNL     1      -6.203 -14.879  -9.417  1.00  0.00     0.143 C
HETATM   26  C7  UNL     1      -7.325 -15.075 -10.435  1.00  0.00     0.021 C
HETATM   27  C8  UNL     1      -8.656 -15.165  -9.753  1.00  0.00     0.003 C
HETATM   28  C9  UNL     1      -8.667 -16.209  -8.672  1.00  0.00     0.021 C
HETATM   29  C10 UNL     1      -7.338 -16.927  -8.603  1.00  0.00     0.143 C
ENDBRANCH  22  24
ENDBRANCH  15  22
ENDBRANCH  11  13
ENDBRANCH   8  11
ENDBRANCH   1   8
BRANCH   7  30
HETATM   30  C17 UNL     1       0.216 -10.859  -6.262  1.00  0.00     0.312 C
HETATM   31  O1  UNL     1       0.722 -11.968  -5.849  1.00  0.00    -0.258 OA
BRANCH  30  32
HETATM   32  O2  UNL     1       0.876 -10.291  -7.299  1.00  0.00    -0.311 OA
BRANCH  32  33
HETATM   33  C18 UNL     1       1.715  -9.185  -7.283  1.00  0.00     0.136 C
HETATM   34  C19 UNL     1       2.869  -9.329  -8.286  1.00  0.00     0.065 C
HETATM   35  C20 UNL     1       3.751  -8.133  -8.185  1.00  0.00     0.189 C
HETATM   36  C21 UNL     1       4.134  -7.842  -6.759  1.00  0.00     0.035 C
HETATM   37  N8  UNL     1       2.993  -6.965  -8.594  1.00  0.00    -0.067 N
HETATM   38  C22 UNL     1       3.043  -6.928  -6.289  1.00  0.00     0.035 C
HETATM   39  C23 UNL     1       2.100  -6.785  -7.460  1.00  0.00     0.189 C
HETATM   40  C24 UNL     1       1.025  -7.864  -7.440  1.00  0.00     0.065 C
ATOM     41  H82 UNL     1       3.552  -6.149  -8.842  1.00  0.00     0.278 HD
ATOM     42  H81 UNL     1       2.533  -7.041  -9.501  1.00  0.00     0.278 HD
ENDBRANCH  32  33
ENDBRANCH  30  32
ENDBRANCH   7  30
BRANCH   4  43
HETATM   43  S1  UNL     1      -2.701  -7.994  -2.946  1.00  0.00    -0.098 SA
HETATM   44  C15 UNL     1      -4.455  -8.251  -2.590  1.00  0.00     0.099 C
ENDBRANCH   4  43
TORSDOF 10
ENDMDL