MODEL 1
REMARK VINA RESULT: -9.526639550      0.000      0.000
REMARK  9 active torsions:
REMARK  status: ('A' for Active; 'I' for Inactive)
REMARK    1  A    between atoms: C2_2  and  C3_3
REMARK    2  A    between atoms: C3_3  and  O1_4
REMARK    3  A    between atoms: O1_4  and  C4_5
REMARK    4  A    between atoms: C6_7  and  N1_8
REMARK    5  A    between atoms: N1_8  and  C7_10
REMARK    6  A    between atoms: C8_13  and  N3_14
REMARK    7  A    between atoms: N3_14  and  C9_15
REMARK    8  A    between atoms: N6_28  and  C18_29
REMARK    9  A    between atoms: C26_41  and  C27_42
REMARK       I    between atoms: C27_42  and  N8_44
ROOT
HETATM    1  C7  UNL     1       9.834  -6.293   0.192  1.00  0.00     0.686 A
HETATM    2  N2  UNL     1       9.123  -7.039   1.031  1.00  0.00    -0.163 N
ATOM      3  H2  UNL     1       9.321  -6.952   2.028  1.00  0.00     0.187 HD
HETATM    4  C8  UNL     1       8.145  -7.914   0.651  1.00  0.00     0.203 A
HETATM    5  C14 UNL     1       7.914  -7.994  -0.734  1.00  0.00     0.089 A
HETATM    6  C15 UNL     1       7.037  -8.738  -1.491  1.00  0.00     0.079 A
HETATM    7  C16 UNL     1       6.084  -9.674  -0.994  1.00  0.00     0.102 C
HETATM    8  N5  UNL     1       5.303 -10.433  -0.610  1.00  0.00    -0.191 NA
HETATM    9  C17 UNL     1       7.242  -8.416  -2.819  1.00  0.00     0.117 A
HETATM   10  N6  UNL     1       8.220  -7.496  -2.899  1.00  0.00    -0.336 N
HETATM   11  C24 UNL     1       8.632  -7.236  -1.629  1.00  0.00     0.140 A
HETATM   12  N7  UNL     1       9.572  -6.406  -1.147  1.00  0.00    -0.175 N
ATOM     13  H7  UNL     1      10.109  -5.839  -1.803  1.00  0.00     0.186 HD
ENDROOT
BRANCH   4  14
HETATM   14  N3  UNL     1       7.493  -8.543   1.419  1.00  0.00    -0.423 NA
BRANCH  14  15
HETATM   15  C9  UNL     1       7.065  -9.278   2.466  1.00  0.00     0.168 C
HETATM   16  C10 UNL     1       7.150 -10.792   2.378  1.00  0.00     0.067 C
HETATM   17  C11 UNL     1       6.396 -11.339   3.596  1.00  0.00     0.235 C
HETATM   18  N4  UNL     1       5.785 -10.322   4.392  1.00  0.00    -0.075 N
HETATM   19  C12 UNL     1       6.699  -9.307   4.878  1.00  0.00     0.235 C
ATOM     20  H42 UNL     1       5.013  -9.890   3.885  1.00  0.00     0.277 HD
ATOM     21  H41 UNL     1       5.273 -10.740   5.169  1.00  0.00     0.277 HD
HETATM   22  C13 UNL     1       7.704  -8.927   3.815  1.00  0.00     0.067 C
ENDBRANCH  14  15
ENDBRANCH   4  14
BRANCH  10  23
HETATM   23  C18 UNL     1       8.726  -6.892  -4.104  1.00  0.00     0.091 C
HETATM   24  C19 UNL     1       8.611  -5.398  -4.067  1.00  0.00     0.032 C
HETATM   25  C20 UNL     1       9.823  -4.715  -4.669  1.00  0.00     0.081 C
HETATM   26  C21 UNL     1      10.337  -5.449  -5.889  1.00  0.00     0.243 C
HETATM   27  F1  UNL     1       9.381  -5.475  -6.865  1.00  0.00    -0.206 F
HETATM   28  F2  UNL     1      11.397  -4.667  -6.381  1.00  0.00    -0.206 F
HETATM   29  C22 UNL     1      10.802  -6.828  -5.537  1.00  0.00     0.081 C
HETATM   30  C23 UNL     1      10.184  -7.334  -4.248  1.00  0.00     0.032 C
ENDBRANCH  10  23
BRANCH   1  31
HETATM   31  N1  UNL     1      10.767  -5.476   0.520  1.00  0.00    -0.191 N
ATOM     32  H1  UNL     1      10.485  -4.698   1.116  1.00  0.00     0.184 HD
BRANCH  31  33
HETATM   33  C6  UNL     1      12.114  -5.509   0.170  1.00  0.00     0.052 A
HETATM   34  C5  UNL     1      12.686  -6.304  -0.788  1.00  0.00     0.066 A
HETATM   35  C4  UNL     1      14.053  -6.272  -1.096  1.00  0.00     0.071 A
HETATM   36  C29 UNL     1      14.870  -5.417  -0.420  1.00  0.00     0.054 A
HETATM   37  C26 UNL     1      14.332  -4.595   0.555  1.00  0.00     0.036 A
HETATM   38  C25 UNL     1      12.960  -4.649   0.841  1.00  0.00     0.047 A
BRANCH  35  39
HETATM   39  O1  UNL     1      14.496  -7.117  -2.070  1.00  0.00    -0.351 OA
BRANCH  39  40
HETATM   40  C3  UNL     1      13.987  -7.431  -3.301  1.00  0.00     0.175 C
BRANCH  40  41
HETATM   41  C2  UNL     1      13.988  -8.911  -3.604  1.00  0.00     0.022 C
HETATM   42  C1  UNL     1      12.770  -9.538  -2.909  1.00  0.00     0.007 C
ENDBRANCH  40  41
ENDBRANCH  39  40
ENDBRANCH  35  39
BRANCH  37  43
HETATM   43  C27 UNL     1      15.196  -3.685   1.282  1.00  0.00     0.251 C
HETATM   44  O2  UNL     1      16.387  -3.542   0.863  1.00  0.00    -0.268 OA
HETATM   45  N8  UNL     1      14.834  -2.937   2.423  1.00  0.00    -0.361 N
HETATM   46  C28 UNL     1      15.770  -2.041   3.091  1.00  0.00     0.149 C
ATOM     47  H8  UNL     1      13.888  -3.025   2.792  1.00  0.00     0.162 HD
ENDBRANCH  37  43
ENDBRANCH  31  33
ENDBRANCH   1  31
TORSDOF 9
ENDMDL