MODEL 4
REMARK VINA RESULT: -8.217645511      3.083      4.298
REMARK  9 active torsions:
REMARK  status: ('A' for Active; 'I' for Inactive)
REMARK    1  A    between atoms: C1_2  and  C2_4
REMARK    2  A    between atoms: C8_10  and  C9_11
REMARK    3  A    between atoms: C9_11  and  O2_12
REMARK    4  A    between atoms: C11_15  and  N2_16
REMARK       I    between atoms: N2_16  and  C12_18
REMARK    5  A    between atoms: C12_18  and  C13_20
REMARK    6  A    between atoms: C16_23  and  N3_24
REMARK    7  A    between atoms: C17_26  and  N4_27
REMARK    8  A    between atoms: C17_26  and  C18_32
REMARK    9  A    between atoms: N4_27  and  N5_29
ROOT
HETATM    1  C13 UNL     1       8.217  -7.172   0.726  1.00  0.00     0.043 A
HETATM    2  C14 UNL     1       9.316  -6.536   1.264  1.00  0.00     0.020 A
HETATM    3  C15 UNL     1      10.467  -6.344   0.505  1.00  0.00     0.031 A
HETATM    4  C16 UNL     1      10.541  -6.785  -0.811  1.00  0.00     0.044 A
HETATM    5  C23 UNL     1       9.433  -7.421  -1.349  1.00  0.00     0.002 A
HETATM    6  C24 UNL     1       9.482  -7.831  -2.658  1.00  0.00     0.014 A
HETATM    7  C25 UNL     1       8.411  -8.444  -3.270  1.00  0.00     0.001 A
HETATM    8  C26 UNL     1       7.281  -8.625  -2.490  1.00  0.00     0.001 A
HETATM    9  C27 UNL     1       7.211  -8.220  -1.176  1.00  0.00     0.013 A
HETATM   10  C28 UNL     1       8.291  -7.603  -0.570  1.00  0.00    -0.008 A
ENDROOT
BRANCH   1  11
HETATM   11  C12 UNL     1       7.019  -7.444   1.577  1.00  0.00     0.252 C
HETATM   12  N2  UNL     1       6.714  -8.726   1.991  1.00  0.00    -0.350 N
ATOM     13  H2  UNL     1       7.408  -9.395   1.655  1.00  0.00     0.163 HD
HETATM   14  O3  UNL     1       6.380  -6.434   1.846  1.00  0.00    -0.268 OA
BRANCH  12  15
HETATM   15  C11 UNL     1       5.712  -9.373   2.749  1.00  0.00     0.112 C
HETATM   16  C2  UNL     1       6.104 -10.327   3.831  1.00  0.00     0.060 C
HETATM   17  C3  UNL     1       6.672 -11.625   3.419  1.00  0.00     0.025 C
HETATM   18  C29 UNL     1       4.744 -10.698   4.531  1.00  0.00     0.025 C
HETATM   19  C4  UNL     1       5.766 -12.336   2.444  1.00  0.00    -0.012 C
HETATM   20  C5  UNL     1       4.497 -12.735   3.177  1.00  0.00     0.009 C
HETATM   21  C10 UNL     1       5.452 -11.397   1.329  1.00  0.00     0.018 C
HETATM   22  C6  UNL     1       3.843 -11.454   3.628  1.00  0.00    -0.012 C
HETATM   23  C7  UNL     1       3.489 -10.547   2.486  1.00  0.00     0.018 C
HETATM   24  C8  UNL     1       4.796 -10.099   1.828  1.00  0.00     0.003 C
BRANCH  16  25
HETATM   25  C1  UNL     1       6.812  -9.706   4.987  1.00  0.00     0.242 C
HETATM   26  N1  UNL     1       6.253  -9.856   6.272  1.00  0.00    -0.061 NA
HETATM   27  O1  UNL     1       7.866  -9.079   4.814  1.00  0.00    -0.276 OA
ENDBRANCH  16  25
BRANCH  24  28
HETATM   28  C9  UNL     1       4.371  -9.366   0.587  1.00  0.00     0.175 C
BRANCH  28  29
HETATM   29  O2  UNL     1       3.852  -8.126   1.084  1.00  0.00    -0.400 OA
ATOM     30  H2  UNL     1       3.766  -7.589   0.305  1.00  0.00     0.209 HD
ENDBRANCH  28  29
ENDBRANCH  24  28
ENDBRANCH  12  15
ENDBRANCH   1  11
BRANCH   4  31
HETATM   31  N3  UNL     1      11.742  -6.566  -1.500  1.00  0.00    -0.344 N
HETATM   32  C17 UNL     1      12.834  -6.074  -1.131  1.00  0.00     0.106 C
ATOM     33  H3  UNL     1      11.724  -6.861  -2.476  1.00  0.00     0.167 HD
BRANCH  32  34
HETATM   34  N4  UNL     1      13.932  -5.947  -2.021  1.00  0.00    -0.229 N
ATOM     35  H4  UNL     1      14.595  -5.188  -1.861  1.00  0.00     0.194 HD
BRANCH  34  36
HETATM   36  N5  UNL     1      14.156  -6.800  -3.101  1.00  0.00    -0.038 N
HETATM   37  O4  UNL     1      13.608  -6.593  -4.204  1.00  0.00    -0.516 OA
HETATM   38  O5  UNL     1      14.984  -7.900  -2.997  1.00  0.00    -0.516 OA
ENDBRANCH  34  36
ENDBRANCH  32  34
BRANCH  32  39
HETATM   39  C18 UNL     1      13.125  -5.568   0.270  1.00  0.00     0.061 C
HETATM   40  C19 UNL     1      14.596  -5.585   0.531  1.00  0.00     0.018 C
HETATM   41  C20 UNL     1      14.876  -4.406   1.411  1.00  0.00     0.080 C
HETATM   42  C21 UNL     1      13.720  -3.473   1.266  1.00  0.00     0.244 C
HETATM   43  F1  UNL     1      13.211  -3.179   2.528  1.00  0.00    -0.206 F
HETATM   44  F2  UNL     1      14.115  -2.237   0.743  1.00  0.00    -0.206 F
HETATM   45  C22 UNL     1      12.713  -4.129   0.376  1.00  0.00     0.091 C
ENDBRANCH  32  39
ENDBRANCH   4  31
TORSDOF 9
ENDMDL