MODEL 1
REMARK VINA RESULT: -8.226382681      0.000      0.000
REMARK  12 active torsions:
REMARK  status: ('A' for Active; 'I' for Inactive)
REMARK    1  A    between atoms: C2_2  and  C4_4
REMARK    2  A    between atoms: C4_4  and  C5_5
REMARK    3  A    between atoms: C5_5  and  O1_6
REMARK    4  A    between atoms: C5_5  and  C6_8
REMARK    5  A    between atoms: N1_10  and  C8_11
REMARK    6  A    between atoms: C10_13  and  O2_14
REMARK    7  A    between atoms: C16_22  and  O3_23
REMARK    8  A    between atoms: C21_29  and  C22_30
REMARK    9  A    between atoms: C25_33  and  C26_34
REMARK       I    between atoms: C26_34  and  N2_36
REMARK   10  A    between atoms: N2_36  and  C27_38
REMARK   11  A    between atoms: C27_38  and  C28_39
REMARK   12  A    between atoms: C28_39  and  N3_40
ROOT
HETATM    1  C8  UNL     1      12.298  -7.429  -1.540  1.00  0.00     0.128 C
HETATM    2  C9  UNL     1      10.959  -7.151  -0.907  1.00  0.00     0.063 C
HETATM    3  C10 UNL     1       9.924  -7.107  -2.010  1.00  0.00     0.162 C
HETATM    4  C11 UNL     1      10.758  -6.962  -3.200  1.00  0.00     0.150 C
HETATM    5  F1  UNL     1      10.992  -5.528  -3.104  1.00  0.00    -0.238 F
HETATM    6  C12 UNL     1      10.159  -7.011  -4.561  1.00  0.00    -0.000 C
HETATM    7  C13 UNL     1       9.744  -8.319  -5.103  1.00  0.00     0.019 C
HETATM    8  C14 UNL     1       8.845  -6.214  -4.419  1.00  0.00     0.015 C
HETATM    9  C15 UNL     1       8.230  -5.842  -5.720  1.00  0.00     0.032 C
HETATM   10  C16 UNL     1       9.199  -5.133  -6.640  1.00  0.00     0.118 C
HETATM   11  C17 UNL     1      10.502  -4.938  -5.951  1.00  0.00     0.037 C
HETATM   12  C18 UNL     1      11.083  -6.298  -5.497  1.00  0.00    -0.001 C
HETATM   13  C19 UNL     1      12.503  -6.157  -5.139  1.00  0.00     0.007 C
HETATM   14  C20 UNL     1      12.997  -6.510  -3.799  1.00  0.00     0.020 C
HETATM   15  C21 UNL     1      12.126  -7.522  -3.030  1.00  0.00     0.049 C
ENDROOT
BRANCH  15  16
HETATM   16  C22 UNL     1      12.421  -8.880  -3.519  1.00  0.00    -0.044 A
HETATM   17  C23 UNL     1      11.762  -9.966  -3.002  1.00  0.00     0.009 A
HETATM   18  C24 UNL     1      12.038 -11.233  -3.445  1.00  0.00     0.017 A
HETATM   19  C25 UNL     1      12.998 -11.466  -4.440  1.00  0.00     0.032 A
HETATM   20  C29 UNL     1      13.666 -10.391  -4.967  1.00  0.00     0.017 A
HETATM   21  C30 UNL     1      13.361  -9.115  -4.493  1.00  0.00     0.009 A
BRANCH  19  22
HETATM   22  C26 UNL     1      13.279 -12.803  -4.911  1.00  0.00     0.251 C
HETATM   23  O4  UNL     1      14.432 -13.074  -5.321  1.00  0.00    -0.268 OA
HETATM   24  N2  UNL     1      12.293 -13.807  -4.921  1.00  0.00    -0.355 N
ATOM     25  H2  UNL     1      11.355 -13.583  -4.590  1.00  0.00     0.162 HD
BRANCH  24  26
HETATM   26  C27 UNL     1      12.576 -15.163  -5.392  1.00  0.00     0.150 C
BRANCH  26  27
HETATM   27  C28 UNL     1      11.493 -16.112  -4.911  1.00  0.00     0.249 C
BRANCH  27  28
HETATM   28  N3  UNL     1      10.709 -15.522  -3.846  1.00  0.00    -0.078 N
ATOM     29  H33 UNL     1      11.288 -15.293  -3.038  1.00  0.00     0.274 HD
ATOM     30  H32 UNL     1      10.398 -14.581  -4.089  1.00  0.00     0.274 HD
ATOM     31  H31 UNL     1       9.925 -16.120  -3.587  1.00  0.00     0.274 HD
ENDBRANCH  27  28
ENDBRANCH  26  27
ENDBRANCH  24  26
ENDBRANCH  19  22
ENDBRANCH  15  16
BRANCH   1  32
HETATM   32  N1  UNL     1      13.358  -6.629  -1.044  1.00  0.00    -0.281 N
HETATM   33  C7  UNL     1      13.368  -5.468  -0.390  1.00  0.00     0.145 A
HETATM   34  C6  UNL     1      14.684  -5.090  -0.094  1.00  0.00     0.095 A
HETATM   35  N5  UNL     1      15.418  -6.082  -0.602  1.00  0.00    -0.282 N
HETATM   36  N4  UNL     1      14.655  -6.963  -1.147  1.00  0.00    -0.240 N
ATOM     37  H5  UNL     1      16.436  -6.135  -0.564  1.00  0.00     0.188 HD
ATOM     38  H4  UNL     1      14.993  -7.811  -1.602  1.00  0.00     0.208 HD
BRANCH  34  39
HETATM   39  C5  UNL     1      15.088  -3.898   0.607  1.00  0.00     0.073 C
BRANCH  39  40
HETATM   40  C4  UNL     1      14.222  -2.927   1.243  1.00  0.00     0.070 C
BRANCH  40  41
HETATM   41  C2  UNL     1      14.211  -2.850   2.723  1.00  0.00    -0.017 C
HETATM   42  C1  UNL     1      14.827  -1.640   3.330  1.00  0.00     0.010 C
HETATM   43  C3  UNL     1      12.732  -2.859   3.159  1.00  0.00     0.010 C
ENDBRANCH  40  41
ENDBRANCH  39  40
BRANCH  39  44
HETATM   44  O1  UNL     1      16.366  -3.666   0.675  1.00  0.00    -0.363 OA
ATOM     45  H1  UNL     1      16.906  -4.369   1.015  1.00  0.00     0.217 HD
ENDBRANCH  39  44
ENDBRANCH  34  39
ENDBRANCH   1  32
BRANCH   3  46
HETATM   46  O2  UNL     1       8.955  -8.070  -1.948  1.00  0.00    -0.392 OA
ATOM     47  H2  UNL     1       8.203  -7.860  -1.406  1.00  0.00     0.210 HD
ENDBRANCH   3  46
BRANCH  10  48
HETATM   48  O3  UNL     1       9.394  -5.931  -7.764  1.00  0.00    -0.396 OA
ATOM     49  H3  UNL     1      10.179  -5.631  -8.208  1.00  0.00     0.210 HD
ENDBRANCH  10  48
TORSDOF 12
ENDMDL