MODEL 4
REMARK VINA RESULT: -7.207392829      1.316      1.954
REMARK  11 active torsions:
REMARK  status: ('A' for Active; 'I' for Inactive)
REMARK    1  A    between atoms: C5_8  and  N2_9
REMARK    2  A    between atoms: C7_13  and  N4_14
REMARK    3  A    between atoms: C10_22  and  C11_23
REMARK    4  A    between atoms: C11_23  and  S1_24
REMARK    5  A    between atoms: S1_24  and  C12_25
REMARK    6  A    between atoms: N6_29  and  C16_30
REMARK    7  A    between atoms: C18_32  and  C19_33
REMARK    8  A    between atoms: C19_33  and  O2_34
REMARK    9  A    between atoms: O2_34  and  C20_35
REMARK   10  A    between atoms: C20_35  and  C21_37
REMARK   11  A    between atoms: C25_41  and  C26_42
ROOT
HETATM    1  C1  UNL     1       6.074 -10.136   0.692  1.00  0.00     0.012 C
HETATM    2  C2  UNL     1       6.692  -9.124   0.795  1.00  0.00    -0.111 C
HETATM    3  C3  UNL     1       7.433  -7.895   0.896  1.00  0.00     0.093 C
HETATM    4  C4  UNL     1       8.534  -7.987   1.944  1.00  0.00     0.252 C
HETATM    5  N1  UNL     1       9.665  -7.291   1.416  1.00  0.00    -0.053 N
ATOM      6  H11 UNL     1      10.456  -7.906   1.230  1.00  0.00     0.279 HD
ATOM      7  H12 UNL     1      10.117  -6.692   2.105  1.00  0.00     0.279 HD
HETATM    8  C5  UNL     1       9.227  -6.558   0.228  1.00  0.00     0.290 C
HETATM    9  C27 UNL     1       8.273  -7.614  -0.343  1.00  0.00     0.073 C
ENDROOT
BRANCH   8  10
HETATM   10  N2  UNL     1      10.263  -6.243  -0.684  1.00  0.00    -0.311 N
HETATM   11  C6  UNL     1      11.448  -5.584  -0.226  1.00  0.00     0.136 A
HETATM   12  N3  UNL     1      11.408  -4.674   0.743  1.00  0.00    -0.176 N
HETATM   13  C9  UNL     1      12.683  -5.904  -0.809  1.00  0.00     0.078 A
HETATM   14  C7  UNL     1      12.486  -4.042   1.198  1.00  0.00     0.680 A
ATOM     15  H3  UNL     1      10.503  -4.448   1.158  1.00  0.00     0.186 HD
HETATM   16  N5  UNL     1      13.665  -4.342   0.649  1.00  0.00    -0.156 N
HETATM   17  C8  UNL     1      13.801  -5.265  -0.353  1.00  0.00     0.271 A
ATOM     18  H5  UNL     1      14.499  -3.865   0.990  1.00  0.00     0.187 HD
HETATM   19  O1  UNL     1      14.979  -5.449  -0.777  1.00  0.00    -0.267 OA
HETATM   20  C10 UNL     1      12.737  -6.904  -1.880  1.00  0.00     0.138 C
HETATM   21  N6  UNL     1      11.458  -7.164  -2.519  1.00  0.00    -0.349 N
HETATM   22  C25 UNL     1      10.207  -6.537  -2.125  1.00  0.00     0.256 C
BRANCH  14  23
HETATM   23  N4  UNL     1      12.376  -3.166   2.147  1.00  0.00    -0.234 N
ATOM     24  H42 UNL     1      12.412  -3.431   3.132  1.00  0.00     0.174 HD
ATOM     25  H41 UNL     1      12.248  -2.179   1.924  1.00  0.00     0.174 HD
ENDBRANCH  14  23
BRANCH  20  26
HETATM   26  C11 UNL     1      13.879  -6.781  -2.828  1.00  0.00     0.105 C
BRANCH  26  27
HETATM   27  S1  UNL     1      14.939  -8.248  -2.905  1.00  0.00    -0.158 SA
BRANCH  27  28
HETATM   28  C12 UNL     1      15.365  -8.637  -4.602  1.00  0.00    -0.003 C
HETATM   29  C13 UNL     1      14.913  -7.556  -5.566  1.00  0.00     0.026 C
HETATM   30  C14 UNL     1      14.727  -9.965  -5.013  1.00  0.00     0.026 C
HETATM   31  C15 UNL     1      16.859  -8.799  -4.767  1.00  0.00     0.026 C
ENDBRANCH  27  28
ENDBRANCH  26  27
ENDBRANCH  20  26
BRANCH  21  32
HETATM   32  C16 UNL     1      11.381  -8.113  -3.558  1.00  0.00     0.004 C
HETATM   33  C17 UNL     1      11.392  -9.557  -3.107  1.00  0.00     0.068 C
HETATM   34  C18 UNL     1      11.301  -7.909  -4.839  1.00  0.00     0.024 C
BRANCH  34  35
HETATM   35  C19 UNL     1      11.223  -9.044  -5.828  1.00  0.00     0.208 C
BRANCH  35  36
HETATM   36  O2  UNL     1      10.734  -8.594  -7.064  1.00  0.00    -0.314 OA
BRANCH  36  37
HETATM   37  C20 UNL     1       9.374  -8.333  -7.241  1.00  0.00     0.283 C
HETATM   38  O3  UNL     1       8.666  -9.308  -7.522  1.00  0.00    -0.260 OA
BRANCH  37  39
HETATM   39  C21 UNL     1       8.814  -7.016  -7.109  1.00  0.00     0.084 C
HETATM   40  C22 UNL     1       8.079  -6.619  -6.104  1.00  0.00    -0.082 C
HETATM   41  C23 UNL     1       7.763  -7.532  -5.000  1.00  0.00     0.043 C
HETATM   42  C24 UNL     1       7.550  -5.201  -6.086  1.00  0.00     0.043 C
ENDBRANCH  37  39
ENDBRANCH  36  37
ENDBRANCH  35  36
ENDBRANCH  34  35
ENDBRANCH  21  32
BRANCH  22  43
HETATM   43  C26 UNL     1       9.876  -5.261  -2.804  1.00  0.00     0.395 C
HETATM   44  F1  UNL     1       8.540  -5.032  -2.908  1.00  0.00    -0.210 F
HETATM   45  F2  UNL     1      10.557  -5.038  -3.986  1.00  0.00    -0.210 F
ENDBRANCH  22  43
ENDBRANCH   8  10
TORSDOF 11
ENDMDL