MODEL 4
REMARK VINA RESULT: -7.316629949      2.343      4.678
REMARK  11 active torsions:
REMARK  status: ('A' for Active; 'I' for Inactive)
REMARK    1  A    between atoms: C4_4  and  O1_5
REMARK    2  A    between atoms: O1_5  and  C5_6
REMARK    3  A    between atoms: C10_13  and  O2_14
REMARK    4  A    between atoms: O2_14  and  C11_15
REMARK    5  A    between atoms: C11_15  and  C12_16
REMARK    6  A    between atoms: C12_16  and  O3_17
REMARK    7  A    between atoms: C13_19  and  C14_20
REMARK    8  A    between atoms: C15_21  and  C16_22
REMARK    9  A    between atoms: C18_24  and  O4_25
REMARK   10  A    between atoms: C20_28  and  O5_29
REMARK   11  A    between atoms: C21_31  and  O6_32
ROOT
HETATM    1  C1  UNL     1       7.442  -7.528  -0.416  1.00  0.00     0.056 C
HETATM    2  C2  UNL     1       8.832  -6.981  -0.284  1.00  0.00    -0.018 A
HETATM    3  C3  UNL     1       9.724  -6.688  -1.282  1.00  0.00     0.052 A
HETATM    4  C4  UNL     1      10.917  -6.206  -0.926  1.00  0.00     0.094 A
HETATM    5  C13 UNL     1      11.159  -6.043   0.410  1.00  0.00     0.039 A
HETATM    6  S1  UNL     1       9.696  -6.572   1.126  1.00  0.00    -0.092 SA
ENDROOT
BRANCH   4   7
HETATM    7  O1  UNL     1      11.930  -5.861  -1.853  1.00  0.00    -0.305 OA
BRANCH   7   8
HETATM    8  C5  UNL     1      12.338  -6.731  -2.859  1.00  0.00     0.126 A
HETATM    9  C6  UNL     1      11.735  -6.735  -4.094  1.00  0.00     0.049 A
HETATM   10 BR1  UNL     1      10.294  -5.523  -4.473  1.00  0.00    -0.048 Br
HETATM   11  C7  UNL     1      12.178  -7.617  -5.054  1.00  0.00     0.041 A
HETATM   12  C8  UNL     1      13.198  -8.485  -4.802  1.00  0.00     0.015 A
HETATM   13 BR2  UNL     1      13.790  -9.695  -6.149  1.00  0.00    -0.051 Br
HETATM   14  C9  UNL     1      13.784  -8.453  -3.541  1.00  0.00     0.058 A
HETATM   15  C10 UNL     1      13.398  -7.600  -2.532  1.00  0.00     0.105 A
BRANCH  15  16
HETATM   16  O2  UNL     1      13.905  -7.510  -1.318  1.00  0.00    -0.346 OA
BRANCH  16  17
HETATM   17  C11 UNL     1      14.968  -7.305  -0.548  1.00  0.00     0.201 C
BRANCH  17  18
HETATM   18  C12 UNL     1      15.370  -5.870  -0.404  1.00  0.00     0.190 C
BRANCH  18  19
HETATM   19  O3  UNL     1      14.895  -4.991  -1.317  1.00  0.00    -0.399 OA
ATOM     20  H3  UNL     1      15.234  -5.049  -2.202  1.00  0.00     0.209 HD
ENDBRANCH  18  19
ENDBRANCH  17  18
ENDBRANCH  16  17
ENDBRANCH  15  16
ENDBRANCH   7   8
ENDBRANCH   4   7
BRANCH   5  21
HETATM   21  C14 UNL     1      12.348  -5.545   1.091  1.00  0.00     0.018 C
HETATM   22  C15 UNL     1      12.374  -4.303   1.511  1.00  0.00    -0.018 C
BRANCH  22  23
HETATM   23  C16 UNL     1      13.566  -3.730   2.218  1.00  0.00     0.042 C
HETATM   24  C17 UNL     1      14.137  -2.673   1.320  1.00  0.00     0.043 C
HETATM   25  C18 UNL     1      15.245  -1.955   2.021  1.00  0.00     0.121 C
HETATM   26  C19 UNL     1      14.717  -1.313   3.268  1.00  0.00     0.066 C
HETATM   27  C20 UNL     1      14.017  -2.243   4.195  1.00  0.00     0.150 C
HETATM   28  C21 UNL     1      13.115  -3.232   3.543  1.00  0.00     0.154 C
BRANCH  25  29
HETATM   29  O4  UNL     1      16.369  -2.731   2.221  1.00  0.00    -0.395 OA
ATOM     30  H4  UNL     1      17.072  -2.276   2.669  1.00  0.00     0.210 HD
ENDBRANCH  25  29
BRANCH  27  31
HETATM   31  O5  UNL     1      14.950  -2.849   5.034  1.00  0.00    -0.393 OA
ATOM     32  H5  UNL     1      14.704  -2.698   5.940  1.00  0.00     0.210 HD
ENDBRANCH  27  31
BRANCH  28  33
HETATM   33  O6  UNL     1      11.783  -2.778   3.471  1.00  0.00    -0.392 OA
ATOM     34  H6  UNL     1      11.387  -2.775   4.334  1.00  0.00     0.210 HD
ENDBRANCH  28  33
ENDBRANCH  22  23
ENDBRANCH   5  21
TORSDOF 11
ENDMDL