MODEL 3
REMARK VINA RESULT: -9.173889754      1.612      2.201
REMARK  10 active torsions:
REMARK  status: ('A' for Active; 'I' for Inactive)
REMARK    1  A    between atoms: O1_1  and  C1_3
REMARK    2  A    between atoms: C1_3  and  C2_4
REMARK    3  A    between atoms: C2_4  and  C3_5
REMARK    4  A    between atoms: C2_4  and  N1_12
REMARK    5  A    between atoms: C3_5  and  C4_6
REMARK    6  A    between atoms: C11_14  and  C12_15
REMARK    7  A    between atoms: N2_19  and  C16_21
REMARK    8  A    between atoms: C16_21  and  N3_23
REMARK    9  A    between atoms: N8_38  and  C22_39
REMARK   10  A    between atoms: C22_39  and  C23_40
ROOT
HETATM    1  C12 UNL     1      12.378  -6.432  -2.532  1.00  0.00     0.050 A
HETATM    2  C13 UNL     1      12.908  -6.841  -3.784  1.00  0.00     0.050 A
HETATM    3  C14 UNL     1      11.905  -6.831  -4.713  1.00  0.00     0.055 A
HETATM    4  C15 UNL     1      11.876  -7.148  -6.077  1.00  0.00     0.122 A
HETATM    5  N2  UNL     1      12.844  -7.491  -6.728  1.00  0.00    -0.318 N
ATOM      6  H2  UNL     1      12.429  -7.632  -7.649  1.00  0.00     0.170 HD
HETATM    7  N6  UNL     1      10.656  -7.022  -6.669  1.00  0.00    -0.338 N
ATOM      8  H6  UNL     1      10.564  -7.237  -7.662  1.00  0.00     0.168 HD
HETATM    9  C20 UNL     1       9.568  -6.622  -5.988  1.00  0.00     0.183 A
HETATM   10  N7  UNL     1       9.635  -6.321  -4.665  1.00  0.00    -0.338 N
ATOM     11  H7  UNL     1       8.802  -6.018  -4.162  1.00  0.00     0.168 HD
HETATM   12  C21 UNL     1      10.796  -6.427  -4.038  1.00  0.00     0.123 A
HETATM   13  N8  UNL     1      11.096  -6.186  -2.704  1.00  0.00    -0.331 N
ENDROOT
BRANCH   1  14
HETATM   14  C11 UNL     1      13.267  -6.326  -1.379  1.00  0.00     0.025 A
HETATM   15  C10 UNL     1      13.765  -5.129  -0.844  1.00  0.00     0.125 A
HETATM   16  N1  UNL     1      14.524  -5.422   0.224  1.00  0.00    -0.296 N
HETATM   17  N9  UNL     1      14.564  -6.713   0.431  1.00  0.00    -0.309 N
HETATM   18  C27 UNL     1      13.791  -7.276  -0.552  1.00  0.00     0.122 A
ATOM     19  H9  UNL     1      15.067  -7.201   1.172  1.00  0.00     0.186 HD
BRANCH  16  20
HETATM   20  C2  UNL     1      15.195  -4.412   1.015  1.00  0.00     0.135 C
BRANCH  20  21
HETATM   21  C1  UNL     1      16.618  -4.206   0.533  1.00  0.00     0.191 C
BRANCH  21  22
HETATM   22  O1  UNL     1      17.336  -3.542   1.549  1.00  0.00    -0.399 OA
ATOM     23  H1  UNL     1      18.264  -3.640   1.369  1.00  0.00     0.209 HD
ENDBRANCH  21  22
ENDBRANCH  20  21
BRANCH  20  24
HETATM   24  C3  UNL     1      14.403  -3.128   1.005  1.00  0.00     0.068 C
BRANCH  24  25
HETATM   25  C4  UNL     1      13.902  -2.737   2.318  1.00  0.00    -0.056 A
HETATM   26  C5  UNL     1      12.648  -3.139   2.720  1.00  0.00     0.007 A
HETATM   27  C6  UNL     1      12.122  -2.791   3.958  1.00  0.00     0.001 A
HETATM   28  C7  UNL     1      12.885  -2.023   4.802  1.00  0.00     0.000 A
HETATM   29  C8  UNL     1      14.132  -1.619   4.409  1.00  0.00     0.001 A
HETATM   30  C9  UNL     1      14.649  -1.967   3.180  1.00  0.00     0.007 A
ENDBRANCH  24  25
ENDBRANCH  20  24
ENDBRANCH  16  20
ENDBRANCH   1  14
BRANCH  13  31
HETATM   31  C22 UNL     1      10.089  -5.800  -1.752  1.00  0.00     0.136 C
BRANCH  31  32
HETATM   32  C23 UNL     1       9.787  -6.810  -0.707  1.00  0.00     0.015 C
HETATM   33  C24 UNL     1       8.263  -6.771  -0.425  1.00  0.00     0.085 C
HETATM   34  C25 UNL     1       8.562  -7.046   1.061  1.00  0.00     0.244 C
HETATM   35  F1  UNL     1       7.874  -6.230   1.921  1.00  0.00    -0.206 F
HETATM   36  F2  UNL     1       8.544  -8.377   1.359  1.00  0.00    -0.206 F
HETATM   37  C26 UNL     1       9.963  -6.514   0.743  1.00  0.00     0.085 C
ENDBRANCH  31  32
ENDBRANCH  13  31
BRANCH   5  38
HETATM   38  C16 UNL     1      14.100  -7.789  -6.960  1.00  0.00     0.192 C
HETATM   39  S1  UNL     1      14.882  -9.037  -6.197  1.00  0.00    -0.040 SA
BRANCH  38  40
HETATM   40  N3  UNL     1      14.885  -7.009  -7.900  1.00  0.00    -0.166 N
HETATM   41  C17 UNL     1      14.689  -7.289  -9.148  1.00  0.00     0.684 A
HETATM   42  N4  UNL     1      13.851  -8.207  -9.658  1.00  0.00    -0.200 N
HETATM   43  N5  UNL     1      15.318  -6.675 -10.194  1.00  0.00    -0.200 N
HETATM   44  C18 UNL     1      13.923  -8.202 -10.984  1.00  0.00     0.123 A
ATOM     45  H4  UNL     1      13.248  -8.819  -9.108  1.00  0.00     0.183 HD
HETATM   46  C19 UNL     1      14.841  -7.242 -11.326  1.00  0.00     0.123 A
ATOM     47  H5  UNL     1      16.014  -5.932 -10.134  1.00  0.00     0.183 HD
ATOM     48  H3  UNL     1      15.545  -6.293  -7.598  1.00  0.00     0.186 HD
ENDBRANCH  38  40
ENDBRANCH   5  38
TORSDOF 10
ENDMDL