MODEL 3
REMARK VINA RESULT: -7.739145616      5.138      6.944
REMARK  7 active torsions:
REMARK  status: ('A' for Active; 'I' for Inactive)
REMARK       I    between atoms: N1_2  and  C2_4
REMARK    1  A    between atoms: C2_4  and  C3_6
REMARK    2  A    between atoms: C5_9  and  N2_10
REMARK    3  A    between atoms: C6_13  and  N3_14
REMARK    4  A    between atoms: N3_14  and  C7_16
REMARK    5  A    between atoms: C7_16  and  C8_17
REMARK    6  A    between atoms: C12_21  and  C13_22
REMARK    7  A    between atoms: C18_31  and  C19_32
ROOT
HETATM    1  C3  UNL     1       6.640  -8.792  -1.894  1.00  0.00     0.161 A
HETATM    2  O2  UNL     1       7.814  -8.183  -2.051  1.00  0.00    -0.300 OA
HETATM    3  C4  UNL     1       8.328  -7.803  -0.941  1.00  0.00     0.124 A
HETATM    4  C5  UNL     1       9.531  -7.139  -0.683  1.00  0.00     0.165 A
HETATM    5  C6  UNL     1       9.827  -6.857   0.630  1.00  0.00     0.083 A
HETATM    6  C15 UNL     1       8.944  -7.230   1.640  1.00  0.00     0.058 A
HETATM    7 BR1  UNL     1       9.373  -6.832   3.435  1.00  0.00    -0.047 Br
HETATM    8  C16 UNL     1       7.772  -7.881   1.356  1.00  0.00     0.044 A
HETATM    9 BR2  UNL     1       6.550  -8.396   2.737  1.00  0.00    -0.049 Br
HETATM   10  C17 UNL     1       7.462  -8.170   0.058  1.00  0.00     0.039 A
HETATM   11  C18 UNL     1       6.378  -8.804  -0.545  1.00  0.00     0.094 A
ENDROOT
BRANCH   5  12
HETATM   12  N3  UNL     1      11.044  -6.183   0.976  1.00  0.00    -0.382 N
ATOM     13  H3  UNL     1      11.747  -6.702   1.502  1.00  0.00     0.160 HD
BRANCH  12  14
HETATM   14  C7  UNL     1      11.328  -4.830   0.626  1.00  0.00     0.158 C
BRANCH  14  15
HETATM   15  C8  UNL     1      12.766  -4.492   0.766  1.00  0.00    -0.040 A
HETATM   16  C9  UNL     1      13.707  -5.107  -0.048  1.00  0.00     0.009 A
HETATM   17  C10 UNL     1      15.039  -4.806   0.062  1.00  0.00     0.002 A
HETATM   18  C11 UNL     1      15.490  -3.887   0.980  1.00  0.00     0.018 A
HETATM   19  C12 UNL     1      14.586  -3.256   1.806  1.00  0.00     0.041 A
HETATM   20  C14 UNL     1      13.234  -3.575   1.680  1.00  0.00     0.027 A
BRANCH  19  21
HETATM   21  C13 UNL     1      15.034  -2.286   2.776  1.00  0.00     0.209 C
HETATM   22  O5  UNL     1      16.246  -2.056   2.902  1.00  0.00    -0.644 OA
HETATM   23  O6  UNL     1      14.151  -1.579   3.595  1.00  0.00    -0.644 OA
ENDBRANCH  19  21
ENDBRANCH  14  15
ENDBRANCH  12  14
ENDBRANCH   5  12
BRANCH   4  24
HETATM   24  N2  UNL     1      10.370  -6.787  -1.767  1.00  0.00    -0.110 N
HETATM   25  O3  UNL     1      11.494  -7.338  -1.897  1.00  0.00    -0.532 OA
HETATM   26  O4  UNL     1      10.027  -5.856  -2.706  1.00  0.00    -0.532 OA
ENDBRANCH   4  24
BRANCH   1  27
HETATM   27  C2  UNL     1       5.808  -9.333  -2.939  1.00  0.00     0.276 C
HETATM   28  N1  UNL     1       4.560  -8.856  -3.350  1.00  0.00    -0.360 N
HETATM   29  C1  UNL     1       3.870  -9.566  -4.450  1.00  0.00     0.149 C
ATOM     30  H1  UNL     1       4.136  -8.043  -2.904  1.00  0.00     0.162 HD
HETATM   31  O1  UNL     1       6.279 -10.359  -3.542  1.00  0.00    -0.265 OA
ENDBRANCH   1  27
BRANCH  11  32
HETATM   32  C19 UNL     1       5.280  -9.319   0.226  1.00  0.00     0.213 C
HETATM   33  O7  UNL     1       5.338 -10.525   0.650  1.00  0.00    -0.644 OA
HETATM   34  O8  UNL     1       4.139  -8.603   0.555  1.00  0.00    -0.644 OA
ENDBRANCH  11  32
TORSDOF 7
ENDMDL