MODEL 3
REMARK VINA RESULT: -8.153745927      1.739      2.557
REMARK  9 active torsions:
REMARK  status: ('A' for Active; 'I' for Inactive)
REMARK    1  A    between atoms: C10_12  and  O1_13
REMARK    2  A    between atoms: C12_16  and  O2_17
REMARK    3  A    between atoms: O2_17  and  C13_18
REMARK    4  A    between atoms: C13_18  and  C14_19
REMARK    5  A    between atoms: C14_19  and  N1_20
REMARK       I    between atoms: N1_20  and  C15_22
REMARK    6  A    between atoms: C15_22  and  C16_24
REMARK    7  A    between atoms: C20_28  and  O4_29
REMARK    8  A    between atoms: C20_28  and  C21_31
REMARK    9  A    between atoms: C21_31  and  C22_33
ROOT
HETATM    1  C1  UNL     1       5.530 -12.341   1.246  1.00  0.00     0.015 C
HETATM    2  C2  UNL     1       5.625 -11.321   2.395  1.00  0.00    -0.038 C
HETATM    3  C3  UNL     1       6.055 -12.147   3.584  1.00  0.00     0.015 C
HETATM    4  C4  UNL     1       4.263 -10.709   2.531  1.00  0.00     0.061 C
HETATM    5  C5  UNL     1       4.234  -9.241   2.365  1.00  0.00     0.031 C
HETATM    6 CL1  UNL     1       2.650  -8.519   2.031  1.00  0.00    -0.087 Cl
HETATM    7  C6  UNL     1       5.265  -8.425   2.441  1.00  0.00     0.043 C
HETATM    8 CL2  UNL     1       5.108  -6.706   2.224  1.00  0.00    -0.086 Cl
HETATM    9  C7  UNL     1       6.609  -9.005   2.740  1.00  0.00     0.030 C
HETATM   10  C8  UNL     1       6.615  -9.166   4.224  1.00  0.00     0.027 C
HETATM   11  C9  UNL     1       7.691  -8.145   2.202  1.00  0.00    -0.004 A
HETATM   12  C10 UNL     1       8.586  -7.439   2.971  1.00  0.00     0.076 A
HETATM   13  C11 UNL     1       9.577  -6.641   2.399  1.00  0.00     0.073 A
HETATM   14  C12 UNL     1       9.697  -6.533   1.029  1.00  0.00     0.072 A
HETATM   15  C23 UNL     1       8.791  -7.248   0.282  1.00  0.00     0.044 A
HETATM   16  C24 UNL     1       7.799  -8.045   0.830  1.00  0.00    -0.045 A
HETATM   17  C25 UNL     1       6.875  -8.793  -0.056  1.00  0.00     0.040 C
HETATM   18  C26 UNL     1       6.415 -10.081   0.501  1.00  0.00     0.011 C
HETATM   19  C27 UNL     1       6.662 -10.304   1.975  1.00  0.00     0.012 C
ENDROOT
BRANCH  14  20
HETATM   20  O2  UNL     1      10.683  -5.739   0.452  1.00  0.00    -0.349 OA
BRANCH  20  21
HETATM   21  C13 UNL     1      11.948  -6.279   0.252  1.00  0.00     0.195 C
BRANCH  21  22
HETATM   22  C14 UNL     1      12.435  -6.415  -1.140  1.00  0.00     0.149 C
BRANCH  22  23
HETATM   23  N1  UNL     1      11.446  -6.168  -2.119  1.00  0.00    -0.359 N
HETATM   24  C15 UNL     1      10.749  -7.114  -2.858  1.00  0.00     0.225 C
HETATM   25  O3  UNL     1      10.948  -8.342  -2.736  1.00  0.00    -0.273 OA
ATOM     26  H1  UNL     1      11.220  -5.190  -2.302  1.00  0.00     0.162 HD
BRANCH  24  27
HETATM   27  C16 UNL     1       9.700  -6.734  -3.863  1.00  0.00     0.120 C
HETATM   28  C17 UNL     1       8.813  -5.726  -3.208  1.00  0.00     0.018 C
HETATM   29  C18 UNL     1       8.724  -4.545  -4.148  1.00  0.00     0.004 C
HETATM   30  C19 UNL     1       9.928  -4.646  -5.050  1.00  0.00     0.047 C
HETATM   31  C20 UNL     1      10.312  -6.119  -5.087  1.00  0.00     0.141 C
BRANCH  31  32
HETATM   32  O4  UNL     1      11.696  -6.206  -5.097  1.00  0.00    -0.381 OA
ATOM     33  H4  UNL     1      12.118  -5.398  -4.833  1.00  0.00     0.211 HD
ENDBRANCH  31  32
BRANCH  31  34
HETATM   34  C21 UNL     1       9.748  -6.777  -6.293  1.00  0.00     0.259 C
HETATM   35  O5  UNL     1       9.097  -7.844  -6.120  1.00  0.00    -0.282 OA
BRANCH  34  36
HETATM   36  C22 UNL     1       9.935  -6.221  -7.612  1.00  0.00     0.250 C
HETATM   37  O6  UNL     1       8.952  -5.925  -8.315  1.00  0.00    -0.642 OA
HETATM   38  O7  UNL     1      11.208  -6.016  -8.092  1.00  0.00    -0.642 OA
ENDBRANCH  34  36
ENDBRANCH  31  34
ENDBRANCH  24  27
ENDBRANCH  22  23
ENDBRANCH  21  22
ENDBRANCH  20  21
ENDBRANCH  14  20
BRANCH  12  39
HETATM   39  O1  UNL     1       8.565  -7.471   4.343  1.00  0.00    -0.360 OA
ATOM     40  H1  UNL     1       8.668  -6.689   4.874  1.00  0.00     0.217 HD
ENDBRANCH  12  39
TORSDOF 9
ENDMDL