MODEL 5
REMARK VINA RESULT: -7.328112481      6.513      9.277
REMARK  9 active torsions:
REMARK  status: ('A' for Active; 'I' for Inactive)
REMARK    1  A    between atoms: N1_1  and  C1_4
REMARK    2  A    between atoms: C2_5  and  C3_6
REMARK       I    between atoms: C3_6  and  N2_8
REMARK    3  A    between atoms: N2_8  and  C4_10
REMARK    4  A    between atoms: C4_10  and  C5_11
REMARK    5  A    between atoms: N4_20  and  C11_21
REMARK    6  A    between atoms: C11_21  and  C12_22
REMARK    7  A    between atoms: C12_22  and  O2_23
REMARK    8  A    between atoms: C14_26  and  N5_27
REMARK    9  A    between atoms: C20_34  and  N6_35
ROOT
HETATM    1  C1  UNL     1      13.899  -6.896  -3.005  1.00  0.00     0.055 A
HETATM    2  C2  UNL     1      12.811  -6.506  -2.271  1.00  0.00     0.074 A
HETATM    3  C10 UNL     1      11.663  -6.328  -2.941  1.00  0.00     0.116 A
HETATM    4  N4  UNL     1      11.447  -6.497  -4.304  1.00  0.00    -0.331 N
HETATM    5  C13 UNL     1      12.494  -6.880  -5.037  1.00  0.00     0.080 A
HETATM    6  C14 UNL     1      12.421  -7.028  -6.402  1.00  0.00     0.085 A
HETATM    7  C20 UNL     1      13.617  -7.359  -7.087  1.00  0.00     0.060 A
HETATM    8  C26 UNL     1      14.795  -7.539  -6.403  1.00  0.00     0.033 A
HETATM    9  C27 UNL     1      14.881  -7.409  -5.074  1.00  0.00     0.018 A
HETATM   10  C28 UNL     1      13.751  -7.078  -4.357  1.00  0.00     0.021 A
ENDROOT
BRANCH   2  11
HETATM   11  C3  UNL     1      12.920  -6.302  -0.844  1.00  0.00     0.255 C
HETATM   12  O1  UNL     1      13.172  -7.283  -0.117  1.00  0.00    -0.268 OA
HETATM   13  N2  UNL     1      12.737  -5.004  -0.318  1.00  0.00    -0.356 N
ATOM     14  H2  UNL     1      12.525  -4.226  -0.944  1.00  0.00     0.162 HD
BRANCH  13  15
HETATM   15  C4  UNL     1      12.847  -4.777   1.099  1.00  0.00     0.127 C
BRANCH  15  16
HETATM   16  C5  UNL     1      12.691  -3.322   1.452  1.00  0.00     0.006 C
HETATM   17  C6  UNL     1      12.687  -3.165   2.960  1.00  0.00     0.034 C
HETATM   18  C7  UNL     1      13.915  -2.437   3.400  1.00  0.00     0.232 C
HETATM   19  N3  UNL     1      15.074  -3.168   2.918  1.00  0.00    -0.075 N
HETATM   20  C8  UNL     1      15.180  -3.045   1.474  1.00  0.00     0.232 C
ATOM     21  H32 UNL     1      15.931  -2.878   3.390  1.00  0.00     0.277 HD
ATOM     22  H31 UNL     1      15.060  -4.143   3.218  1.00  0.00     0.277 HD
HETATM   23  C9  UNL     1      13.891  -2.555   0.862  1.00  0.00     0.034 C
ENDBRANCH  15  16
ENDBRANCH  13  15
ENDBRANCH   2  11
BRANCH   1  24
HETATM   24  N1  UNL     1      15.017  -7.083  -2.434  1.00  0.00    -0.397 N
ATOM     25  H12 UNL     1      15.114  -7.003  -1.421  1.00  0.00     0.156 HD
ATOM     26  H11 UNL     1      15.840  -7.317  -2.988  1.00  0.00     0.156 HD
ENDBRANCH   1  24
BRANCH   4  27
HETATM   27  C11 UNL     1      10.155  -6.249  -4.769  1.00  0.00     0.095 C
BRANCH  27  28
HETATM   28  C12 UNL     1       9.505  -4.926  -4.715  1.00  0.00     0.209 C
BRANCH  28  29
HETATM   29  O2  UNL     1      10.140  -3.956  -5.532  1.00  0.00    -0.396 OA
ATOM     30  H2  UNL     1       9.545  -3.523  -6.133  1.00  0.00     0.209 HD
ENDBRANCH  28  29
ENDBRANCH  27  28
ENDBRANCH   4  27
BRANCH   6  31
HETATM   31  N5  UNL     1      11.265  -7.071  -7.191  1.00  0.00    -0.376 N
HETATM   32  C15 UNL     1      10.661  -6.161  -8.100  1.00  0.00     0.123 C
HETATM   33  C16 UNL     1      10.229  -6.751  -9.427  1.00  0.00     0.021 C
HETATM   34  C17 UNL     1       9.177  -7.784  -9.091  1.00  0.00     0.023 C
HETATM   35  C18 UNL     1       9.919  -8.847  -8.365  1.00  0.00     0.100 C
HETATM   36 CL1  UNL     1       8.659 -10.059  -7.889  1.00  0.00    -0.123 Cl
HETATM   37  C19 UNL     1      10.659  -8.459  -7.156  1.00  0.00     0.143 C
ENDBRANCH   6  31
BRANCH   7  38
HETATM   38  N6  UNL     1      13.790  -7.389  -8.518  1.00  0.00    -0.361 N
HETATM   39  C21 UNL     1      14.272  -6.189  -9.133  1.00  0.00     0.125 C
HETATM   40  C22 UNL     1      14.208  -6.373 -10.657  1.00  0.00     0.020 C
HETATM   41  C23 UNL     1      15.225  -7.413 -10.996  1.00  0.00     0.005 C
HETATM   42  C24 UNL     1      14.848  -8.675 -10.316  1.00  0.00     0.041 C
HETATM   43  C25 UNL     1      13.637  -8.522  -9.362  1.00  0.00     0.181 C
HETATM   44 CL2  UNL     1      13.701 -10.070  -8.448  1.00  0.00    -0.102 Cl
ENDBRANCH   7  38
TORSDOF 9
ENDMDL