MODEL 2
REMARK VINA RESULT: -7.473814578      1.438      1.891
REMARK  11 active torsions:
REMARK  status: ('A' for Active; 'I' for Inactive)
REMARK    1  A    between atoms: C2_2  and  C4_4
REMARK    2  A    between atoms: C4_4  and  O1_5
REMARK    3  A    between atoms: C4_4  and  C5_7
REMARK    4  A    between atoms: C4_4  and  C26_39
REMARK    5  A    between atoms: C5_7  and  N1_8
REMARK    6  A    between atoms: N1_8  and  C6_10
REMARK    7  A    between atoms: C9_13  and  C10_14
REMARK       I    between atoms: C10_14  and  N2_16
REMARK    8  A    between atoms: N2_16  and  C11_18
REMARK    9  A    between atoms: C14_22  and  C15_23
REMARK       I    between atoms: N4_28  and  C18_29
REMARK   10  A    between atoms: C18_29  and  O5_31
REMARK   11  A    between atoms: O5_31  and  C19_32
ROOT
HETATM    1  C10 UNL     1      12.213  -6.843  -4.958  1.00  0.00     0.226 C
HETATM    2  O2  UNL     1      11.554  -5.792  -4.833  1.00  0.00    -0.273 OA
HETATM    3  N2  UNL     1      12.283  -7.744  -3.824  1.00  0.00    -0.320 N
ATOM      4  H2  UNL     1      12.802  -8.621  -3.869  1.00  0.00     0.169 HD
ENDROOT
BRANCH   1   5
HETATM    5  C9  UNL     1      12.928  -7.238  -6.172  1.00  0.00     0.078 C
HETATM    6  C8  UNL     1      13.687  -8.563  -6.031  1.00  0.00     0.016 C
HETATM    7  C7  UNL     1      14.148  -8.923  -7.409  1.00  0.00     0.026 C
HETATM    8  C6  UNL     1      15.195  -7.989  -7.880  1.00  0.00     0.081 C
HETATM    9  C25 UNL     1      15.247  -6.764  -6.970  1.00  0.00     0.026 C
HETATM   10  C24 UNL     1      13.900  -6.190  -6.667  1.00  0.00     0.016 C
BRANCH   8  11
HETATM   11  N1  UNL     1      16.513  -8.514  -7.902  1.00  0.00    -0.395 N
ATOM     12  H1  UNL     1      16.776  -9.186  -8.623  1.00  0.00     0.159 HD
BRANCH  11  13
HETATM   13  C5  UNL     1      17.450  -8.125  -6.952  1.00  0.00     0.103 C
BRANCH  13  14
HETATM   14  C4  UNL     1      18.188  -9.216  -6.187  1.00  0.00     0.190 C
BRANCH  14  15
HETATM   15  C2  UNL     1      19.455  -8.723  -5.560  1.00  0.00     0.026 C
HETATM   16  C1  UNL     1      19.772  -7.288  -5.961  1.00  0.00     0.013 C
HETATM   17  C3  UNL     1      20.649  -9.530  -6.028  1.00  0.00     0.013 C
ENDBRANCH  14  15
BRANCH  14  18
HETATM   18  O1  UNL     1      18.494 -10.294  -7.010  1.00  0.00    -0.376 OA
ATOM     19  H1  UNL     1      17.999 -11.050  -6.713  1.00  0.00     0.211 HD
ENDBRANCH  14  18
BRANCH  14  20
HETATM   20  C26 UNL     1      17.269  -9.685  -5.046  1.00  0.00     0.423 C
HETATM   21  F1  UNL     1      16.306 -10.555  -5.436  1.00  0.00    -0.167 F
HETATM   22  F2  UNL     1      18.033 -10.277  -4.053  1.00  0.00    -0.167 F
HETATM   23  F3  UNL     1      16.636  -8.597  -4.453  1.00  0.00    -0.167 F
ENDBRANCH  14  20
ENDBRANCH  13  14
ENDBRANCH  11  13
ENDBRANCH   8  11
ENDBRANCH   1   5
BRANCH   3  24
HETATM   24  C11 UNL     1      11.580  -7.337  -2.625  1.00  0.00     0.093 A
HETATM   25  S1  UNL     1       9.897  -7.530  -2.336  1.00  0.00    -0.074 SA
HETATM   26  C12 UNL     1       9.801  -6.844  -0.793  1.00  0.00     0.010 A
HETATM   27  C13 UNL     1      11.094  -6.472  -0.519  1.00  0.00    -0.024 A
HETATM   28  C23 UNL     1       8.650  -6.598   0.169  1.00  0.00     0.174 C
HETATM   29  C14 UNL     1      12.025  -6.730  -1.480  1.00  0.00     0.070 A
HETATM   30  C16 UNL     1      11.250  -5.836   0.856  1.00  0.00     0.061 C
HETATM   31  C17 UNL     1      10.544  -6.790   1.822  1.00  0.00     0.133 C
HETATM   32  N4  UNL     1       9.112  -6.803   1.507  1.00  0.00    -0.323 N
HETATM   33  C18 UNL     1       8.211  -7.015   2.570  1.00  0.00     0.363 C
HETATM   34  O4  UNL     1       8.651  -7.185   3.728  1.00  0.00    -0.238 OA
BRANCH  29  35
HETATM   35  C15 UNL     1      13.472  -6.379  -1.349  1.00  0.00     0.268 C
HETATM   36  N3  UNL     1      14.278  -6.749  -0.247  1.00  0.00    -0.057 NA
HETATM   37  O3  UNL     1      14.074  -5.715  -2.229  1.00  0.00    -0.271 OA
ENDBRANCH  29  35
BRANCH  33  38
HETATM   38  O5  UNL     1       6.847  -7.041   2.370  1.00  0.00    -0.294 OA
BRANCH  38  39
HETATM   39  C19 UNL     1       6.090  -8.237   2.328  1.00  0.00     0.061 C
HETATM   40  C20 UNL     1       5.451  -8.532   3.661  1.00  0.00     0.046 C
HETATM   41  C21 UNL     1       6.936  -9.439   1.967  1.00  0.00     0.046 C
HETATM   42  C22 UNL     1       5.028  -8.106   1.259  1.00  0.00     0.046 C
ENDBRANCH  38  39
ENDBRANCH  33  38
ENDBRANCH   3  24
TORSDOF 11
ENDMDL