MODEL 3
REMARK VINA RESULT: -8.113167603      2.377      4.182
REMARK  12 active torsions:
REMARK  status: ('A' for Active; 'I' for Inactive)
REMARK    1  A    between atoms: C2_2  and  N1_34
REMARK    2  A    between atoms: C3_3  and  C4_4
REMARK    3  A    between atoms: C4_4  and  O2_6
REMARK    4  A    between atoms: O2_6  and  C5_7
REMARK    5  A    between atoms: C7_9  and  O3_10
REMARK    6  A    between atoms: O3_10  and  C8_11
REMARK    7  A    between atoms: C13_16  and  O4_17
REMARK    8  A    between atoms: O4_17  and  C14_18
REMARK    9  A    between atoms: C20_25  and  O5_26
REMARK   10  A    between atoms: C21_28  and  O6_29
REMARK   11  A    between atoms: C22_31  and  O7_32
REMARK       I    between atoms: N1_34  and  C23_36
REMARK   12  A    between atoms: N3_38  and  C24_40
ROOT
HETATM    1  C5  UNL     1      12.836  -6.961  -4.779  1.00  0.00     0.166 C
HETATM    2  C6  UNL     1      13.919  -6.884  -3.767  1.00  0.00     0.070 C
HETATM    3  C7  UNL     1      13.712  -7.801  -2.582  1.00  0.00     0.163 C
HETATM    4  C20 UNL     1      12.882  -9.011  -2.936  1.00  0.00     0.179 C
HETATM    5  C21 UNL     1      11.662  -8.791  -3.719  1.00  0.00     0.180 C
HETATM    6  C22 UNL     1      11.548  -7.346  -4.138  1.00  0.00     0.179 C
ENDROOT
BRANCH   1   7
HETATM    7  O2  UNL     1      12.755  -5.787  -5.548  1.00  0.00    -0.310 OA
BRANCH   7   8
HETATM    8  C4  UNL     1      12.986  -5.708  -6.913  1.00  0.00     0.285 C
HETATM    9  O1  UNL     1      13.400  -4.643  -7.363  1.00  0.00    -0.260 OA
BRANCH   8  10
HETATM   10  C3  UNL     1      12.734  -6.861  -7.736  1.00  0.00     0.106 C
HETATM   11  C2  UNL     1      13.686  -7.453  -8.401  1.00  0.00     0.013 C
HETATM   12  C1  UNL     1      13.350  -8.657  -9.246  1.00  0.00     0.068 C
BRANCH  11  13
HETATM   13  N1  UNL     1      15.015  -6.997  -8.346  1.00  0.00    -0.335 N
HETATM   14  C23 UNL     1      15.985  -7.713  -7.585  1.00  0.00     0.190 C
HETATM   15  N2  UNL     1      16.066  -9.131  -7.805  1.00  0.00    -0.063 NA
HETATM   16  N3  UNL     1      16.751  -7.121  -6.744  1.00  0.00    -0.342 N
ATOM     17  H3  UNL     1      16.664  -6.113  -6.616  1.00  0.00     0.164 HD
ATOM     18  H1  UNL     1      15.285  -6.153  -8.852  1.00  0.00     0.168 HD
BRANCH  16  19
HETATM   19  C24 UNL     1      17.726  -7.838  -5.979  1.00  0.00     0.110 A
HETATM   20 CL1  UNL     1      17.060  -8.724  -4.583  1.00  0.00    -0.096 Cl
HETATM   21  C25 UNL     1      19.048  -7.169  -5.822  1.00  0.00     0.051 A
HETATM   22  C26 UNL     1      18.899  -8.427  -6.636  1.00  0.00     0.051 A
ENDBRANCH  16  19
ENDBRANCH  11  13
ENDBRANCH   8  10
ENDBRANCH   7   8
ENDBRANCH   1   7
BRANCH   6  23
HETATM   23  O7  UNL     1      10.457  -7.219  -5.012  1.00  0.00    -0.390 OA
ATOM     24  H7  UNL     1       9.683  -6.883  -4.578  1.00  0.00     0.210 HD
ENDBRANCH   6  23
BRANCH   3  25
HETATM   25  O3  UNL     1      13.091  -7.124  -1.589  1.00  0.00    -0.340 OA
BRANCH  25  26
HETATM   26  C8  UNL     1      13.341  -6.129  -0.710  1.00  0.00     0.103 A
HETATM   27  C9  UNL     1      14.681  -5.808  -0.396  1.00  0.00     0.040 A
HETATM   28  C10 UNL     1      15.051  -4.835   0.465  1.00  0.00     0.003 A
HETATM   29  C11 UNL     1      14.057  -4.087   1.099  1.00  0.00     0.003 A
HETATM   30  C12 UNL     1      12.741  -4.361   0.828  1.00  0.00     0.040 A
HETATM   31  C13 UNL     1      12.389  -5.360  -0.058  1.00  0.00     0.109 A
BRANCH  31  32
HETATM   32  O4  UNL     1      11.028  -5.610  -0.308  1.00  0.00    -0.308 OA
BRANCH  32  33
HETATM   33  C14 UNL     1      10.236  -6.291   0.590  1.00  0.00     0.076 A
HETATM   34  C15 UNL     1       8.987  -6.746   0.195  1.00  0.00     0.038 A
HETATM   35  C16 UNL     1       8.180  -7.431   1.078  1.00  0.00     0.022 A
HETATM   36  C17 UNL     1       8.563  -7.694   2.376  1.00  0.00     0.011 A
HETATM   37 BR1  UNL     1       7.423  -8.646   3.581  1.00  0.00    -0.051 Br
HETATM   38  C18 UNL     1       9.808  -7.241   2.771  1.00  0.00     0.022 A
HETATM   39  C19 UNL     1      10.618  -6.555   1.888  1.00  0.00     0.038 A
ENDBRANCH  32  33
ENDBRANCH  31  32
ENDBRANCH  25  26
ENDBRANCH   3  25
BRANCH   5  40
HETATM   40  O6  UNL     1      10.540  -9.098  -2.946  1.00  0.00    -0.390 OA
ATOM     41  H6  UNL     1       9.792  -8.597  -3.249  1.00  0.00     0.210 HD
ENDBRANCH   5  40
BRANCH   4  42
HETATM   42  O5  UNL     1      13.747  -9.860  -3.664  1.00  0.00    -0.390 OA
ATOM     43  H5  UNL     1      13.283 -10.065  -4.468  1.00  0.00     0.210 HD
ENDBRANCH   4  42
TORSDOF 12
ENDMDL