MODEL 4
REMARK VINA RESULT: -7.353102944      1.566      1.903
REMARK  14 active torsions:
REMARK  status: ('A' for Active; 'I' for Inactive)
REMARK    1  A    between atoms: C2_2  and  C3_3
REMARK    2  A    between atoms: C3_3  and  O2_5
REMARK    3  A    between atoms: O2_5  and  C4_6
REMARK    4  A    between atoms: C6_8  and  O3_9
REMARK    5  A    between atoms: C11_15  and  O4_16
REMARK    6  A    between atoms: C18_24  and  O5_25
REMARK    7  A    between atoms: C19_27  and  O6_28
REMARK    8  A    between atoms: C23_33  and  C24_34
REMARK    9  A    between atoms: C24_34  and  C25_35
REMARK   10  A    between atoms: C25_35  and  C26_36
REMARK   11  A    between atoms: C26_36  and  O7_38
REMARK   12  A    between atoms: C26_36  and  C28_40
REMARK   13  A    between atoms: C28_40  and  C29_41
REMARK   14  A    between atoms: C29_41  and  C30_42
ROOT
HETATM    1  C4  UNL     1       7.621  -6.521  -6.304  1.00  0.00     0.139 C
HETATM    2  C5  UNL     1       8.495  -7.417  -7.125  1.00  0.00     0.065 C
HETATM    3  C6  UNL     1       9.825  -6.644  -7.054  1.00  0.00     0.130 C
HETATM    4  C7  UNL     1       9.840  -6.059  -5.699  1.00  0.00    -0.004 C
HETATM    5  C8  UNL     1       9.913  -4.525  -5.828  1.00  0.00     0.019 C
HETATM    6  C9  UNL     1       8.514  -6.338  -5.062  1.00  0.00     0.029 C
HETATM    7  C10 UNL     1       8.384  -7.544  -4.241  1.00  0.00     0.040 C
HETATM    8  C11 UNL     1       9.599  -8.055  -3.557  1.00  0.00     0.123 C
HETATM    9  C12 UNL     1      10.776  -7.900  -4.464  1.00  0.00     0.028 C
HETATM   10  C13 UNL     1      12.092  -8.288  -3.876  1.00  0.00     0.006 C
HETATM   11  C14 UNL     1      12.249  -9.750  -4.023  1.00  0.00     0.033 C
HETATM   12  C15 UNL     1      13.612 -10.222  -4.280  1.00  0.00    -0.023 C
HETATM   13  C16 UNL     1      14.503  -9.495  -4.946  1.00  0.00    -0.072 C
HETATM   14  C17 UNL     1      15.833 -10.050  -5.152  1.00  0.00     0.069 C
HETATM   15  C18 UNL     1      16.840  -9.220  -5.843  1.00  0.00     0.151 C
HETATM   16  C19 UNL     1      16.228  -8.133  -6.696  1.00  0.00     0.148 C
HETATM   17  C20 UNL     1      15.318  -7.360  -5.729  1.00  0.00     0.049 C
HETATM   18  C21 UNL     1      14.075  -8.170  -5.446  1.00  0.00    -0.010 C
HETATM   19  C22 UNL     1      13.479  -8.459  -6.816  1.00  0.00     0.021 C
HETATM   20  C23 UNL     1      13.158  -7.441  -4.519  1.00  0.00    -0.024 C
HETATM   21  C32 UNL     1      12.329  -6.421  -5.319  1.00  0.00     0.021 C
HETATM   22  C33 UNL     1      10.938  -6.442  -4.777  1.00  0.00    -0.027 C
HETATM   23  C34 UNL     1      10.765  -5.564  -3.555  1.00  0.00     0.016 C
ENDROOT
BRANCH  20  24
HETATM   24  C24 UNL     1      13.908  -6.637  -3.491  1.00  0.00     0.014 C
BRANCH  24  25
HETATM   25  C25 UNL     1      14.263  -7.362  -2.227  1.00  0.00     0.038 C
BRANCH  25  26
HETATM   26  C26 UNL     1      14.268  -6.332  -1.114  1.00  0.00     0.054 C
HETATM   27  C27 UNL     1      14.875  -6.886   0.176  1.00  0.00     0.045 C
BRANCH  26  28
HETATM   28  O7  UNL     1      15.065  -5.231  -1.475  1.00  0.00    -0.390 OA
ATOM     29  H7  UNL     1      15.000  -4.548  -0.818  1.00  0.00     0.210 HD
ENDBRANCH  26  28
BRANCH  26  30
HETATM   30  C28 UNL     1      12.900  -5.795  -0.797  1.00  0.00     0.043 C
BRANCH  30  31
HETATM   31  C29 UNL     1      11.998  -6.874  -0.285  1.00  0.00     0.081 C
BRANCH  31  32
HETATM   32  C30 UNL     1      10.864  -6.250   0.546  1.00  0.00     0.240 C
HETATM   33  C31 UNL     1       9.545  -6.577  -0.098  1.00  0.00     0.090 C
HETATM   34  F1  UNL     1      11.049  -4.883   0.514  1.00  0.00    -0.207 F
HETATM   35  F2  UNL     1      10.932  -6.764   1.813  1.00  0.00    -0.207 F
ENDBRANCH  31  32
ENDBRANCH  30  31
ENDBRANCH  26  30
ENDBRANCH  25  26
ENDBRANCH  24  25
ENDBRANCH  20  24
BRANCH   8  36
HETATM   36  O4  UNL     1       9.439  -9.448  -3.355  1.00  0.00    -0.395 OA
ATOM     37  H4  UNL     1       8.733  -9.578  -2.733  1.00  0.00     0.210 HD
ENDBRANCH   8  36
BRANCH  16  38
HETATM   38  O6  UNL     1      17.207  -7.204  -7.071  1.00  0.00    -0.393 OA
ATOM     39  H6  UNL     1      17.811  -7.056  -6.353  1.00  0.00     0.210 HD
ENDBRANCH  16  38
BRANCH  15  40
HETATM   40  O5  UNL     1      17.693 -10.035  -6.588  1.00  0.00    -0.393 OA
ATOM     41  H5  UNL     1      17.741  -9.718  -7.483  1.00  0.00     0.210 HD
ENDBRANCH  15  40
BRANCH   3  42
HETATM   42  O3  UNL     1       9.690  -5.686  -8.092  1.00  0.00    -0.395 OA
ATOM     43  H3  UNL     1      10.297  -6.001  -8.751  1.00  0.00     0.210 HD
ENDBRANCH   3  42
BRANCH   1  44
HETATM   44  O2  UNL     1       6.450  -7.158  -5.828  1.00  0.00    -0.312 OA
BRANCH  44  45
HETATM   45  C3  UNL     1       5.193  -6.825  -6.352  1.00  0.00     0.282 C
HETATM   46  O1  UNL     1       4.214  -7.433  -5.849  1.00  0.00    -0.260 OA
BRANCH  45  47
HETATM   47  C2  UNL     1       5.038  -5.839  -7.412  1.00  0.00     0.072 C
HETATM   48  C1  UNL     1       4.209  -4.835  -7.197  1.00  0.00     0.017 C
ENDBRANCH  45  47
ENDBRANCH  44  45
ENDBRANCH   1  44
TORSDOF 14
ENDMDL