MODEL 5
REMARK VINA RESULT: -6.738683739      1.749      2.193
REMARK  12 active torsions:
REMARK  status: ('A' for Active; 'I' for Inactive)
REMARK    1  A    between atoms: C2_2  and  C3_3
REMARK    2  A    between atoms: C3_3  and  S1_4
REMARK    3  A    between atoms: S1_4  and  C4_5
REMARK    4  A    between atoms: C9_11  and  O1_12
REMARK    5  A    between atoms: C13_17  and  O2_18
REMARK    6  A    between atoms: C23_29  and  O3_30
REMARK    7  A    between atoms: O3_30  and  C24_31
REMARK    8  A    between atoms: C24_31  and  C25_33
REMARK    9  A    between atoms: C25_33  and  N1_34
REMARK   10  A    between atoms: N1_34  and  C26_36
REMARK   11  A    between atoms: C26_36  and  C27_37
REMARK   12  A    between atoms: C27_37  and  O5_38
ROOT
HETATM    1  C4  UNL     1      12.992  -8.353  -5.851  1.00  0.00     0.048 C
HETATM    2  C5  UNL     1      11.770  -8.807  -5.185  1.00  0.00     0.037 C
HETATM    3  C6  UNL     1      11.785  -9.480  -3.914  1.00  0.00     0.111 C
HETATM    4  F1  UNL     1      11.764 -10.863  -3.822  1.00  0.00    -0.207 F
HETATM    5  C7  UNL     1      11.800  -8.880  -2.755  1.00  0.00     0.023 C
HETATM    6  C8  UNL     1      11.802  -7.404  -2.585  1.00  0.00     0.045 C
HETATM    7  C9  UNL     1      10.527  -6.929  -1.938  1.00  0.00     0.126 C
HETATM    8  C10 UNL     1      10.639  -6.866  -0.442  1.00  0.00     0.038 C
HETATM    9  C11 UNL     1      11.690  -5.782  -0.190  1.00  0.00    -0.001 C
HETATM   10  C12 UNL     1      11.754  -5.429   1.256  1.00  0.00     0.037 C
HETATM   11  C13 UNL     1      12.688  -4.271   1.460  1.00  0.00     0.118 C
HETATM   12  C14 UNL     1      14.007  -4.423   0.796  1.00  0.00     0.032 C
HETATM   13  C15 UNL     1      13.967  -5.059  -0.570  1.00  0.00     0.012 C
HETATM   14  C16 UNL     1      13.031  -6.255  -0.651  1.00  0.00    -0.036 C
HETATM   15  C17 UNL     1      13.525  -7.216   0.446  1.00  0.00     0.016 C
HETATM   16  C18 UNL     1      13.074  -6.926  -1.951  1.00  0.00     0.004 C
HETATM   17  C19 UNL     1      13.832  -6.173  -3.054  1.00  0.00     0.006 C
HETATM   18  C20 UNL     1      14.392  -7.206  -4.038  1.00  0.00     0.007 C
HETATM   19  C21 UNL     1      13.735  -7.184  -5.344  1.00  0.00     0.012 C
HETATM   20  C22 UNL     1      14.808  -7.066  -6.434  1.00  0.00     0.040 C
HETATM   21  C23 UNL     1      15.090  -8.496  -6.874  1.00  0.00     0.148 C
HETATM   22  C28 UNL     1      13.971  -9.359  -6.344  1.00  0.00     0.110 C
HETATM   23 BR1  UNL     1      14.704 -10.528  -5.035  1.00  0.00    -0.086 Br
ENDROOT
BRANCH  21  24
HETATM   24  O3  UNL     1      16.346  -8.926  -6.392  1.00  0.00    -0.310 OA
BRANCH  24  25
HETATM   25  C24 UNL     1      17.490  -8.257  -6.884  1.00  0.00     0.298 C
HETATM   26  O4  UNL     1      18.152  -7.555  -6.106  1.00  0.00    -0.259 OA
BRANCH  25  27
HETATM   27  C25 UNL     1      17.865  -8.420  -8.297  1.00  0.00     0.166 C
BRANCH  27  28
HETATM   28  N1  UNL     1      17.436  -7.391  -9.150  1.00  0.00    -0.392 N
ATOM     29  H1  UNL     1      17.656  -6.411  -8.972  1.00  0.00     0.159 HD
BRANCH  28  30
HETATM   30  C26 UNL     1      16.679  -7.798 -10.269  1.00  0.00     0.145 C
BRANCH  30  31
HETATM   31  C27 UNL     1      15.337  -7.037 -10.208  1.00  0.00     0.183 C
BRANCH  31  32
HETATM   32  O5  UNL     1      15.376  -5.994 -11.132  1.00  0.00    -0.399 OA
ATOM     33  H5  UNL     1      14.495  -5.842 -11.454  1.00  0.00     0.209 HD
ENDBRANCH  31  32
ENDBRANCH  30  31
ENDBRANCH  28  30
ENDBRANCH  27  28
ENDBRANCH  25  27
ENDBRANCH  24  25
ENDBRANCH  21  24
BRANCH   1  34
HETATM   34  S1  UNL     1      12.327  -7.675  -7.464  1.00  0.00    -0.153 SA
BRANCH  34  35
HETATM   35  C3  UNL     1      10.746  -6.858  -7.170  1.00  0.00     0.075 C
BRANCH  35  36
HETATM   36  C2  UNL     1      11.065  -5.409  -6.776  1.00  0.00     0.006 C
HETATM   37  C1  UNL     1      10.594  -5.214  -5.360  1.00  0.00     0.006 C
ENDBRANCH  35  36
ENDBRANCH  34  35
ENDBRANCH   1  34
BRANCH   7  38
HETATM   38  O1  UNL     1       9.520  -7.800  -2.355  1.00  0.00    -0.395 OA
ATOM     39  H1  UNL     1       8.788  -7.672  -1.762  1.00  0.00     0.210 HD
ENDBRANCH   7  38
BRANCH  11  40
HETATM   40  O2  UNL     1      12.021  -3.091   1.095  1.00  0.00    -0.396 OA
ATOM     41  H2  UNL     1      12.340  -2.815   0.244  1.00  0.00     0.210 HD
ENDBRANCH  11  40
TORSDOF 12
ENDMDL