MODEL 5
REMARK VINA RESULT: -6.661946515      1.839      2.356
REMARK  13 active torsions:
REMARK  status: ('A' for Active; 'I' for Inactive)
REMARK    1  A    between atoms: C2_2  and  C3_3
REMARK    2  A    between atoms: C3_3  and  C4_4
REMARK    3  A    between atoms: C4_4  and  N1_5
REMARK       I    between atoms: N1_5  and  C5_7
REMARK    4  A    between atoms: C5_7  and  C6_9
REMARK    5  A    between atoms: C6_9  and  N2_10
REMARK    6  A    between atoms: C6_9  and  C27_46
REMARK       I    between atoms: N2_10  and  C7_12
REMARK    7  A    between atoms: C7_12  and  C8_14
REMARK    8  A    between atoms: C9_15  and  N3_16
REMARK    9  A    between atoms: C10_17  and  O3_18
REMARK   10  A    between atoms: C13_22  and  O4_23
REMARK   11  A    between atoms: C14_25  and  C21_33
REMARK   12  A    between atoms: C17_28  and  C18_29
REMARK       I    between atoms: N5_40  and  C25_42
REMARK   13  A    between atoms: C25_42  and  O6_44
ROOT
HETATM    1  C8  UNL     1       9.368  -7.673  -2.239  1.00  0.00     0.103 A
HETATM    2  C9  UNL     1       9.240  -7.846  -3.556  1.00  0.00     0.064 A
HETATM    3  C22 UNL     1       8.005  -8.440  -3.958  1.00  0.00     0.048 A
HETATM    4  C23 UNL     1       7.042  -8.802  -3.076  1.00  0.00     0.092 A
HETATM    5  N4  UNL     1       7.215  -8.611  -1.777  1.00  0.00    -0.351 N
ATOM      6  H4  UNL     1       6.487  -8.885  -1.116  1.00  0.00     0.166 HD
HETATM    7  C24 UNL     1       8.342  -8.062  -1.341  1.00  0.00     0.127 A
HETATM    8  N5  UNL     1       8.514  -7.871  -0.093  1.00  0.00    -0.287 N
ATOM      9  H5  UNL     1       9.377  -7.446   0.246  1.00  0.00     0.172 HD
HETATM   10  C25 UNL     1       7.503  -8.252   0.821  1.00  0.00     0.365 C
HETATM   11  O5  UNL     1       6.456  -7.525   0.935  1.00  0.00    -0.238 OA
ENDROOT
BRANCH   2  12
HETATM   12  N3  UNL     1      10.123  -7.591  -4.595  1.00  0.00    -0.270 N
HETATM   13  C10 UNL     1      10.374  -6.294  -5.008  1.00  0.00     0.157 A
HETATM   14  C11 UNL     1      11.245  -6.278  -6.063  1.00  0.00     0.013 A
HETATM   15  C12 UNL     1      11.551  -7.607  -6.322  1.00  0.00     0.014 A
HETATM   16  C17 UNL     1      11.929  -5.317  -6.968  1.00  0.00     0.057 C
HETATM   17  C13 UNL     1      10.852  -8.352  -5.413  1.00  0.00     0.157 A
HETATM   18  C14 UNL     1      12.501  -7.804  -7.452  1.00  0.00     0.072 C
HETATM   19  C15 UNL     1      13.690  -6.952  -7.056  1.00  0.00    -0.019 C
HETATM   20  C16 UNL     1      13.392  -5.677  -6.808  1.00  0.00    -0.020 C
BRANCH  13  21
HETATM   21  O3  UNL     1       9.843  -5.123  -4.464  1.00  0.00    -0.345 OA
ATOM     22  H3  UNL     1      10.313  -4.321  -4.266  1.00  0.00     0.219 HD
ENDBRANCH  13  21
BRANCH  17  23
HETATM   23  O4  UNL     1      10.841  -9.722  -5.286  1.00  0.00    -0.345 OA
ATOM     24  H4  UNL     1      11.612 -10.232  -5.504  1.00  0.00     0.219 HD
ENDBRANCH  17  23
BRANCH  18  25
HETATM   25  C21 UNL     1      11.856  -7.128  -8.640  1.00  0.00     0.075 A
HETATM   26  C18 UNL     1      11.488  -8.093  -9.702  1.00  0.00     0.009 A
HETATM   27  C19 UNL     1      11.860  -7.782 -11.155  1.00  0.00     0.020 C
HETATM   28  C20 UNL     1      10.473  -7.285  -9.048  1.00  0.00     0.118 A
HETATM   29 CL1  UNL     1       9.197  -7.938  -8.014  1.00  0.00    -0.122 Cl
HETATM   30 CL2  UNL     1      12.774  -5.689  -9.203  1.00  0.00    -0.116 Cl
ENDBRANCH  18  25
ENDBRANCH   2  12
BRANCH   1  31
HETATM   31  C7  UNL     1      10.490  -7.046  -1.656  1.00  0.00     0.262 C
HETATM   32  N2  UNL     1      11.749  -7.571  -1.336  1.00  0.00    -0.321 N
ATOM     33  H2  UNL     1      11.912  -8.551  -1.565  1.00  0.00     0.169 HD
HETATM   34  O2  UNL     1      10.377  -5.794  -1.365  1.00  0.00    -0.267 OA
BRANCH  32  35
HETATM   35  C6  UNL     1      12.831  -6.860  -0.715  1.00  0.00     0.084 C
BRANCH  35  36
HETATM   36  C5  UNL     1      12.468  -6.006   0.437  1.00  0.00     0.264 C
HETATM   37  N1  UNL     1      12.834  -4.638   0.428  1.00  0.00    -0.356 N
ATOM     38  H1  UNL     1      13.343  -4.276  -0.379  1.00  0.00     0.162 HD
HETATM   39  O1  UNL     1      11.848  -6.407   1.446  1.00  0.00    -0.266 OA
BRANCH  37  40
HETATM   40  C4  UNL     1      12.522  -3.728   1.510  1.00  0.00     0.123 C
BRANCH  40  41
HETATM   41  C3  UNL     1      13.744  -3.047   2.028  1.00  0.00     0.019 C
BRANCH  41  42
HETATM   42  C2  UNL     1      14.693  -2.795   0.884  1.00  0.00    -0.003 C
HETATM   43  C1  UNL     1      15.999  -3.488   1.204  1.00  0.00     0.005 C
ENDBRANCH  41  42
ENDBRANCH  40  41
ENDBRANCH  37  40
ENDBRANCH  35  36
BRANCH  35  44
HETATM   44  C27 UNL     1      13.808  -6.264  -1.664  1.00  0.00     0.033 C
HETATM   45  C28 UNL     1      15.234  -6.590  -1.202  1.00  0.00     0.016 C
HETATM   46  C29 UNL     1      13.611  -6.580  -3.105  1.00  0.00     0.016 C
ENDBRANCH  35  44
ENDBRANCH  32  35
ENDBRANCH   1  31
BRANCH  10  47
HETATM   47  O6  UNL     1       7.545  -9.364   1.625  1.00  0.00    -0.309 OA
HETATM   48  C26 UNL     1       8.210  -9.370   2.896  1.00  0.00     0.215 C
ENDBRANCH  10  47
TORSDOF 13
ENDMDL