MODEL 3
REMARK VINA RESULT: -7.004894662      2.539      5.906
REMARK  13 active torsions:
REMARK  status: ('A' for Active; 'I' for Inactive)
REMARK    1  A    between atoms: C2_2  and  C24_36
REMARK    2  A    between atoms: C3_3  and  C4_4
REMARK    3  A    between atoms: C4_4  and  C5_5
REMARK    4  A    between atoms: C5_5  and  C7_7
REMARK    5  A    between atoms: C8_8  and  O1_9
REMARK    6  A    between atoms: O1_9  and  C9_10
REMARK    7  A    between atoms: C9_10  and  C10_12
REMARK    8  A    between atoms: C13_15  and  O3_16
REMARK    9  A    between atoms: C18_24  and  C20_26
REMARK   10  A    between atoms: C20_26  and  O4_27
REMARK   11  A    between atoms: C20_26  and  C21_29
REMARK   12  A    between atoms: C21_29  and  O5_31
REMARK   13  A    between atoms: C23_33  and  O6_34
ROOT
HETATM    1  C7  UNL     1      12.856  -7.455  -3.418  1.00  0.00     0.054 C
HETATM    2  C8  UNL     1      11.618  -7.334  -4.264  1.00  0.00     0.180 C
HETATM    3  C16 UNL     1      11.682  -8.160  -5.519  1.00  0.00     0.033 C
HETATM    4 BR1  UNL     1      10.091  -8.974  -6.223  1.00  0.00    -0.052 Br
HETATM    5  C17 UNL     1      12.822  -8.340  -6.159  1.00  0.00     0.018 C
HETATM    6 BR2  UNL     1      12.755  -9.428  -7.750  1.00  0.00    -0.053 Br
HETATM    7  C18 UNL     1      14.067  -7.750  -5.616  1.00  0.00     0.046 C
HETATM    8  C19 UNL     1      15.213  -8.602  -6.152  1.00  0.00     0.026 C
HETATM    9  C23 UNL     1      14.092  -7.927  -4.103  1.00  0.00     0.141 C
ENDROOT
BRANCH   2  10
HETATM   10  O1  UNL     1      10.458  -7.779  -3.570  1.00  0.00    -0.306 OA
BRANCH  10  11
HETATM   11  C9  UNL     1       9.731  -6.869  -2.863  1.00  0.00     0.294 C
HETATM   12  O2  UNL     1       9.616  -5.690  -3.342  1.00  0.00    -0.259 OA
BRANCH  11  13
HETATM   13  C10 UNL     1       9.070  -7.134  -1.599  1.00  0.00     0.039 A
HETATM   14  C11 UNL     1       8.069  -8.080  -1.492  1.00  0.00     0.020 A
HETATM   15  C12 UNL     1       7.437  -8.334  -0.284  1.00  0.00     0.037 A
HETATM   16  C13 UNL     1       7.789  -7.648   0.861  1.00  0.00     0.065 A
HETATM   17  C14 UNL     1       8.788  -6.704   0.762  1.00  0.00     0.037 A
HETATM   18  C15 UNL     1       9.402  -6.465  -0.443  1.00  0.00     0.020 A
BRANCH  16  19
HETATM   19  O3  UNL     1       7.154  -7.901   2.083  1.00  0.00    -0.361 OA
ATOM     20  H3  UNL     1       6.650  -8.694   2.221  1.00  0.00     0.217 HD
ENDBRANCH  16  19
ENDBRANCH  11  13
ENDBRANCH  10  11
ENDBRANCH   2  10
BRANCH   1  21
HETATM   21  C5  UNL     1      12.563  -8.160  -2.131  1.00  0.00    -0.006 C
HETATM   22  C6  UNL     1      12.635  -9.664  -2.200  1.00  0.00     0.011 C
BRANCH  21  23
HETATM   23  C4  UNL     1      13.412  -7.749  -0.961  1.00  0.00     0.032 C
BRANCH  23  24
HETATM   24  C3  UNL     1      12.840  -6.592  -0.230  1.00  0.00    -0.013 C
HETATM   25  C2  UNL     1      13.365  -5.450   0.052  1.00  0.00     0.011 C
HETATM   26  C1  UNL     1      12.526  -4.444   0.827  1.00  0.00     0.055 C
BRANCH  25  27
HETATM   27  C24 UNL     1      14.676  -4.988  -0.297  1.00  0.00     0.204 C
HETATM   28  O7  UNL     1      15.521  -5.659  -0.917  1.00  0.00    -0.644 OA
HETATM   29  O8  UNL     1      15.120  -3.686   0.051  1.00  0.00    -0.644 OA
ENDBRANCH  25  27
ENDBRANCH  23  24
ENDBRANCH  21  23
ENDBRANCH   1  21
BRANCH   9  30
HETATM   30  O6  UNL     1      15.184  -7.249  -3.580  1.00  0.00    -0.394 OA
ATOM     31  H6  UNL     1      15.537  -7.747  -2.853  1.00  0.00     0.210 HD
ENDBRANCH   9  30
BRANCH   7  32
HETATM   32  C20 UNL     1      14.271  -6.360  -6.037  1.00  0.00     0.162 C
BRANCH  32  33
HETATM   33  O4  UNL     1      15.646  -6.079  -6.276  1.00  0.00    -0.392 OA
ATOM     34  H4  UNL     1      15.764  -5.520  -7.034  1.00  0.00     0.210 HD
ENDBRANCH  32  33
BRANCH  32  35
HETATM   35  C21 UNL     1      13.594  -5.896  -7.278  1.00  0.00     0.144 C
HETATM   36  C22 UNL     1      14.492  -6.130  -8.513  1.00  0.00     0.042 C
BRANCH  35  37
HETATM   37  O5  UNL     1      13.284  -4.548  -7.333  1.00  0.00    -0.393 OA
ATOM     38  H5  UNL     1      13.863  -4.008  -7.859  1.00  0.00     0.210 HD
ENDBRANCH  35  37
ENDBRANCH  32  35
ENDBRANCH   7  32
TORSDOF 13
ENDMDL