MODEL 1
REMARK VINA RESULT: -8.269364158      0.000      0.000
REMARK  12 active torsions:
REMARK  status: ('A' for Active; 'I' for Inactive)
REMARK    1  A    between atoms: C2_2  and  C3_3
REMARK    2  A    between atoms: C3_3  and  C4_4
REMARK    3  A    between atoms: C4_4  and  N1_5
REMARK    4  A    between atoms: C9_13  and  C10_14
REMARK    5  A    between atoms: C16_21  and  O2_22
REMARK    6  A    between atoms: O2_22  and  C17_23
REMARK    7  A    between atoms: C19_25  and  O3_26
REMARK    8  A    between atoms: C21_29  and  O4_30
REMARK    9  A    between atoms: C22_32  and  O5_33
REMARK   10  A    between atoms: C23_35  and  O6_36
REMARK   11  A    between atoms: C24_38  and  C25_39
REMARK   12  A    between atoms: C25_39  and  C26_40
ROOT
HETATM    1  N1  UNL     1      14.858  -7.443  -3.242  1.00  0.00    -0.369 N
HETATM    2  C5  UNL     1      14.061  -6.596  -4.042  1.00  0.00     0.170 C
HETATM    3  C6  UNL     1      12.652  -6.525  -3.511  1.00  0.00     0.018 A
HETATM    4  C7  UNL     1      12.383  -6.873  -2.217  1.00  0.00     0.032 A
HETATM    5  N2  UNL     1      11.127  -6.859  -1.747  1.00  0.00    -0.325 N
ATOM      6  H2  UNL     1      10.937  -7.122  -0.780  1.00  0.00     0.169 HD
HETATM    7  C8  UNL     1      10.128  -6.499  -2.552  1.00  0.00     0.259 A
HETATM    8  O1  UNL     1       8.933  -6.486  -2.108  1.00  0.00    -0.267 OA
HETATM    9  C9  UNL     1      10.379  -6.134  -3.893  1.00  0.00     0.076 A
HETATM   10  C16 UNL     1      11.653  -6.136  -4.406  1.00  0.00     0.096 A
HETATM   11  C24 UNL     1      13.444  -7.282  -1.276  1.00  0.00     0.075 C
HETATM   12  C32 UNL     1      14.840  -7.251  -1.861  1.00  0.00     0.074 C
ENDROOT
BRANCH  10  13
HETATM   13  O2  UNL     1      11.919  -5.797  -5.680  1.00  0.00    -0.341 OA
BRANCH  13  14
HETATM   14  C17 UNL     1      11.959  -6.479  -6.887  1.00  0.00     0.162 C
HETATM   15  C18 UNL     1      12.680  -7.815  -6.829  1.00  0.00     0.067 C
HETATM   16  C19 UNL     1      12.585  -8.562  -8.142  1.00  0.00     0.123 C
HETATM   17  C20 UNL     1      13.778  -8.411  -9.022  1.00  0.00     0.066 C
HETATM   18  C21 UNL     1      14.184  -6.961  -9.194  1.00  0.00     0.151 C
HETATM   19  C22 UNL     1      12.918  -6.136  -9.220  1.00  0.00     0.178 C
HETATM   20  C23 UNL     1      12.528  -5.544  -7.919  1.00  0.00     0.178 C
BRANCH  16  21
HETATM   21  O3  UNL     1      12.495  -9.951  -7.854  1.00  0.00    -0.395 OA
ATOM     22  H3  UNL     1      12.060 -10.376  -8.583  1.00  0.00     0.210 HD
ENDBRANCH  16  21
BRANCH  18  23
HETATM   23  O4  UNL     1      15.083  -6.525  -8.245  1.00  0.00    -0.393 OA
ATOM     24  H4  UNL     1      15.595  -5.775  -8.524  1.00  0.00     0.210 HD
ENDBRANCH  18  23
BRANCH  19  25
HETATM   25  O5  UNL     1      13.189  -5.034 -10.083  1.00  0.00    -0.390 OA
ATOM     26  H5  UNL     1      13.100  -4.256  -9.546  1.00  0.00     0.210 HD
ENDBRANCH  19  25
BRANCH  20  27
HETATM   27  O6  UNL     1      13.581  -4.781  -7.396  1.00  0.00    -0.390 OA
ATOM     28  H6  UNL     1      14.250  -4.616  -8.050  1.00  0.00     0.210 HD
ENDBRANCH  20  27
ENDBRANCH  13  14
ENDBRANCH  10  13
BRANCH   9  29
HETATM   29  C10 UNL     1       9.214  -5.832  -4.708  1.00  0.00    -0.018 A
HETATM   30  C11 UNL     1       8.521  -6.872  -5.287  1.00  0.00     0.014 A
HETATM   31  C12 UNL     1       7.398  -6.631  -6.081  1.00  0.00     0.024 A
HETATM   32  C13 UNL     1       6.998  -5.329  -6.271  1.00  0.00     0.034 A
HETATM   33 CL1  UNL     1       5.587  -5.008  -7.265  1.00  0.00    -0.084 Cl
HETATM   34  C14 UNL     1       7.677  -4.275  -5.702  1.00  0.00     0.024 A
HETATM   35  C15 UNL     1       8.781  -4.552  -4.925  1.00  0.00     0.014 A
ENDBRANCH   9  29
BRANCH   1  36
HETATM   36  C4  UNL     1      15.675  -8.407  -3.829  1.00  0.00     0.063 C
BRANCH  36  37
HETATM   37  C3  UNL     1      16.051  -8.167  -5.271  1.00  0.00     0.044 C
BRANCH  37  38
HETATM   38  C2  UNL     1      15.936  -9.495  -5.994  1.00  0.00     0.001 C
HETATM   39  C1  UNL     1      14.914 -10.361  -5.250  1.00  0.00     0.005 C
ENDBRANCH  37  38
ENDBRANCH  36  37
ENDBRANCH   1  36
BRANCH  11  40
HETATM   40  C25 UNL     1      13.369  -6.676   0.060  1.00  0.00     0.021 C
BRANCH  40  41
HETATM   41  C26 UNL     1      13.452  -5.238   0.291  1.00  0.00    -0.013 C
HETATM   42  C27 UNL     1      14.877  -4.988   0.854  1.00  0.00     0.007 C
HETATM   43  C28 UNL     1      15.186  -3.539   0.982  1.00  0.00     0.037 C
HETATM   44  C29 UNL     1      14.150  -2.884   1.907  1.00  0.00     0.170 C
HETATM   45  F1  UNL     1      14.204  -3.525   3.126  1.00  0.00    -0.249 F
HETATM   46  C30 UNL     1      12.831  -3.072   1.234  1.00  0.00     0.037 C
HETATM   47  C31 UNL     1      12.517  -4.590   1.256  1.00  0.00     0.007 C
ENDBRANCH  40  41
ENDBRANCH  11  40
TORSDOF 12
ENDMDL