MODEL 1
REMARK VINA RESULT: -8.368528398      0.000      0.000
REMARK  11 active torsions:
REMARK  status: ('A' for Active; 'I' for Inactive)
REMARK    1  A    between atoms: C2_2  and  N1_3
REMARK    2  A    between atoms: N1_3  and  C3_4
REMARK    3  A    between atoms: N1_3  and  C5_6
REMARK    4  A    between atoms: N2_9  and  C8_10
REMARK    5  A    between atoms: C11_13  and  N3_14
REMARK    6  A    between atoms: N3_14  and  C12_16
REMARK    7  A    between atoms: C13_21  and  N6_22
REMARK    8  A    between atoms: C14_27  and  S1_28
REMARK    9  A    between atoms: S1_28  and  C15_29
REMARK   10  A    between atoms: C16_32  and  N9_33
REMARK   11  A    between atoms: N9_33  and  C17_35
ROOT
HETATM    1  C8  UNL     1      11.070  -6.020   0.310  1.00  0.00     0.031 A
HETATM    2  C9  UNL     1      11.446  -4.892   1.060  1.00  0.00     0.031 A
HETATM    3  C10 UNL     1      12.692  -4.339   0.934  1.00  0.00     0.034 A
HETATM    4  C11 UNL     1      13.647  -4.880   0.050  1.00  0.00     0.066 A
HETATM    5  C14 UNL     1      13.314  -5.969  -0.687  1.00  0.00     0.036 A
HETATM    6  C23 UNL     1      12.006  -6.517  -0.530  1.00  0.00     0.050 A
ENDROOT
BRANCH   5   7
HETATM    7  S1  UNL     1      14.427  -6.735  -1.806  1.00  0.00    -0.068 SA
BRANCH   7   8
HETATM    8  C15 UNL     1      13.907  -6.953  -3.464  1.00  0.00     0.110 A
HETATM    9  N8  UNL     1      12.783  -6.307  -3.931  1.00  0.00    -0.184 N
HETATM   10  C16 UNL     1      12.366  -6.430  -5.190  1.00  0.00     0.679 A
ATOM     11  H8  UNL     1      12.252  -5.716  -3.291  1.00  0.00     0.185 HD
HETATM   12  N11 UNL     1      13.062  -7.202  -6.035  1.00  0.00    -0.201 N
HETATM   13  C21 UNL     1      14.168  -7.869  -5.671  1.00  0.00     0.128 A
ATOM     14  H11 UNL     1      12.737  -7.286  -6.999  1.00  0.00     0.183 HD
HETATM   15  C22 UNL     1      14.604  -7.741  -4.342  1.00  0.00     0.061 A
HETATM   16 BR1  UNL     1      16.161  -8.687  -3.780  1.00  0.00    -0.047 Br
BRANCH  10  17
HETATM   17  N9  UNL     1      11.263  -5.876  -5.625  1.00  0.00    -0.220 N
ATOM     18  H9  UNL     1      11.108  -5.830  -6.632  1.00  0.00     0.178 HD
BRANCH  17  19
HETATM   19  C17 UNL     1      10.251  -5.325  -4.745  1.00  0.00     0.126 C
HETATM   20  C18 UNL     1       9.487  -4.277  -5.496  1.00  0.00     0.055 C
HETATM   21  C19 UNL     1       8.026  -4.691  -5.412  1.00  0.00     0.234 C
HETATM   22  N10 UNL     1       8.067  -6.114  -5.227  1.00  0.00    -0.073 N
HETATM   23  C20 UNL     1       9.210  -6.389  -4.405  1.00  0.00     0.257 C
ATOM     24 2H10 UNL     1       7.200  -6.497  -4.851  1.00  0.00     0.277 HD
ATOM     25 1H10 UNL     1       8.067  -6.635  -6.103  1.00  0.00     0.277 HD
ENDBRANCH  17  19
ENDBRANCH  10  17
ENDBRANCH   7   8
ENDBRANCH   5   7
BRANCH   4  26
HETATM   26  N3  UNL     1      14.928  -4.282  -0.045  1.00  0.00    -0.189 N
ATOM     27  H3  UNL     1      15.526  -4.452  -0.853  1.00  0.00     0.184 HD
BRANCH  26  28
HETATM   28  C12 UNL     1      15.326  -3.504   0.935  1.00  0.00     0.712 A
HETATM   29  N4  UNL     1      16.460  -3.607   1.638  1.00  0.00    -0.117 N
HETATM   30  N5  UNL     1      16.513  -2.662   2.564  1.00  0.00    -0.118 N
ATOM     31  H4  UNL     1      17.180  -4.312   1.484  1.00  0.00     0.206 HD
HETATM   32  C13 UNL     1      15.404  -1.912   2.486  1.00  0.00     0.705 A
ATOM     33  H5  UNL     1      17.274  -2.526   3.229  1.00  0.00     0.206 HD
HETATM   34  N7  UNL     1      14.683  -2.446   1.474  1.00  0.00    -0.020 N
ATOM     35  H7  UNL     1      13.777  -2.098   1.161  1.00  0.00     0.203 HD
BRANCH  32  36
HETATM   36  N6  UNL     1      15.096  -0.885   3.233  1.00  0.00    -0.233 N
ATOM     37  H62 UNL     1      15.338  -0.730   4.211  1.00  0.00     0.174 HD
ATOM     38  H61 UNL     1      14.558  -0.065   2.955  1.00  0.00     0.174 HD
ENDBRANCH  32  36
ENDBRANCH  26  28
ENDBRANCH   4  26
BRANCH   1  39
HETATM   39  N2  UNL     1       9.771  -6.565   0.463  1.00  0.00    -0.381 N
HETATM   40  C7  UNL     1       8.882  -6.728  -0.623  1.00  0.00     0.125 C
HETATM   41  C6  UNL     1       8.077  -8.013  -0.618  1.00  0.00     0.045 C
HETATM   42  C5  UNL     1       7.492  -8.295   0.753  1.00  0.00     0.082 C
HETATM   43  C25 UNL     1       7.815  -7.141   1.697  1.00  0.00     0.045 C
HETATM   44  C24 UNL     1       9.311  -6.978   1.808  1.00  0.00     0.125 C
BRANCH  42  45
HETATM   45  N1  UNL     1       6.130  -8.658   0.713  1.00  0.00    -0.409 N
BRANCH  45  46
HETATM   46  C2  UNL     1       5.191  -7.959   1.485  1.00  0.00     0.112 C
HETATM   47  C1  UNL     1       3.812  -8.089   0.832  1.00  0.00     0.026 C
ENDBRANCH  45  46
BRANCH  45  48
HETATM   48  C3  UNL     1       5.784  -9.927   0.198  1.00  0.00     0.112 C
HETATM   49  C4  UNL     1       6.202 -11.118   0.993  1.00  0.00     0.026 C
ENDBRANCH  45  48
ENDBRANCH  42  45
ENDBRANCH   1  39
TORSDOF 11
ENDMDL