MODEL 3
REMARK VINA RESULT: -7.291905748      3.197      4.577
REMARK  12 active torsions:
REMARK  status: ('A' for Active; 'I' for Inactive)
REMARK    1  A    between atoms: C2_2  and  C3_3
REMARK    2  A    between atoms: C2_2  and  C6_8
REMARK    3  A    between atoms: C3_3  and  C4_4
REMARK    4  A    between atoms: C4_4  and  C5_5
REMARK    5  A    between atoms: C15_17  and  O2_18
REMARK    6  A    between atoms: O2_18  and  C16_19
REMARK    7  A    between atoms: C16_19  and  C17_20
REMARK    8  A    between atoms: C16_19  and  C18_23
REMARK    9  A    between atoms: C17_20  and  O3_21
REMARK   10  A    between atoms: C18_23  and  C19_24
REMARK   11  A    between atoms: C20_27  and  O6_28
REMARK   12  A    between atoms: C21_30  and  O7_31
ROOT
HETATM    1  C6  UNL     1      13.232  -5.309   0.623  1.00  0.00    -0.002 C
HETATM    2  C7  UNL     1      11.829  -5.568   1.124  1.00  0.00     0.006 C
HETATM    3  C8  UNL     1      11.097  -5.784  -0.236  1.00  0.00     0.006 C
HETATM    4  C9  UNL     1      12.087  -6.582  -0.982  1.00  0.00     0.002 C
HETATM    5  C10 UNL     1      12.356  -6.131  -2.382  1.00  0.00     0.031 C
HETATM    6  C11 UNL     1      11.576  -7.001  -3.347  1.00  0.00     0.009 C
HETATM    7  C12 UNL     1      12.101  -7.011  -4.735  1.00  0.00     0.006 C
HETATM    8  C13 UNL     1      13.326  -7.716  -5.077  1.00  0.00    -0.001 C
HETATM    9  C14 UNL     1      13.159  -8.576  -6.341  1.00  0.00     0.040 C
HETATM   10  C15 UNL     1      14.496  -9.058  -6.874  1.00  0.00     0.153 C
HETATM   11  C20 UNL     1      15.435  -9.520  -5.794  1.00  0.00     0.176 C
HETATM   12  C21 UNL     1      15.445  -8.714  -4.539  1.00  0.00     0.158 C
HETATM   13  C22 UNL     1      14.038  -8.524  -4.032  1.00  0.00    -0.005 C
HETATM   14  C23 UNL     1      13.482  -9.958  -3.953  1.00  0.00     0.019 C
HETATM   15  C24 UNL     1      13.913  -7.944  -2.675  1.00  0.00     0.038 C
HETATM   16  C25 UNL     1      15.052  -7.827  -1.748  1.00  0.00     0.017 C
HETATM   17  C26 UNL     1      14.476  -6.557  -1.220  1.00  0.00     0.036 C
HETATM   18  C27 UNL     1      13.426  -6.476  -0.233  1.00  0.00    -0.029 C
HETATM   19  C28 UNL     1      13.379  -7.697   0.720  1.00  0.00     0.016 C
HETATM   20  C29 UNL     1      13.801  -6.465  -2.576  1.00  0.00     0.116 C
HETATM   21  F1  UNL     1      14.523  -5.651  -3.368  1.00  0.00    -0.242 F
ENDROOT
BRANCH  10  22
HETATM   22  O2  UNL     1      14.214 -10.136  -7.661  1.00  0.00    -0.375 OA
BRANCH  22  23
HETATM   23  C16 UNL     1      14.371 -11.386  -7.268  1.00  0.00     0.155 C
BRANCH  23  24
HETATM   24  C17 UNL     1      15.323 -12.034  -8.327  1.00  0.00     0.196 C
BRANCH  24  25
HETATM   25  O3  UNL     1      16.527 -12.281  -7.702  1.00  0.00    -0.398 OA
ATOM     26  H3  UNL     1      16.437 -13.098  -7.226  1.00  0.00     0.209 HD
ENDBRANCH  24  25
ENDBRANCH  23  24
BRANCH  23  27
HETATM   27  C18 UNL     1      13.276 -12.340  -7.099  1.00  0.00     0.147 C
BRANCH  27  28
HETATM   28  C19 UNL     1      13.464 -13.188  -5.900  1.00  0.00     0.175 C
HETATM   29  O4  UNL     1      12.555 -13.931  -5.437  1.00  0.00    -0.648 OA
HETATM   30  O5  UNL     1      14.667 -13.216  -5.204  1.00  0.00    -0.648 OA
ENDBRANCH  27  28
ENDBRANCH  23  27
ENDBRANCH  22  23
ENDBRANCH  10  22
BRANCH  11  31
HETATM   31  O6  UNL     1      16.738  -9.327  -6.348  1.00  0.00    -0.390 OA
ATOM     32  H6  UNL     1      16.776  -8.400  -6.548  1.00  0.00     0.210 HD
ENDBRANCH  11  31
BRANCH  12  33
HETATM   33  O7  UNL     1      16.102  -7.525  -4.844  1.00  0.00    -0.392 OA
ATOM     34  H7  UNL     1      16.324  -7.122  -4.013  1.00  0.00     0.210 HD
ENDBRANCH  12  33
BRANCH   1  35
HETATM   35  C2  UNL     1      13.478  -3.928   0.449  1.00  0.00    -0.013 C
HETATM   36  C1  UNL     1      14.924  -3.442   0.247  1.00  0.00     0.010 C
BRANCH  35  37
HETATM   37  C3  UNL     1      13.262  -3.139   1.763  1.00  0.00     0.013 C
BRANCH  37  38
HETATM   38  C4  UNL     1      14.374  -2.528   2.446  1.00  0.00     0.091 C
BRANCH  38  39
HETATM   39  C5  UNL     1      14.109  -2.637   3.934  1.00  0.00     0.195 C
HETATM   40  O1  UNL     1      15.039  -2.745   4.693  1.00  0.00    -0.285 OA
HETATM   41 BR1  UNL     1      12.342  -2.611   4.635  1.00  0.00    -0.009 Br
ENDBRANCH  38  39
ENDBRANCH  37  38
ENDBRANCH  35  37
ENDBRANCH   1  35
TORSDOF 12
ENDMDL