MODEL 1
REMARK VINA RESULT: -7.629019232      0.000      0.000
REMARK  13 active torsions:
REMARK  status: ('A' for Active; 'I' for Inactive)
REMARK    1  A    between atoms: C2_2  and  C3_3
REMARK    2  A    between atoms: C2_2  and  C10_11
REMARK    3  A    between atoms: C3_3  and  C4_4
REMARK    4  A    between atoms: C10_11  and  O1_12
REMARK    5  A    between atoms: C13_16  and  O2_17
REMARK    6  A    between atoms: C17_23  and  C18_24
REMARK    7  A    between atoms: C18_24  and  C19_25
REMARK    8  A    between atoms: C19_25  and  C20_26
REMARK    9  A    between atoms: C20_26  and  O4_27
REMARK   10  A    between atoms: C24_32  and  O5_33
REMARK   11  A    between atoms: O5_33  and  C25_34
REMARK   12  A    between atoms: C25_34  and  C26_36
REMARK   13  A    between atoms: C30_41  and  C31_42
ROOT
HETATM    1  C10 UNL     1       9.826  -7.667  -2.705  1.00  0.00     0.113 C
HETATM    2  C11 UNL     1      10.352  -8.834  -3.299  1.00  0.00    -0.142 C
HETATM    3  C12 UNL     1      10.694 -10.007  -3.976  1.00  0.00     0.122 C
HETATM    4  C13 UNL     1      12.227 -10.079  -4.149  1.00  0.00     0.089 C
HETATM    5  C14 UNL     1      12.993  -9.682  -2.921  1.00  0.00     0.079 C
HETATM    6  C15 UNL     1      13.171  -8.147  -2.983  1.00  0.00     0.075 C
HETATM    7  O3  UNL     1      14.445  -7.948  -2.353  1.00  0.00    -0.379 OA
HETATM    8  C16 UNL     1      14.518  -6.566  -2.182  1.00  0.00     0.174 C
HETATM    9  C17 UNL     1      13.196  -6.301  -1.534  1.00  0.00     0.016 C
HETATM   10  C21 UNL     1      12.314  -7.425  -2.109  1.00  0.00     0.031 C
HETATM   11  C22 UNL     1      11.001  -6.790  -2.299  1.00  0.00     0.059 C
HETATM   12  C23 UNL     1      13.406  -7.989  -4.414  1.00  0.00     0.074 A
HETATM   13  C24 UNL     1      14.718  -8.406  -4.974  1.00  0.00     0.149 A
HETATM   14  C27 UNL     1      14.099  -9.508  -5.795  1.00  0.00     0.001 A
HETATM   15  C28 UNL     1      14.280  -9.080  -7.274  1.00  0.00     0.019 C
HETATM   16  C29 UNL     1      14.646 -10.863  -5.720  1.00  0.00     0.019 C
HETATM   17  C30 UNL     1      12.785  -9.174  -5.178  1.00  0.00     0.098 A
ENDROOT
BRANCH   1  18
HETATM   18  C2  UNL     1       8.891  -7.965  -1.508  1.00  0.00     0.032 C
HETATM   19  C1  UNL     1       7.676  -8.571  -2.140  1.00  0.00     0.014 C
BRANCH  18  20
HETATM   20  C3  UNL     1       8.626  -6.700  -0.809  1.00  0.00     0.048 C
BRANCH  20  21
HETATM   21  C4  UNL     1       8.813  -6.891   0.674  1.00  0.00    -0.036 A
HETATM   22  C5  UNL     1      10.030  -6.557   1.237  1.00  0.00     0.009 A
HETATM   23  C6  UNL     1      10.330  -6.818   2.553  1.00  0.00     0.001 A
HETATM   24  C7  UNL     1       9.411  -7.427   3.363  1.00  0.00     0.002 A
HETATM   25  C8  UNL     1       8.190  -7.759   2.795  1.00  0.00     0.024 A
HETATM   26  C9  UNL     1       7.890  -7.497   1.473  1.00  0.00     0.040 A
HETATM   27 CL1  UNL     1       6.264  -7.854   0.881  1.00  0.00    -0.084 Cl
ENDBRANCH  20  21
ENDBRANCH  18  20
ENDBRANCH   1  18
BRANCH   1  28
HETATM   28  O1  UNL     1       8.984  -6.923  -3.576  1.00  0.00    -0.378 OA
ATOM     29  H1  UNL     1       8.678  -7.586  -4.184  1.00  0.00     0.211 HD
ENDBRANCH   1  28
BRANCH   4  30
HETATM   30  O2  UNL     1      12.483 -11.434  -4.396  1.00  0.00    -0.387 OA
ATOM     31  H2  UNL     1      12.584 -11.814  -3.532  1.00  0.00     0.210 HD
ENDBRANCH   4  30
BRANCH   9  32
HETATM   32  C18 UNL     1      13.251  -6.350  -0.036  1.00  0.00     0.009 C
BRANCH  32  33
HETATM   33  C19 UNL     1      14.505  -5.827   0.547  1.00  0.00     0.027 C
BRANCH  33  34
HETATM   34  C20 UNL     1      14.355  -4.318   0.737  1.00  0.00     0.164 C
BRANCH  34  35
HETATM   35  O4  UNL     1      15.296  -3.631  -0.037  1.00  0.00    -0.401 OA
ATOM     36  H4  UNL     1      15.832  -3.071   0.512  1.00  0.00     0.209 HD
ENDBRANCH  34  35
ENDBRANCH  33  34
ENDBRANCH  32  33
ENDBRANCH   9  32
BRANCH  17  37
HETATM   37  C31 UNL     1      11.922  -8.800  -6.343  1.00  0.00     0.186 C
HETATM   38  O7  UNL     1      11.637  -7.632  -6.684  1.00  0.00    -0.647 OA
HETATM   39  O8  UNL     1      11.403  -9.812  -7.105  1.00  0.00    -0.647 OA
ENDBRANCH  17  37
BRANCH  13  40
HETATM   40  O5  UNL     1      15.742  -8.913  -4.196  1.00  0.00    -0.314 OA
BRANCH  40  41
HETATM   41  C25 UNL     1      17.091  -8.989  -4.564  1.00  0.00     0.273 C
HETATM   42  O6  UNL     1      17.716  -9.944  -4.002  1.00  0.00    -0.264 OA
BRANCH  41  43
HETATM   43  C26 UNL     1      17.752  -8.063  -5.509  1.00  0.00     0.225 C
HETATM   44 CL2  UNL     1      19.342  -7.603  -4.893  1.00  0.00    -0.120 Cl
ENDBRANCH  41  43
ENDBRANCH  40  41
ENDBRANCH  13  40
TORSDOF 13
ENDMDL