MODEL 1
REMARK VINA RESULT: -7.955963069      0.000      0.000
REMARK  12 active torsions:
REMARK  status: ('A' for Active; 'I' for Inactive)
REMARK    1  A    between atoms: C2_2  and  C3_3
REMARK    2  A    between atoms: C2_2  and  C9_11
REMARK    3  A    between atoms: C3_3  and  C4_4
REMARK    4  A    between atoms: C4_4  and  C5_5
REMARK    5  A    between atoms: C5_5  and  C6_6
REMARK    6  A    between atoms: C6_6  and  O1_9
REMARK    7  A    between atoms: C16_18  and  N1_19
REMARK    8  A    between atoms: N1_19  and  O2_20
REMARK    9  A    between atoms: O2_20  and  C17_21
REMARK   10  A    between atoms: C17_21  and  C18_22
REMARK   11  A    between atoms: C18_22  and  O3_23
REMARK   12  A    between atoms: C23_37  and  O5_38
ROOT
HETATM    1  C9  UNL     1      11.731  -6.005  -1.131  1.00  0.00    -0.002 C
HETATM    2  C10 UNL     1      10.604  -5.815  -2.056  1.00  0.00     0.006 C
HETATM    3  C11 UNL     1      11.104  -6.295  -3.390  1.00  0.00     0.006 C
HETATM    4  C12 UNL     1      12.634  -6.344  -3.232  1.00  0.00    -0.001 C
HETATM    5  C13 UNL     1      13.174  -7.244  -4.269  1.00  0.00     0.003 C
HETATM    6  C14 UNL     1      14.072  -6.670  -5.298  1.00  0.00     0.018 C
HETATM    7  C15 UNL     1      14.901  -7.853  -5.760  1.00  0.00     0.061 C
HETATM    8  C16 UNL     1      14.850  -8.050  -7.236  1.00  0.00     0.136 C
HETATM    9  C22 UNL     1      13.629  -8.745  -7.730  1.00  0.00     0.261 C
HETATM   10  F1  UNL     1      13.573  -8.887  -9.078  1.00  0.00    -0.239 F
HETATM   11  C23 UNL     1      13.637 -10.110  -7.048  1.00  0.00     0.159 C
HETATM   12  C24 UNL     1      13.521  -9.951  -5.553  1.00  0.00     0.045 C
HETATM   13  C25 UNL     1      14.495  -9.031  -4.950  1.00  0.00    -0.021 C
HETATM   14  C26 UNL     1      15.751  -9.838  -4.588  1.00  0.00     0.017 C
HETATM   15  C27 UNL     1      14.065  -8.348  -3.679  1.00  0.00     0.069 C
HETATM   16  C28 UNL     1      13.203  -9.099  -2.787  1.00  0.00     0.133 C
HETATM   17  O6  UNL     1      12.972 -10.280  -2.820  1.00  0.00    -0.298 OA
HETATM   18  C29 UNL     1      12.516  -8.321  -1.696  1.00  0.00     0.088 C
HETATM   19  C30 UNL     1      12.743  -6.836  -1.808  1.00  0.00    -0.029 C
HETATM   20  C31 UNL     1      14.103  -6.446  -1.232  1.00  0.00     0.016 C
ENDROOT
BRANCH   8  21
HETATM   21  N1  UNL     1      15.731  -7.678  -7.973  1.00  0.00    -0.287 NA
BRANCH  21  22
HETATM   22  O2  UNL     1      16.864  -7.251  -8.374  1.00  0.00    -0.205 OA
BRANCH  22  23
HETATM   23  C17 UNL     1      17.976  -7.991  -8.746  1.00  0.00     0.272 C
BRANCH  23  24
HETATM   24  C18 UNL     1      18.644  -8.688  -7.580  1.00  0.00     0.204 C
HETATM   25  C19 UNL     1      18.933  -7.804  -6.439  1.00  0.00     0.064 C
HETATM   26  N2  UNL     1      18.326  -6.736  -6.134  1.00  0.00    -0.400 N
HETATM   27  C20 UNL     1      20.073  -8.403  -5.714  1.00  0.00     0.231 C
ATOM     28  H22 UNL     1      17.539  -6.323  -6.633  1.00  0.00     0.155 HD
ATOM     29  H21 UNL     1      18.526  -6.123  -5.343  1.00  0.00     0.155 HD
HETATM   30 CL1  UNL     1      19.486  -9.620  -4.585  1.00  0.00    -0.096 Cl
HETATM   31  N3  UNL     1      20.793  -9.109  -6.779  1.00  0.00    -0.335 N
HETATM   32  C21 UNL     1      19.981  -9.208  -7.938  1.00  0.00     0.262 C
ATOM     33  H3  UNL     1      21.741  -9.477  -6.698  1.00  0.00     0.164 HD
HETATM   34  O4  UNL     1      20.396  -9.666  -9.037  1.00  0.00    -0.270 OA
BRANCH  24  35
HETATM   35  O3  UNL     1      17.809  -9.736  -7.199  1.00  0.00    -0.372 OA
ATOM     36  H3  UNL     1      18.352 -10.378  -6.756  1.00  0.00     0.211 HD
ENDBRANCH  24  35
ENDBRANCH  23  24
ENDBRANCH  22  23
ENDBRANCH  21  22
ENDBRANCH   8  21
BRANCH  11  37
HETATM   37  O5  UNL     1      14.828 -10.766  -7.323  1.00  0.00    -0.392 OA
ATOM     38  H5  UNL     1      14.965 -11.463  -6.692  1.00  0.00     0.210 HD
ENDBRANCH  11  37
BRANCH   1  39
HETATM   39  C2  UNL     1      11.428  -6.337   0.280  1.00  0.00    -0.014 C
HETATM   40  C1  UNL     1      10.048  -6.581   0.705  1.00  0.00     0.010 C
BRANCH  39  41
HETATM   41  C3  UNL     1      12.179  -5.446   1.215  1.00  0.00     0.005 C
BRANCH  41  42
HETATM   42  C4  UNL     1      12.380  -4.039   0.803  1.00  0.00     0.003 C
BRANCH  42  43
HETATM   43  C5  UNL     1      12.978  -3.212   1.947  1.00  0.00     0.037 C
BRANCH  43  44
HETATM   44  C6  UNL     1      14.461  -3.009   1.737  1.00  0.00     0.051 C
HETATM   45  C7  UNL     1      14.898  -1.762   2.463  1.00  0.00     0.045 C
HETATM   46  C8  UNL     1      14.838  -2.926   0.297  1.00  0.00     0.045 C
BRANCH  44  47
HETATM   47  O1  UNL     1      15.153  -4.088   2.305  1.00  0.00    -0.391 OA
ATOM     48  H1  UNL     1      15.232  -4.779   1.658  1.00  0.00     0.210 HD
ENDBRANCH  44  47
ENDBRANCH  43  44
ENDBRANCH  42  43
ENDBRANCH  41  42
ENDBRANCH  39  41
ENDBRANCH   1  39
TORSDOF 12
ENDMDL