MODEL 1
REMARK VINA RESULT: -8.150671380      0.000      0.000
REMARK  4 active torsions:
REMARK  status: ('A' for Active; 'I' for Inactive)
REMARK    1  A    between atoms: O1_2  and  C2_3
REMARK    2  A    between atoms: C3_6  and  C4_7
REMARK    3  A    between atoms: C5_10  and  N3_11
REMARK    4  A    between atoms: C6_20  and  N7_21
ROOT
HETATM    1  C2  UNL     1       8.581  43.917   7.249  1.00  0.00     0.239 A
HETATM    2  N1  UNL     1       8.277  42.891   6.455  1.00  0.00    -0.304 N
ATOM      3  H1  UNL     1       7.352  42.831   6.030  1.00  0.00     0.171 HD
HETATM    4  C3  UNL     1       9.190  41.938   6.216  1.00  0.00     0.170 A
HETATM    5  N6  UNL     1      10.408  42.016   6.775  1.00  0.00    -0.169 N
ATOM      6  H6  UNL     1      11.090  41.281   6.583  1.00  0.00     0.186 HD
HETATM    7  C6  UNL     1      10.755  43.033   7.580  1.00  0.00     0.725 A
HETATM    8  N13 UNL     1       9.822  43.974   7.802  1.00  0.00    -0.151 N
ATOM      9  H13 UNL     1      10.053  44.761   8.409  1.00  0.00     0.188 HD
ENDROOT
BRANCH   7  10
HETATM   10  N7  UNL     1      12.028  43.160   8.194  1.00  0.00    -0.003 N
HETATM   11  N8  UNL     1      12.890  44.104   7.856  1.00  0.00    -0.205 N
HETATM   12  N9  UNL     1      14.076  44.234   8.420  1.00  0.00    -0.276 N
ATOM     13  H8  UNL     1      12.625  44.763   7.125  1.00  0.00     0.211 HD
HETATM   14  C7  UNL     1      14.450  43.389   9.374  1.00  0.00     0.167 A
ATOM     15  H9  UNL     1      14.704  44.981   8.124  1.00  0.00     0.189 HD
HETATM   16  C8  UNL     1      15.687  43.467  10.011  1.00  0.00     0.298 A
HETATM   17  C9  UNL     1      13.624  42.431   9.745  1.00  0.00     0.178 A
HETATM   18  O2  UNL     1      16.489  44.367   9.678  1.00  0.00    -0.264 OA
HETATM   19  N10 UNL     1      16.044  42.603  10.975  1.00  0.00    -0.204 N
HETATM   20  O3  UNL     1      15.191  41.680  11.299  1.00  0.00    -0.152 OA
ATOM     21  H10 UNL     1      16.952  42.669  11.434  1.00  0.00     0.200 HD
HETATM   22  N11 UNL     1      14.018  41.589  10.709  1.00  0.00    -0.222 N
ATOM     23  H11 UNL     1      13.383  40.846  10.998  1.00  0.00     0.198 HD
HETATM   24  N12 UNL     1      12.413  42.324   9.148  1.00  0.00    -0.244 N
ATOM     25  H12 UNL     1      11.780  41.579   9.439  1.00  0.00     0.191 HD
ENDBRANCH   7  10
BRANCH   4  26
HETATM   26  C4  UNL     1       8.825  40.831   5.345  1.00  0.00     0.181 A
HETATM   27  N2  UNL     1       7.616  40.423   4.946  1.00  0.00    -0.171 N
HETATM   28  C5  UNL     1       7.735  39.344   4.132  1.00  0.00     0.692 A
ATOM     29  H2  UNL     1       6.733  40.859   5.214  1.00  0.00     0.186 HD
HETATM   30  N4  UNL     1       9.043  39.114   4.049  1.00  0.00    -0.131 N
HETATM   31  N5  UNL     1       9.706  39.986   4.762  1.00  0.00    -0.268 N
ATOM     32  H4  UNL     1       9.468  38.362   3.506  1.00  0.00     0.205 HD
ATOM     33  H5  UNL     1      10.721  40.023   4.862  1.00  0.00     0.189 HD
BRANCH  28  34
HETATM   34  N3  UNL     1       6.765  38.709   3.576  1.00  0.00    -0.233 N
ATOM     35  H32 UNL     1       6.089  39.042   2.888  1.00  0.00     0.174 HD
ATOM     36  H31 UNL     1       6.513  37.736   3.747  1.00  0.00     0.174 HD
ENDBRANCH  28  34
ENDBRANCH   4  26
BRANCH   1  37
HETATM   37  O1  UNL     1       7.647  44.932   7.518  1.00  0.00    -0.327 OA
HETATM   38  C1  UNL     1       6.719  45.265   6.509  1.00  0.00     0.213 C
ENDBRANCH   1  37
TORSDOF 4
ENDMDL