MODEL 3
REMARK VINA RESULT: -6.927291226      1.181      1.277
REMARK  7 active torsions:
REMARK  status: ('A' for Active; 'I' for Inactive)
REMARK    1  A    between atoms: C2_2  and  C6_14
REMARK    2  A    between atoms: N1_3  and  N2_5
REMARK    3  A    between atoms: N2_5  and  C3_7
REMARK    4  A    between atoms: N5_16  and  N6_18
REMARK    5  A    between atoms: C8_19  and  N7_20
REMARK    6  A    between atoms: N9_25  and  C9_26
REMARK    7  A    between atoms: C10_32  and  N12_33
ROOT
HETATM    1  N6  UNL     1      18.142  40.535   2.764  1.00  0.00    -0.029 N
HETATM    2  C8  UNL     1      17.379  39.793   1.946  1.00  0.00     0.716 A
HETATM    3  N8  UNL     1      16.841  38.817   2.726  1.00  0.00    -0.118 N
ATOM      4  H8  UNL     1      16.210  38.085   2.400  1.00  0.00     0.206 HD
HETATM    5  N9  UNL     1      17.261  38.962   3.965  1.00  0.00    -0.167 N
HETATM    6  C11 UNL     1      18.070  40.027   4.006  1.00  0.00     0.384 A
HETATM    7  O2  UNL     1      18.646  40.454   5.026  1.00  0.00    -0.242 OA
ENDROOT
BRANCH   1   8
HETATM    8  N5  UNL     1      18.889  41.659   2.386  1.00  0.00    -0.278 N
HETATM    9  C6  UNL     1      20.165  41.611   2.214  1.00  0.00     0.046 C
HETATM   10  C7  UNL     1      20.939  40.352   2.408  1.00  0.00     0.072 C
ATOM     11  H5  UNL     1      18.406  42.545   2.241  1.00  0.00     0.188 HD
BRANCH   9  12
HETATM   12  C2  UNL     1      20.864  42.824   1.821  1.00  0.00     0.045 C
HETATM   13  C1  UNL     1      20.394  44.145   2.328  1.00  0.00     0.072 C
HETATM   14  N1  UNL     1      21.875  42.752   1.046  1.00  0.00    -0.301 N
ATOM     15  H1  UNL     1      22.193  41.846   0.701  1.00  0.00     0.186 HD
BRANCH  14  16
HETATM   16  N2  UNL     1      22.541  43.913   0.673  1.00  0.00    -0.271 N
ATOM     17  H2  UNL     1      22.444  44.753   1.243  1.00  0.00     0.190 HD
BRANCH  16  18
HETATM   18  C3  UNL     1      23.365  43.947  -0.508  1.00  0.00     0.190 C
HETATM   19  N3  UNL     1      23.901  42.931  -1.087  1.00  0.00    -0.360 N
HETATM   20  C4  UNL     1      24.658  43.344  -2.242  1.00  0.00     0.142 C
ATOM     21  H3  UNL     1      23.804  41.966  -0.773  1.00  0.00     0.162 HD
HETATM   22  C5  UNL     1      24.854  44.823  -2.007  1.00  0.00     0.142 C
HETATM   23  N4  UNL     1      23.701  45.142  -1.195  1.00  0.00    -0.360 N
ATOM     24  H4  UNL     1      23.226  46.042  -1.130  1.00  0.00     0.162 HD
ENDBRANCH  16  18
ENDBRANCH  14  16
ENDBRANCH   9  12
ENDBRANCH   1   8
BRANCH   2  25
HETATM   25  N7  UNL     1      17.205  39.986   0.671  1.00  0.00    -0.231 N
ATOM     26  H72 UNL     1      16.870  40.829   0.204  1.00  0.00     0.174 HD
ATOM     27  H71 UNL     1      17.381  39.309  -0.070  1.00  0.00     0.174 HD
ENDBRANCH   2  25
BRANCH   5  28
HETATM   28  C9  UNL     1      16.938  38.155   5.092  1.00  0.00     0.200 A
HETATM   29  N10 UNL     1      16.877  38.487   6.376  1.00  0.00    -0.220 N
HETATM   30  O1  UNL     1      16.547  37.449   7.056  1.00  0.00    -0.153 OA
ATOM     31  H10 UNL     1      17.062  39.414   6.759  1.00  0.00     0.198 HD
HETATM   32  N11 UNL     1      16.384  36.437   6.285  1.00  0.00    -0.222 N
HETATM   33  C10 UNL     1      16.618  36.821   5.027  1.00  0.00     0.169 A
ATOM     34  H11 UNL     1      16.121  35.497   6.581  1.00  0.00     0.198 HD
BRANCH  33  35
HETATM   35  N12 UNL     1      16.537  36.030   4.012  1.00  0.00    -0.381 N
ATOM     36 2H12 UNL     1      17.099  36.136   3.168  1.00  0.00     0.157 HD
ATOM     37 1H12 UNL     1      15.949  35.211   3.859  1.00  0.00     0.157 HD
ENDBRANCH  33  35
ENDBRANCH   5  28
TORSDOF 7
ENDMDL