MODEL 5
REMARK VINA RESULT: -6.397233392      1.543      2.788
REMARK  10 active torsions:
REMARK  status: ('A' for Active; 'I' for Inactive)
REMARK    1  A    between atoms: C2_2  and  N1_3
REMARK    2  A    between atoms: C2_2  and  C4_12
REMARK    3  A    between atoms: N1_3  and  C3_5
REMARK    4  A    between atoms: C3_5  and  O1_6
REMARK    5  A    between atoms: N2_8  and  O2_10
REMARK       I    between atoms: C4_12  and  N3_14
REMARK    6  A    between atoms: N3_14  and  O4_15
REMARK    7  A    between atoms: N3_14  and  C5_17
REMARK    8  A    between atoms: C6_18  and  N4_19
REMARK    9  A    between atoms: C9_26  and  N6_27
REMARK   10  A    between atoms: N7_30  and  N8_31
ROOT
HETATM    1  C5  UNL     1      12.384  43.592   7.330  1.00  0.00     0.213 A
HETATM    2  C6  UNL     1      11.268  42.814   7.515  1.00  0.00     0.219 A
HETATM    3  C7  UNL     1      10.073  43.197   6.893  1.00  0.00     0.298 A
HETATM    4  O7  UNL     1       9.082  42.447   7.096  1.00  0.00    -0.265 OA
HETATM    5  N5  UNL     1      10.048  44.304   6.141  1.00  0.00    -0.148 N
HETATM    6  C8  UNL     1       8.773  44.674   5.506  1.00  0.00     0.179 C
HETATM    7  C9  UNL     1      11.148  45.069   5.961  1.00  0.00     0.703 A
HETATM    8  N7  UNL     1      12.275  44.702   6.551  1.00  0.00    -0.071 N
ENDROOT
BRANCH   1   9
HETATM    9  N3  UNL     1      13.637  43.301   7.929  1.00  0.00    -0.167 N
HETATM   10  C4  UNL     1      14.089  43.784   9.174  1.00  0.00     0.272 C
HETATM   11  O3  UNL     1      13.375  44.531   9.857  1.00  0.00    -0.268 OA
BRANCH  10  12
HETATM   12  C2  UNL     1      15.430  43.399   9.676  1.00  0.00     0.176 C
HETATM   13  C1  UNL     1      16.234  44.579  10.158  1.00  0.00     0.042 C
BRANCH  12  14
HETATM   14  N1  UNL     1      15.365  42.351  10.654  1.00  0.00    -0.342 N
ATOM     15  H1  UNL     1      15.542  42.548  11.639  1.00  0.00     0.164 HD
BRANCH  14  16
HETATM   16  C3  UNL     1      15.046  41.021  10.222  1.00  0.00     0.237 C
HETATM   17  N2  UNL     1      14.009  40.438  10.701  1.00  0.00    -0.233 N
ATOM     18  H2  UNL     1      13.772  39.493  10.398  1.00  0.00     0.198 HD
BRANCH  16  19
HETATM   19  O1  UNL     1      15.832  40.356   9.299  1.00  0.00    -0.331 OA
ATOM     20  H1  UNL     1      16.242  40.816   8.575  1.00  0.00     0.221 HD
ENDBRANCH  16  19
BRANCH  17  21
HETATM   21  O2  UNL     1      13.221  41.075  11.611  1.00  0.00    -0.287 OA
ATOM     22  H2  UNL     1      12.277  41.089  11.502  1.00  0.00     0.244 HD
ENDBRANCH  17  21
ENDBRANCH  14  16
ENDBRANCH  12  14
ENDBRANCH  10  12
BRANCH   9  23
HETATM   23  O4  UNL     1      14.471  42.465   7.222  1.00  0.00    -0.278 OA
ATOM     24  H4  UNL     1      14.079  41.734   6.760  1.00  0.00     0.245 HD
ENDBRANCH   9  23
ENDBRANCH   1   9
BRANCH   2  25
HETATM   25  N4  UNL     1      11.300  41.643   8.339  1.00  0.00    -0.106 N
HETATM   26  O5  UNL     1      11.665  41.782   9.519  1.00  0.00    -0.531 OA
HETATM   27  O6  UNL     1      10.929  40.460   7.771  1.00  0.00    -0.531 OA
ENDBRANCH   2  25
BRANCH   8  28
HETATM   28  N8  UNL     1      13.413  45.473   6.383  1.00  0.00    -0.322 N
ATOM     29  H82 UNL     1      13.561  46.286   6.981  1.00  0.00     0.178 HD
ATOM     30  H81 UNL     1      14.068  45.185   5.655  1.00  0.00     0.178 HD
ENDBRANCH   8  28
BRANCH   7  31
HETATM   31  N6  UNL     1      11.054  46.133   5.224  1.00  0.00    -0.232 N
ATOM     32  H62 UNL     1      10.475  46.175   4.385  1.00  0.00     0.174 HD
ATOM     33  H61 UNL     1      11.585  46.962   5.489  1.00  0.00     0.174 HD
ENDBRANCH   7  31
TORSDOF 10
ENDMDL