MODEL 5
REMARK VINA RESULT: -6.620347712      5.819      8.049
REMARK  7 active torsions:
REMARK  status: ('A' for Active; 'I' for Inactive)
REMARK    1  A    between atoms: C2_3  and  O1_4
REMARK    2  A    between atoms: C3_6  and  C4_7
REMARK    3  A    between atoms: C4_7  and  O2_8
REMARK    4  A    between atoms: N2_10  and  N3_12
REMARK    5  A    between atoms: C5_13  and  N4_14
REMARK    6  A    between atoms: C6_17  and  C7_18
REMARK       I    between atoms: C7_18  and  N5_20
REMARK    7  A    between atoms: N5_20  and  N6_22
ROOT
HETATM    1  N3  UNL     1      18.022  42.539   4.732  1.00  0.00    -0.059 N
HETATM    2  C5  UNL     1      19.350  42.899   4.664  1.00  0.00     0.245 A
HETATM    3  C6  UNL     1      19.842  42.428   3.467  1.00  0.00     0.171 A
HETATM    4  N7  UNL     1      18.770  41.805   2.880  1.00  0.00    -0.181 N
ATOM      5  H7  UNL     1      18.797  41.343   1.970  1.00  0.00     0.184 HD
HETATM    6  C8  UNL     1      17.699  41.881   3.645  1.00  0.00     0.700 A
HETATM    7  N8  UNL     1      16.548  41.383   3.346  1.00  0.00    -0.233 N
ATOM      8  H81 UNL     1      16.297  40.872   2.500  1.00  0.00     0.174 HD
ATOM      9  H82 UNL     1      15.720  41.442   3.938  1.00  0.00     0.174 HD
ENDROOT
BRANCH   1  10
HETATM   10  N2  UNL     1      17.139  42.823   5.794  1.00  0.00    -0.255 N
HETATM   11  C4  UNL     1      17.096  42.065   6.812  1.00  0.00     0.195 C
ATOM     12  H2  UNL     1      16.532  43.641   5.745  1.00  0.00     0.190 HD
BRANCH  11  13
HETATM   13  C3  UNL     1      16.175  42.381   7.897  1.00  0.00     0.183 A
HETATM   14  C2  UNL     1      15.786  41.555   8.932  1.00  0.00     0.185 A
HETATM   15  N1  UNL     1      14.913  42.233   9.731  1.00  0.00    -0.276 N
HETATM   16  C1  UNL     1      14.293  41.679  10.922  1.00  0.00     0.164 C
HETATM   17  C9  UNL     1      14.797  43.435   9.170  1.00  0.00     0.374 A
HETATM   18  O6  UNL     1      15.539  43.510   8.099  1.00  0.00    -0.252 OA
HETATM   19  O7  UNL     1      14.076  44.367   9.606  1.00  0.00    -0.237 OA
BRANCH  14  20
HETATM   20  O1  UNL     1      16.199  40.253   9.143  1.00  0.00    -0.344 OA
ATOM     21  H1  UNL     1      15.649  39.486   9.034  1.00  0.00     0.219 HD
ENDBRANCH  14  20
ENDBRANCH  11  13
BRANCH  11  22
HETATM   22  O2  UNL     1      17.910  40.955   6.895  1.00  0.00    -0.343 OA
ATOM     23  H2  UNL     1      17.538  40.105   7.097  1.00  0.00     0.219 HD
ENDBRANCH  11  22
ENDBRANCH   1  10
BRANCH   2  24
HETATM   24  N4  UNL     1      20.004  43.622   5.687  1.00  0.00    -0.093 N
HETATM   25  O3  UNL     1      20.184  43.014   6.801  1.00  0.00    -0.530 OA
HETATM   26  O4  UNL     1      20.457  44.898   5.594  1.00  0.00    -0.530 OA
ENDBRANCH   2  24
BRANCH   3  27
HETATM   27  C7  UNL     1      21.175  42.536   2.906  1.00  0.00     0.290 C
HETATM   28  O5  UNL     1      21.840  41.640   2.361  1.00  0.00    -0.264 OA
HETATM   29  N5  UNL     1      21.826  43.820   2.977  1.00  0.00    -0.271 N
ATOM     30  H5  UNL     1      21.359  44.617   3.408  1.00  0.00     0.189 HD
BRANCH  29  31
HETATM   31  N6  UNL     1      23.129  43.950   2.436  1.00  0.00    -0.342 N
ATOM     32  H62 UNL     1      23.441  43.307   1.708  1.00  0.00     0.176 HD
ATOM     33  H61 UNL     1      23.733  44.692   2.790  1.00  0.00     0.176 HD
ENDBRANCH  29  31
ENDBRANCH   3  27
TORSDOF 7
ENDMDL