MODEL 2
REMARK VINA RESULT: -7.628123037      1.157      1.405
REMARK  7 active torsions:
REMARK  status: ('A' for Active; 'I' for Inactive)
REMARK    1  A    between atoms: N1_2  and  S1_4
REMARK    2  A    between atoms: S1_4  and  C3_7
REMARK    3  A    between atoms: C3_7  and  C4_8
REMARK    4  A    between atoms: C4_8  and  O2_9
REMARK    5  A    between atoms: O2_9  and  C5_10
REMARK    6  A    between atoms: C9_20  and  N5_21
REMARK    7  A    between atoms: N6_23  and  C10_25
ROOT
HETATM    1  C5  UNL     1      16.101  44.643   7.254  1.00  0.00     0.162 C
HETATM    2  N2  UNL     1      16.954  45.408   6.665  1.00  0.00    -0.344 N
ATOM      3  H2  UNL     1      16.840  46.421   6.641  1.00  0.00     0.164 HD
HETATM    4  C6  UNL     1      18.087  44.752   6.039  1.00  0.00     0.111 C
HETATM    5  C7  UNL     1      19.176  45.827   5.918  1.00  0.00     0.064 C
HETATM    6  C8  UNL     1      17.729  44.328   4.639  1.00  0.00     0.064 C
HETATM    7  N3  UNL     1      18.626  43.699   6.835  1.00  0.00    -0.310 N
ATOM      8  H3  UNL     1      19.626  43.611   7.012  1.00  0.00     0.182 HD
HETATM    9  N4  UNL     1      17.715  42.812   7.349  1.00  0.00    -0.306 N
ATOM     10  H4  UNL     1      18.000  41.935   7.785  1.00  0.00     0.182 HD
HETATM   11  C9  UNL     1      16.346  43.188   7.240  1.00  0.00     0.286 C
ENDROOT
BRANCH   1  12
HETATM   12  O2  UNL     1      15.020  45.260   7.854  1.00  0.00    -0.335 OA
BRANCH  12  13
HETATM   13  C4  UNL     1      13.952  45.830   7.111  1.00  0.00     0.190 C
BRANCH  13  14
HETATM   14  C3  UNL     1      12.981  44.740   6.791  1.00  0.00     0.143 C
BRANCH  14  15
HETATM   15  S1  UNL     1      11.704  44.567   7.996  1.00  0.00     0.018 S
HETATM   16  C2  UNL     1      11.222  42.881   8.228  1.00  0.00     0.136 C
HETATM   17  O1  UNL     1      12.234  45.086   9.302  1.00  0.00    -0.250 OA
BRANCH  15  18
HETATM   18  N1  UNL     1      10.466  45.442   7.631  1.00  0.00    -0.356 N
HETATM   19  C1  UNL     1       9.258  44.723   7.280  1.00  0.00     0.156 C
ATOM     20  H1  UNL     1      10.505  46.461   7.640  1.00  0.00     0.168 HD
ENDBRANCH  15  18
ENDBRANCH  14  15
ENDBRANCH  13  14
ENDBRANCH  12  13
ENDBRANCH   1  12
BRANCH  11  21
HETATM   21  N5  UNL     1      15.522  42.525   8.220  1.00  0.00    -0.306 N
HETATM   22  N6  UNL     1      15.945  42.481   9.398  1.00  0.00    -0.302 N
ATOM     23  H6  UNL     1      16.845  42.910   9.610  1.00  0.00     0.183 HD
ATOM     24  H5  UNL     1      14.628  42.108   7.963  1.00  0.00     0.182 HD
BRANCH  22  25
HETATM   25  C10 UNL     1      15.223  41.855  10.455  1.00  0.00     0.321 C
HETATM   26  N7  UNL     1      14.912  40.486  10.070  1.00  0.00    -0.083 NA
HETATM   27  N8  UNL     1      13.879  40.184  10.979  1.00  0.00    -0.018 NA
HETATM   28  N9  UNL     1      13.146  41.347  11.158  1.00  0.00    -0.018 NA
HETATM   29  N10 UNL     1      13.915  42.408  10.671  1.00  0.00    -0.083 NA
ENDBRANCH  22  25
ENDBRANCH  11  21
TORSDOF 7
ENDMDL