MODEL 1
REMARK VINA RESULT: -7.961518415      0.000      0.000
REMARK  8 active torsions:
REMARK  status: ('A' for Active; 'I' for Inactive)
REMARK    1  A    between atoms: O1_2  and  C2_3
REMARK       I    between atoms: C2_3  and  N1_5
REMARK    2  A    between atoms: N1_5  and  N2_6
REMARK    3  A    between atoms: N1_5  and  O5_30
REMARK    4  A    between atoms: C3_8  and  C4_9
REMARK    5  A    between atoms: C3_8  and  C5_12
REMARK    6  A    between atoms: N4_16  and  N5_18
REMARK    7  A    between atoms: N7_24  and  N8_25
REMARK    8  A    between atoms: O5_30  and  N10_31
ROOT
HETATM    1  N5  UNL     1      17.534  44.613   4.090  1.00  0.00    -0.281 N
ATOM      2  H5  UNL     1      16.613  45.051   4.101  1.00  0.00     0.188 HD
HETATM    3  C7  UNL     1      18.576  45.301   3.813  1.00  0.00     0.102 C
HETATM    4  C8  UNL     1      19.911  44.689   3.792  1.00  0.00     0.082 C
HETATM    5  C9  UNL     1      18.427  46.693   3.521  1.00  0.00     0.114 C
HETATM    6  N6  UNL     1      18.318  47.826   3.304  1.00  0.00    -0.190 NA
ENDROOT
BRANCH   1   7
HETATM    7  N4  UNL     1      17.675  43.260   4.374  1.00  0.00    -0.129 N
HETATM    8  C6  UNL     1      17.240  42.776   5.484  1.00  0.00     0.719 A
HETATM    9  N3  UNL     1      16.622  43.501   6.455  1.00  0.00    -0.183 N
HETATM   10  N7  UNL     1      17.283  41.511   5.917  1.00  0.00    -0.075 N
HETATM   11  C5  UNL     1      16.292  42.696   7.462  1.00  0.00     0.128 A
ATOM     12  H3  UNL     1      16.440  44.503   6.417  1.00  0.00     0.184 HD
HETATM   13  C10 UNL     1      16.715  41.398   7.128  1.00  0.00     0.185 A
HETATM   14  N9  UNL     1      16.592  40.202   7.882  1.00  0.00    -0.077 NA
ATOM     15  H4  UNL     1      18.127  42.646   3.697  1.00  0.00     0.205 HD
BRANCH  11  16
HETATM   16  C3  UNL     1      15.590  43.001   8.725  1.00  0.00     0.158 C
HETATM   17  N2  UNL     1      15.393  42.028   9.493  1.00  0.00    -0.259 N
ATOM     18  H2  UNL     1      15.760  41.166   9.088  1.00  0.00     0.190 HD
BRANCH  17  19
HETATM   19  N1  UNL     1      14.841  41.795  10.687  1.00  0.00    -0.073 N
HETATM   20  C2  UNL     1      13.472  41.312  10.780  1.00  0.00     0.408 C
HETATM   21  O2  UNL     1      12.954  41.085  11.926  1.00  0.00    -0.234 OA
BRANCH  20  22
HETATM   22  O1  UNL     1      12.681  41.085   9.687  1.00  0.00    -0.306 OA
HETATM   23  C1  UNL     1      12.019  42.055   8.922  1.00  0.00     0.215 C
ENDBRANCH  20  22
BRANCH  19  24
HETATM   24  O5  UNL     1      15.503  42.010  11.858  1.00  0.00    -0.136 OA
BRANCH  24  25
HETATM   25  N10 UNL     1      16.644  42.680  11.723  1.00  0.00    -0.284 N
ATOM     26 2H10 UNL     1      17.543  42.275  11.983  1.00  0.00     0.186 HD
ATOM     27 1H10 UNL     1      16.533  43.619  11.341  1.00  0.00     0.186 HD
ENDBRANCH  24  25
ENDBRANCH  19  24
ENDBRANCH  17  19
BRANCH  16  28
HETATM   28  C4  UNL     1      15.187  44.356   9.009  1.00  0.00     0.230 C
HETATM   29  O3  UNL     1      15.631  44.921  10.061  1.00  0.00    -0.643 OA
HETATM   30  O4  UNL     1      14.340  45.028   8.165  1.00  0.00    -0.643 OA
ENDBRANCH  16  28
ENDBRANCH  11  16
BRANCH  10  31
HETATM   31  N8  UNL     1      17.866  40.486   5.151  1.00  0.00    -0.323 N
ATOM     32  H82 UNL     1      17.483  40.047   4.313  1.00  0.00     0.178 HD
ATOM     33  H81 UNL     1      18.770  40.081   5.395  1.00  0.00     0.178 HD
ENDBRANCH  10  31
ENDBRANCH   1   7
TORSDOF 8
ENDMDL