MODEL 2
REMARK VINA RESULT: -6.772337889      7.818      9.636
REMARK  10 active torsions:
REMARK  status: ('A' for Active; 'I' for Inactive)
REMARK    1  A    between atoms: C5_14  and  N5_15
REMARK    2  A    between atoms: N6_18  and  C6_19
REMARK    3  A    between atoms: C6_19  and  C7_20
REMARK    4  A    between atoms: C7_20  and  O1_21
REMARK    5  A    between atoms: C7_20  and  C8_23
REMARK    6  A    between atoms: C8_23  and  O3_25
REMARK    7  A    between atoms: O3_25  and  N7_26
REMARK    8  A    between atoms: N7_26  and  O4_27
REMARK    9  A    between atoms: N8_29  and  N9_31
REMARK   10  A    between atoms: N9_31  and  N10_33
ROOT
HETATM    1  C1  UNL     1      16.905  44.358   4.544  1.00  0.00     0.177 C
HETATM    2  N1  UNL     1      18.169  44.274   3.888  1.00  0.00    -0.170 N
HETATM    3  C2  UNL     1      18.767  45.426   3.452  1.00  0.00     0.680 A
HETATM    4  N2  UNL     1      18.195  46.562   3.672  1.00  0.00    -0.234 N
ATOM      5  H21 UNL     1      18.641  47.420   3.348  1.00  0.00     0.174 HD
ATOM      6  H22 UNL     1      17.305  46.561   4.170  1.00  0.00     0.174 HD
HETATM    7  N3  UNL     1      19.919  45.427   2.808  1.00  0.00    -0.179 N
ATOM      8  H3  UNL     1      20.330  46.308   2.500  1.00  0.00     0.185 HD
HETATM    9  C3  UNL     1      20.540  44.289   2.563  1.00  0.00     0.147 A
HETATM   10  S1  UNL     1      21.969  44.197   1.771  1.00  0.00    -0.057 SA
HETATM   11  C4  UNL     1      19.958  43.108   2.992  1.00  0.00     0.133 A
HETATM   12  N4  UNL     1      20.347  41.860   2.872  1.00  0.00    -0.185 N
ATOM     13  H4  UNL     1      21.203  41.544   2.417  1.00  0.00     0.184 HD
HETATM   14  C5  UNL     1      19.427  41.071   3.450  1.00  0.00     0.680 A
HETATM   15  N6  UNL     1      18.413  41.811   3.963  1.00  0.00    -0.162 N
HETATM   16  C9  UNL     1      18.743  43.098   3.672  1.00  0.00     0.171 A
ENDROOT
BRANCH  15  17
HETATM   17  C6  UNL     1      17.283  41.336   4.661  1.00  0.00     0.191 C
BRANCH  17  18
HETATM   18  C7  UNL     1      17.434  41.299   6.189  1.00  0.00     0.238 C
BRANCH  18  19
HETATM   19  O1  UNL     1      18.685  41.758   6.534  1.00  0.00    -0.384 OA
ATOM     20  H1  UNL     1      18.597  42.531   7.080  1.00  0.00     0.210 HD
ENDBRANCH  18  19
BRANCH  18  21
HETATM   21  C8  UNL     1      17.336  39.863   6.546  1.00  0.00     0.315 C
HETATM   22  O2  UNL     1      16.759  39.459   7.590  1.00  0.00    -0.260 OA
BRANCH  21  23
HETATM   23  O3  UNL     1      17.901  38.926   5.700  1.00  0.00    -0.153 OA
BRANCH  23  24
HETATM   24  N7  UNL     1      17.288  37.722   5.442  1.00  0.00    -0.030 N
HETATM   25  N8  UNL     1      16.913  37.498   4.265  1.00  0.00    -0.180 N
ATOM     26  H8  UNL     1      17.063  38.194   3.536  1.00  0.00     0.214 HD
BRANCH  24  27
HETATM   27  O4  UNL     1      17.096  36.811   6.419  1.00  0.00    -0.247 OA
ATOM     28  H4  UNL     1      16.271  36.348   6.506  1.00  0.00     0.249 HD
ENDBRANCH  24  27
BRANCH  25  29
HETATM   29  N9  UNL     1      16.289  36.288   3.963  1.00  0.00    -0.231 N
ATOM     30  H9  UNL     1      15.269  36.273   3.922  1.00  0.00     0.209 HD
BRANCH  29  31
HETATM   31  N10 UNL     1      16.972  35.099   3.714  1.00  0.00    -0.330 N
ATOM     32 2H10 UNL     1      17.889  35.176   3.274  1.00  0.00     0.178 HD
ATOM     33 1H10 UNL     1      16.610  34.173   3.944  1.00  0.00     0.178 HD
ENDBRANCH  29  31
ENDBRANCH  25  29
ENDBRANCH  23  24
ENDBRANCH  21  23
ENDBRANCH  18  21
ENDBRANCH  17  18
ENDBRANCH  15  17
BRANCH  14  34
HETATM   34  N5  UNL     1      19.504  39.790   3.485  1.00  0.00    -0.234 N
ATOM     35  H52 UNL     1      18.950  39.149   2.918  1.00  0.00     0.174 HD
ATOM     36  H51 UNL     1      20.151  39.275   4.083  1.00  0.00     0.174 HD
ENDBRANCH  14  34
TORSDOF 10
ENDMDL