MODEL 5
REMARK VINA RESULT: -7.026438322      6.644      9.517
REMARK  10 active torsions:
REMARK  status: ('A' for Active; 'I' for Inactive)
REMARK    1  A    between atoms: N1_1  and  N2_4
REMARK    2  A    between atoms: C1_6  and  C2_7
REMARK    3  A    between atoms: C3_8  and  O1_9
REMARK    4  A    between atoms: C4_13  and  N4_14
REMARK    5  A    between atoms: N4_14  and  N5_16
REMARK    6  A    between atoms: C5_18  and  C6_19
REMARK    7  A    between atoms: C7_21  and  N6_22
REMARK    8  A    between atoms: C9_26  and  O5_27
REMARK    9  A    between atoms: N7_29  and  N8_30
REMARK   10  A    between atoms: N9_34  and  N10_36
ROOT
HETATM    1  C2  UNL     1       7.963  41.749   3.173  1.00  0.00     0.080 A
HETATM    2  C3  UNL     1       8.426  42.937   3.688  1.00  0.00     0.171 A
HETATM    3  N3  UNL     1       8.423  43.160   5.029  1.00  0.00    -0.166 N
ATOM      4  H3  UNL     1       8.771  44.050   5.388  1.00  0.00     0.186 HD
HETATM    5  C4  UNL     1       7.974  42.237   5.892  1.00  0.00     0.721 A
HETATM    6  N7  UNL     1       7.520  41.078   5.421  1.00  0.00    -0.072 N
HETATM    7  C10 UNL     1       7.488  40.773   4.074  1.00  0.00     0.175 A
HETATM    8  N9  UNL     1       7.041  39.663   3.785  1.00  0.00    -0.289 N
ATOM      9  H9  UNL     1       6.798  39.239   4.681  1.00  0.00     0.188 HD
ENDROOT
BRANCH   5  10
HETATM   10  N4  UNL     1       7.976  42.461   7.183  1.00  0.00    -0.130 N
ATOM     11  H4  UNL     1       7.109  42.474   7.720  1.00  0.00     0.205 HD
BRANCH  10  12
HETATM   12  N5  UNL     1       9.206  42.680   7.792  1.00  0.00    -0.295 N
HETATM   13  C5  UNL     1      10.104  41.763   7.877  1.00  0.00     0.147 C
ATOM     14  H5  UNL     1       9.403  43.599   8.185  1.00  0.00     0.186 HD
BRANCH  13  15
HETATM   15  C6  UNL     1      11.372  42.073   8.532  1.00  0.00     0.128 A
HETATM   16  O2  UNL     1      12.067  41.292   9.325  1.00  0.00    -0.284 OA
HETATM   17  C7  UNL     1      13.149  41.855   9.748  1.00  0.00     0.218 A
HETATM   18  C8  UNL     1      13.192  43.127   9.194  1.00  0.00     0.102 A
HETATM   19  C9  UNL     1      12.077  43.266   8.430  1.00  0.00     0.105 A
BRANCH  17  20
HETATM   20  N6  UNL     1      14.142  41.306  10.624  1.00  0.00    -0.090 N
HETATM   21  O3  UNL     1      14.538  40.149  10.417  1.00  0.00    -0.530 OA
HETATM   22  O4  UNL     1      14.637  42.042  11.659  1.00  0.00    -0.530 OA
ENDBRANCH  17  20
BRANCH  19  23
HETATM   23  O5  UNL     1      11.656  44.366   7.662  1.00  0.00    -0.358 OA
ATOM     24  H5  UNL     1      10.797  44.766   7.733  1.00  0.00     0.217 HD
ENDBRANCH  19  23
ENDBRANCH  13  15
ENDBRANCH  10  12
ENDBRANCH   5  10
BRANCH   6  25
HETATM   25  N8  UNL     1       7.059  40.139   6.345  1.00  0.00    -0.322 N
ATOM     26  H82 UNL     1       6.200  40.327   6.861  1.00  0.00     0.178 HD
ATOM     27  H81 UNL     1       7.609  39.289   6.470  1.00  0.00     0.178 HD
ENDBRANCH   6  25
BRANCH   2  28
HETATM   28  O1  UNL     1       8.920  43.982   2.920  1.00  0.00    -0.345 OA
ATOM     29  H1  UNL     1       9.656  44.527   3.170  1.00  0.00     0.219 HD
ENDBRANCH   2  28
BRANCH   1  30
HETATM   30  C1  UNL     1       7.951  41.480   1.753  1.00  0.00     0.126 C
HETATM   31  N2  UNL     1       8.732  41.720   0.839  1.00  0.00    -0.317 N
ATOM     32  H2  UNL     1       8.292  41.335   0.003  1.00  0.00     0.185 HD
BRANCH  31  33
HETATM   33  N1  UNL     1       9.864  42.236   0.425  1.00  0.00    -0.345 N
ATOM     34  H12 UNL     1       9.917  41.928  -0.546  1.00  0.00     0.176 HD
ATOM     35  H11 UNL     1      10.699  42.789   0.614  1.00  0.00     0.176 HD
ENDBRANCH  31  33
ENDBRANCH   1  30
BRANCH   8  36
HETATM   36  N10 UNL     1       6.724  38.758   2.894  1.00  0.00    -0.344 N
ATOM     37 2H10 UNL     1       5.724  38.913   2.767  1.00  0.00     0.176 HD
ATOM     38 1H10 UNL     1       6.986  37.990   2.277  1.00  0.00     0.176 HD
ENDBRANCH   8  36
TORSDOF 10
ENDMDL