MODEL 1
REMARK VINA RESULT: -7.390756762      0.000      0.000
REMARK  8 active torsions:
REMARK  status: ('A' for Active; 'I' for Inactive)
REMARK    1  A    between atoms: N1_1  and  C1_4
REMARK    2  A    between atoms: C2_6  and  C3_7
REMARK    3  A    between atoms: N3_10  and  N4_11
REMARK    4  A    between atoms: N4_11  and  S2_13
REMARK    5  A    between atoms: S2_13  and  N5_14
REMARK    6  A    between atoms: C5_21  and  N7_22
REMARK    7  A    between atoms: C6_25  and  O5_26
REMARK    8  A    between atoms: N8_28  and  N9_29
ROOT
HETATM    1  C3  UNL     1      13.389  43.026   8.934  1.00  0.00     0.108 A
HETATM    2  N2  UNL     1      14.405  43.795   8.412  1.00  0.00    -0.274 N
ATOM      3  H2  UNL     1      14.269  44.539   7.728  1.00  0.00     0.189 HD
HETATM    4  N3  UNL     1      15.559  43.451   8.903  1.00  0.00    -0.169 N
HETATM    5  C4  UNL     1      15.372  42.457   9.760  1.00  0.00     0.192 A
HETATM    6  N6  UNL     1      16.364  41.759  10.542  1.00  0.00    -0.076 NA
HETATM    7  C5  UNL     1      13.983  42.190   9.777  1.00  0.00     0.176 A
ENDROOT
BRANCH   1   8
HETATM    8  C2  UNL     1      12.009  43.226   8.475  1.00  0.00     0.091 A
HETATM    9  S1  UNL     1      11.298  44.786   8.123  1.00  0.00    -0.046 SA
HETATM   10  C1  UNL     1       9.764  44.269   7.638  1.00  0.00     0.166 A
HETATM   11  N8  UNL     1       9.842  42.958   7.757  1.00  0.00    -0.217 N
HETATM   12  C6  UNL     1      10.965  42.409   8.177  1.00  0.00     0.183 A
BRANCH  10  13
HETATM   13  N1  UNL     1       8.752  44.997   7.241  1.00  0.00    -0.378 N
ATOM     14  H12 UNL     1       8.738  45.982   6.975  1.00  0.00     0.158 HD
ATOM     15  H11 UNL     1       7.779  44.715   7.124  1.00  0.00     0.158 HD
ENDBRANCH  10  13
BRANCH  11  16
HETATM   16  N9  UNL     1       8.689  42.160   7.426  1.00  0.00    -0.334 N
ATOM     17  H92 UNL     1       7.795  42.587   7.183  1.00  0.00     0.177 HD
ATOM     18  H91 UNL     1       8.775  41.144   7.434  1.00  0.00     0.177 HD
ENDBRANCH  11  16
BRANCH  12  19
HETATM   19  O5  UNL     1      11.071  40.991   8.308  1.00  0.00    -0.344 OA
ATOM     20  H5  UNL     1      10.525  40.406   7.796  1.00  0.00     0.219 HD
ENDBRANCH  12  19
ENDBRANCH   1   8
BRANCH   7  21
HETATM   21  N7  UNL     1      13.452  41.178  10.625  1.00  0.00    -0.110 N
HETATM   22  O3  UNL     1      13.243  40.052  10.159  1.00  0.00    -0.532 OA
HETATM   23  O4  UNL     1      13.130  41.461  11.913  1.00  0.00    -0.532 OA
ENDBRANCH   7  21
BRANCH   4  24
HETATM   24  N4  UNL     1      16.830  44.005   8.643  1.00  0.00    -0.187 N
ATOM     25  H4  UNL     1      17.360  44.448   9.393  1.00  0.00     0.203 HD
BRANCH  24  26
HETATM   26  S2  UNL     1      17.473  43.929   7.071  1.00  0.00     0.332 S
HETATM   27  O1  UNL     1      16.722  42.927   6.230  1.00  0.00    -0.181 OA
HETATM   28  O2  UNL     1      17.409  45.306   6.429  1.00  0.00    -0.181 OA
BRANCH  26  29
HETATM   29  N5  UNL     1      19.133  43.443   7.072  1.00  0.00    -0.310 N
ATOM     30  H52 UNL     1      19.608  43.085   7.900  1.00  0.00     0.170 HD
ATOM     31  H51 UNL     1      19.566  43.559   6.156  1.00  0.00     0.170 HD
ENDBRANCH  26  29
ENDBRANCH  24  26
ENDBRANCH   4  24
TORSDOF 8
ENDMDL