MODEL 4
REMARK VINA RESULT: -7.108285140      1.041      1.793
REMARK  7 active torsions:
REMARK  status: ('A' for Active; 'I' for Inactive)
REMARK    1  A    between atoms: C2_7  and  S1_8
REMARK    2  A    between atoms: S1_8  and  S2_9
REMARK    3  A    between atoms: S2_9  and  C3_10
REMARK    4  A    between atoms: C4_11  and  O1_12
REMARK    5  A    between atoms: N4_18  and  O3_19
REMARK    6  A    between atoms: C6_25  and  N7_26
REMARK    7  A    between atoms: C7_33  and  N11_34
ROOT
HETATM    1  N1  UNL     1      16.893  38.672   7.258  1.00  0.00    -0.382 N
ATOM      2  H11 UNL     1      17.010  37.679   7.055  1.00  0.00     0.157 HD
ATOM      3  H12 UNL     1      16.711  39.011   8.202  1.00  0.00     0.157 HD
HETATM    4  C1  UNL     1      16.973  39.550   6.298  1.00  0.00     0.149 A
HETATM    5  N2  UNL     1      16.817  40.868   6.566  1.00  0.00    -0.318 N
ATOM      6  H2  UNL     1      16.637  41.180   7.520  1.00  0.00     0.169 HD
HETATM    7  C2  UNL     1      16.904  41.767   5.558  1.00  0.00     0.172 A
HETATM    8  N5  UNL     1      17.142  41.321   4.322  1.00  0.00    -0.277 N
ATOM      9  H5  UNL     1      17.208  41.995   3.560  1.00  0.00     0.189 HD
HETATM   10  N6  UNL     1      17.298  40.020   4.050  1.00  0.00    -0.278 N
ATOM     11  H6  UNL     1      17.479  39.727   3.090  1.00  0.00     0.189 HD
HETATM   12  C6  UNL     1      17.219  39.091   5.020  1.00  0.00     0.205 A
ENDROOT
BRANCH   7  13
HETATM   13  S1  UNL     1      16.691  43.479   5.967  1.00  0.00    -0.013 SA
BRANCH  13  14
HETATM   14  S2  UNL     1      16.861  43.686   8.078  1.00  0.00    -0.025 SA
BRANCH  14  15
HETATM   15  C3  UNL     1      15.378  43.030   8.815  1.00  0.00     0.166 A
HETATM   16  C4  UNL     1      14.192  43.759   8.875  1.00  0.00     0.182 A
HETATM   17  N3  UNL     1      13.291  42.970   9.488  1.00  0.00    -0.285 N
HETATM   18  C5  UNL     1      13.869  41.792   9.805  1.00  0.00     0.353 A
ATOM     19  H3  UNL     1      12.322  43.223   9.682  1.00  0.00     0.172 HD
HETATM   20  O2  UNL     1      13.314  40.810  10.392  1.00  0.00    -0.244 OA
HETATM   21  N4  UNL     1      15.147  41.853   9.384  1.00  0.00    -0.161 N
BRANCH  16  22
HETATM   22  O1  UNL     1      13.948  45.042   8.410  1.00  0.00    -0.344 OA
ATOM     23  H1  UNL     1      13.168  45.572   8.526  1.00  0.00     0.219 HD
ENDBRANCH  16  22
BRANCH  21  24
HETATM   24  O3  UNL     1      16.094  40.851   9.513  1.00  0.00    -0.278 OA
ATOM     25  H3  UNL     1      16.222  40.335  10.300  1.00  0.00     0.245 HD
ENDBRANCH  21  24
ENDBRANCH  14  15
ENDBRANCH  13  14
ENDBRANCH   7  13
BRANCH  12  26
HETATM   26  N7  UNL     1      17.383  37.706   4.741  1.00  0.00    -0.048 N
HETATM   27  N8  UNL     1      16.453  36.872   4.269  1.00  0.00    -0.205 N
HETATM   28  N9  UNL     1      16.964  35.665   4.134  1.00  0.00    -0.213 N
ATOM     29  H8  UNL     1      15.491  37.130   4.047  1.00  0.00     0.211 HD
HETATM   30  N10 UNL     1      18.233  35.668   4.508  1.00  0.00    -0.115 N
ATOM     31  H9  UNL     1      16.457  34.850   3.791  1.00  0.00     0.210 HD
HETATM   32  C7  UNL     1      18.484  36.947   4.884  1.00  0.00     0.716 A
ATOM     33  H10 UNL     1      18.881  34.880   4.512  1.00  0.00     0.207 HD
BRANCH  32  34
HETATM   34  N11 UNL     1      19.616  37.387   5.322  1.00  0.00    -0.231 N
ATOM     35 2H11 UNL     1      19.756  38.271   5.810  1.00  0.00     0.174 HD
ATOM     36 1H11 UNL     1      20.502  36.890   5.222  1.00  0.00     0.174 HD
ENDBRANCH  32  34
ENDBRANCH  12  26
TORSDOF 7
ENDMDL