MODEL 1
REMARK VINA RESULT: -5.044079866      0.000      0.000
REMARK  2 active torsions:
REMARK  status: ('A' for Active; 'I' for Inactive)
REMARK       I    between atoms: C1_4  and  N2_5
REMARK       I    between atoms: C1_4  and  N4_10
REMARK    1  A    between atoms: N2_5  and  N3_7
REMARK    2  A    between atoms: N5_13  and  N6_14
ROOT
HETATM    1  N1  UNL     1      46.865  -4.235  14.253  1.00  0.00    -0.232 N
ATOM      2  H11 UNL     1      46.270  -3.431  14.452  1.00  0.00     0.174 HD
ATOM      3  H12 UNL     1      47.174  -4.888  14.974  1.00  0.00     0.174 HD
HETATM    4  C1  UNL     1      47.241  -4.431  13.034  1.00  0.00     0.707 C
HETATM    5  N2  UNL     1      48.070  -5.551  12.756  1.00  0.00    -0.138 N
ATOM      6  H2  UNL     1      49.009  -5.572  13.155  1.00  0.00     0.205 HD
HETATM    7  N4  UNL     1      46.810  -3.520  12.029  1.00  0.00    -0.117 N
HETATM    8  C2  UNL     1      45.371  -3.250  11.914  1.00  0.00     0.190 C
HETATM    9  C3  UNL     1      45.173  -1.759  11.731  1.00  0.00     0.176 C
HETATM   10  N5  UNL     1      45.830  -1.402  10.484  1.00  0.00    -0.246 N
HETATM   11  C4  UNL     1      47.193  -1.802  10.373  1.00  0.00     0.355 C
HETATM   12  O1  UNL     1      47.923  -1.169   9.563  1.00  0.00    -0.244 OA
HETATM   13  N7  UNL     1      47.700  -2.882  11.160  1.00  0.00    -0.234 N
ATOM     14  H7  UNL     1      48.674  -3.176  11.090  1.00  0.00     0.192 HD
ENDROOT
BRANCH   5  15
HETATM   15  N3  UNL     1      47.663  -6.619  11.966  1.00  0.00    -0.331 N
ATOM     16  H32 UNL     1      46.676  -6.666  11.713  1.00  0.00     0.177 HD
ATOM     17  H31 UNL     1      48.301  -7.342  11.635  1.00  0.00     0.177 HD
ENDBRANCH   5  15
BRANCH  10  18
HETATM   18  N6  UNL     1      45.160  -0.709   9.458  1.00  0.00    -0.339 N
ATOM     19  H62 UNL     1      45.361   0.265   9.234  1.00  0.00     0.177 HD
ATOM     20  H61 UNL     1      44.439  -1.150   8.888  1.00  0.00     0.177 HD
ENDBRANCH  10  18
TORSDOF 2
ENDMDL