MODEL 3
REMARK VINA RESULT: -4.568174469      1.992      5.180
REMARK  5 active torsions:
REMARK  status: ('A' for Active; 'I' for Inactive)
REMARK    1  A    between atoms: N1_1  and  N2_4
REMARK    2  A    between atoms: N2_4  and  C1_6
REMARK    3  A    between atoms: C1_6  and  N3_7
REMARK    4  A    between atoms: N3_7  and  N4_9
REMARK    5  A    between atoms: N4_9  and  C2_11
ROOT
HETATM    1  C2  UNL     1      46.288  -3.783  12.508  1.00  0.00     0.204 A
HETATM    2  N5  UNL     1      46.056  -4.083  13.794  1.00  0.00    -0.276 N
ATOM      3  H5  UNL     1      45.175  -3.791  14.215  1.00  0.00     0.189 HD
HETATM    4  N6  UNL     1      46.936  -4.748  14.540  1.00  0.00    -0.250 N
ATOM      5  H6  UNL     1      46.740  -4.967  15.516  1.00  0.00     0.192 HD
HETATM    6  C3  UNL     1      48.087  -5.120  13.965  1.00  0.00     0.341 A
HETATM    7  O1  UNL     1      48.940  -5.758  14.668  1.00  0.00    -0.245 OA
HETATM    8  N7  UNL     1      48.396  -4.855  12.676  1.00  0.00    -0.271 N
ATOM      9  H7  UNL     1      49.283  -5.154  12.271  1.00  0.00     0.174 HD
HETATM   10  C4  UNL     1      47.483  -4.179  11.947  1.00  0.00     0.296 A
HETATM   11  O2  UNL     1      47.701  -3.898  10.745  1.00  0.00    -0.264 OA
ENDROOT
BRANCH   1  12
HETATM   12  N4  UNL     1      45.411  -3.131  11.802  1.00  0.00    -0.279 N
ATOM     13  H4  UNL     1      44.691  -3.640  11.290  1.00  0.00     0.189 HD
BRANCH  12  14
HETATM   14  N3  UNL     1      45.452  -1.738  11.743  1.00  0.00    -0.293 N
ATOM     15  H3  UNL     1      45.550  -1.196  12.602  1.00  0.00     0.187 HD
BRANCH  14  16
HETATM   16  C1  UNL     1      45.368  -1.136  10.613  1.00  0.00     0.213 C
BRANCH  16  17
HETATM   17  N2  UNL     1      46.137  -1.607   9.506  1.00  0.00    -0.301 N
ATOM     18  H2  UNL     1      45.666  -2.119   8.760  1.00  0.00     0.187 HD
BRANCH  17  19
HETATM   19  N1  UNL     1      47.515  -1.390   9.410  1.00  0.00    -0.344 N
ATOM     20  H12 UNL     1      48.138  -2.093   9.808  1.00  0.00     0.176 HD
ATOM     21  H11 UNL     1      47.905  -0.561   8.961  1.00  0.00     0.176 HD
ENDBRANCH  17  19
ENDBRANCH  16  17
ENDBRANCH  14  16
ENDBRANCH  12  14
ENDBRANCH   1  12
TORSDOF 5
ENDMDL