MODEL 2
REMARK VINA RESULT: -5.376765224      1.192      2.824
REMARK  2 active torsions:
REMARK  status: ('A' for Active; 'I' for Inactive)
REMARK    1  A    between atoms: N1_2  and  C2_4
REMARK    2  A    between atoms: N4_12  and  N5_14
ROOT
HETATM    1  C2  UNL     1      47.758  -4.226  12.041  1.00  0.00     0.684 C
HETATM    2  N2  UNL     1      46.498  -4.142  12.518  1.00  0.00    -0.141 N
ATOM      3  H2  UNL     1      46.275  -4.687  13.351  1.00  0.00     0.189 HD
HETATM    4  C3  UNL     1      45.508  -3.396  11.985  1.00  0.00     0.340 C
HETATM    5  O1  UNL     1      44.356  -3.693  12.401  1.00  0.00    -0.246 OA
HETATM    6  N3  UNL     1      45.606  -2.388  11.073  1.00  0.00    -0.288 N
ATOM      7  H3  UNL     1      44.799  -1.765  11.034  1.00  0.00     0.172 HD
HETATM    8  C4  UNL     1      46.604  -2.083  10.210  1.00  0.00     0.193 C
HETATM    9  N4  UNL     1      46.378  -1.120   9.385  1.00  0.00    -0.287 N
ATOM     10  H4  UNL     1      47.083  -0.835   8.706  1.00  0.00     0.188 HD
HETATM   11  C5  UNL     1      47.829  -2.714  10.146  1.00  0.00     0.305 C
HETATM   12  O2  UNL     1      48.577  -2.298   9.233  1.00  0.00    -0.263 OA
HETATM   13  N6  UNL     1      48.314  -3.709  10.933  1.00  0.00    -0.153 N
ATOM     14  H6  UNL     1      49.207  -4.112  10.649  1.00  0.00     0.187 HD
ENDROOT
BRANCH   9  15
HETATM   15  N5  UNL     1      45.142  -0.481   9.447  1.00  0.00    -0.343 N
ATOM     16  H52 UNL     1      44.457  -0.621   8.705  1.00  0.00     0.176 HD
ATOM     17  H51 UNL     1      44.953   0.121  10.249  1.00  0.00     0.176 HD
ENDBRANCH   9  15
BRANCH   1  18
HETATM   18  N1  UNL     1      48.541  -4.917  12.781  1.00  0.00    -0.230 N
HETATM   19  C1  UNL     1      48.295  -5.019  14.189  1.00  0.00     0.165 C
ATOM     20  H1  UNL     1      49.340  -5.397  12.368  1.00  0.00     0.177 HD
ENDBRANCH   1  18
TORSDOF 2
ENDMDL