MODEL 3
REMARK VINA RESULT: -4.728243445      0.946      1.278
REMARK  3 active torsions:
REMARK  status: ('A' for Active; 'I' for Inactive)
REMARK    1  A    between atoms: C2_3  and  C3_4
REMARK    2  A    between atoms: C4_9  and  N3_10
REMARK    3  A    between atoms: C5_15  and  N5_16
ROOT
HETATM    1  C1  UNL     1      48.284  -3.542  12.472  1.00  0.00     0.177 C
HETATM    2  N1  UNL     1      47.436  -2.757  11.627  1.00  0.00    -0.165 N
HETATM    3  C2  UNL     1      47.672  -2.650  10.307  1.00  0.00     0.214 A
HETATM    4  N2  UNL     1      46.841  -1.895   9.542  1.00  0.00    -0.169 N
ATOM      5  H2  UNL     1      47.015  -1.810   8.541  1.00  0.00     0.186 HD
HETATM    6  C4  UNL     1      45.796  -1.261  10.090  1.00  0.00     0.692 A
HETATM    7  N4  UNL     1      45.587  -1.393  11.430  1.00  0.00    -0.023 N
ATOM      8  H4  UNL     1      44.793  -0.914  11.855  1.00  0.00     0.203 HD
HETATM    9  C5  UNL     1      46.381  -2.123  12.200  1.00  0.00     0.694 A
ENDROOT
BRANCH   3  10
HETATM   10  C3  UNL     1      48.778  -3.297   9.624  1.00  0.00     0.246 C
HETATM   11  O1  UNL     1      48.631  -4.412   9.039  1.00  0.00    -0.642 OA
HETATM   12  O2  UNL     1      50.013  -2.715   9.597  1.00  0.00    -0.642 OA
ENDBRANCH   3  10
BRANCH   9  13
HETATM   13  N5  UNL     1      46.180  -2.243  13.461  1.00  0.00    -0.234 N
ATOM     14  H52 UNL     1      45.479  -1.687  13.951  1.00  0.00     0.174 HD
ATOM     15  H51 UNL     1      46.733  -2.912  13.997  1.00  0.00     0.174 HD
ENDBRANCH   9  13
BRANCH   6  16
HETATM   16  N3  UNL     1      45.010  -0.546   9.361  1.00  0.00    -0.234 N
ATOM     17  H32 UNL     1      44.484   0.231   9.762  1.00  0.00     0.174 HD
ATOM     18  H31 UNL     1      44.900  -0.745   8.367  1.00  0.00     0.174 HD
ENDBRANCH   6  16
TORSDOF 3
ENDMDL