MODEL 1
REMARK VINA RESULT: -5.470479020      0.000      0.000
REMARK  2 active torsions:
REMARK  status: ('A' for Active; 'I' for Inactive)
REMARK    1  A    between atoms: C4_11  and  N4_12
REMARK    2  A    between atoms: N4_12  and  N5_14
REMARK       I    between atoms: N5_14  and  C5_16
ROOT
HETATM    1  C1  UNL     1      47.247  -4.386  12.334  1.00  0.00     0.180 C
HETATM    2  N1  UNL     1      46.715  -3.297  11.538  1.00  0.00    -0.135 N
HETATM    3  C2  UNL     1      45.442  -2.844  11.699  1.00  0.00     0.344 A
HETATM    4  O1  UNL     1      44.693  -3.382  12.569  1.00  0.00    -0.246 OA
HETATM    5  N2  UNL     1      44.951  -1.837  10.961  1.00  0.00    -0.259 N
ATOM      6  H2  UNL     1      43.997  -1.500  11.087  1.00  0.00     0.175 HD
HETATM    7  C3  UNL     1      45.771  -1.290  10.051  1.00  0.00     0.342 A
HETATM    8  O2  UNL     1      45.332  -0.336   9.341  1.00  0.00    -0.246 OA
HETATM    9  N3  UNL     1      47.034  -1.739   9.891  1.00  0.00    -0.139 N
ATOM     10  H3  UNL     1      47.629  -1.298   9.190  1.00  0.00     0.189 HD
HETATM   11  C4  UNL     1      47.535  -2.748  10.625  1.00  0.00     0.706 A
ENDROOT
BRANCH  11  12
HETATM   12  N4  UNL     1      48.740  -3.181  10.477  1.00  0.00    -0.129 N
ATOM     13  H4  UNL     1      49.402  -3.071  11.245  1.00  0.00     0.205 HD
BRANCH  12  14
HETATM   14  N5  UNL     1      49.170  -3.798   9.298  1.00  0.00    -0.260 N
HETATM   15  C5  UNL     1      49.237  -5.210   9.136  1.00  0.00     0.201 C
HETATM   16  N6  UNL     1      49.568  -6.009  10.089  1.00  0.00    -0.372 N
HETATM   17  N7  UNL     1      48.921  -5.749   7.855  1.00  0.00    -0.062 NA
ATOM     18  H62 UNL     1      49.793  -5.623  11.006  1.00  0.00     0.158 HD
ATOM     19  H61 UNL     1      49.615  -7.021   9.972  1.00  0.00     0.158 HD
ATOM     20  H5  UNL     1      49.449  -3.207   8.516  1.00  0.00     0.190 HD
ENDBRANCH  12  14
ENDBRANCH  11  12
TORSDOF 2
ENDMDL