MODEL 3
REMARK VINA RESULT: -5.266394726      2.033      3.200
REMARK  3 active torsions:
REMARK  status: ('A' for Active; 'I' for Inactive)
REMARK    1  A    between atoms: C2_2  and  C3_3
REMARK       I    between atoms: C3_3  and  N1_5
REMARK    2  A    between atoms: N1_5  and  N2_7
REMARK    3  A    between atoms: C5_16  and  O2_17
ROOT
HETATM    1  C1  UNL     1      48.531  -3.568  10.013  1.00  0.00     0.074 C
HETATM    2  C2  UNL     1      47.992  -2.611  11.012  1.00  0.00     0.189 A
HETATM    3  N3  UNL     1      47.166  -1.610  10.275  1.00  0.00    -0.330 N
ATOM      4  H3  UNL     1      47.665  -0.967   9.659  1.00  0.00     0.165 HD
HETATM    5  C4  UNL     1      45.913  -1.479  10.338  1.00  0.00     0.193 A
HETATM    6  N4  UNL     1      45.356  -0.443   9.531  1.00  0.00    -0.063 NA
HETATM    7  N5  UNL     1      45.122  -2.252  11.191  1.00  0.00    -0.297 N
ATOM      8  H5  UNL     1      44.110  -2.137  11.230  1.00  0.00     0.172 HD
HETATM    9  C5  UNL     1      45.797  -3.206  12.001  1.00  0.00     0.221 A
HETATM   10  N6  UNL     1      47.151  -3.363  11.972  1.00  0.00    -0.322 N
ATOM     11  H6  UNL     1      47.593  -4.010  12.624  1.00  0.00     0.166 HD
ENDROOT
BRANCH   2  12
HETATM   12  C3  UNL     1      48.971  -1.797  11.751  1.00  0.00     0.284 C
HETATM   13  O1  UNL     1      49.875  -1.271  10.985  1.00  0.00    -0.267 OA
HETATM   14  N1  UNL     1      49.044  -1.516  13.119  1.00  0.00    -0.273 N
ATOM     15  H1  UNL     1      48.341  -1.868  13.769  1.00  0.00     0.189 HD
BRANCH  14  16
HETATM   16  N2  UNL     1      50.095  -0.749  13.559  1.00  0.00    -0.342 N
ATOM     17  H22 UNL     1      50.192  -0.531  14.550  1.00  0.00     0.176 HD
ATOM     18  H21 UNL     1      50.761  -0.413  12.863  1.00  0.00     0.176 HD
ENDBRANCH  14  16
ENDBRANCH   2  12
BRANCH   9  19
HETATM   19  O2  UNL     1      45.062  -3.959  12.816  1.00  0.00    -0.332 OA
ATOM     20  H2  UNL     1      44.700  -4.766  12.468  1.00  0.00     0.220 HD
ENDBRANCH   9  19
TORSDOF 3
ENDMDL