MODEL 2
REMARK VINA RESULT: -5.208954803      2.088      2.214
REMARK  3 active torsions:
REMARK  status: ('A' for Active; 'I' for Inactive)
REMARK    1  A    between atoms: N1_1  and  N2_4
REMARK    2  A    between atoms: N2_4  and  N3_6
REMARK    3  A    between atoms: N3_6  and  C1_8
ROOT
HETATM    1  C1  UNL     1      47.880  -2.209  12.516  1.00  0.00     0.194 C
HETATM    2  N4  UNL     1      48.435  -2.343  11.278  1.00  0.00    -0.289 N
ATOM      3  H4  UNL     1      49.373  -2.745  11.284  1.00  0.00     0.172 HD
HETATM    4  C2  UNL     1      47.978  -2.046  10.059  1.00  0.00     0.330 C
HETATM    5  O1  UNL     1      48.766  -2.043   9.082  1.00  0.00    -0.246 OA
HETATM    6  N5  UNL     1      46.686  -1.731   9.759  1.00  0.00    -0.260 N
ATOM      7  H5  UNL     1      46.492  -1.608   8.766  1.00  0.00     0.175 HD
HETATM    8  C3  UNL     1      45.627  -1.556  10.570  1.00  0.00     0.331 C
HETATM    9  O2  UNL     1      44.613  -1.107  10.004  1.00  0.00    -0.246 OA
HETATM   10  N6  UNL     1      45.551  -1.809  11.889  1.00  0.00    -0.272 N
ATOM     11  H6  UNL     1      44.607  -1.857  12.274  1.00  0.00     0.174 HD
HETATM   12  C4  UNL     1      46.558  -2.008  12.782  1.00  0.00     0.295 C
HETATM   13  O3  UNL     1      46.264  -2.014  13.990  1.00  0.00    -0.264 OA
ENDROOT
BRANCH   1  14
HETATM   14  N3  UNL     1      48.735  -2.287  13.448  1.00  0.00    -0.267 N
ATOM     15  H3  UNL     1      49.055  -3.225  13.690  1.00  0.00     0.190 HD
BRANCH  14  16
HETATM   16  N2  UNL     1      49.281  -1.255  14.169  1.00  0.00    -0.248 N
ATOM     17  H2  UNL     1      50.081  -0.754  13.781  1.00  0.00     0.207 HD
BRANCH  16  18
HETATM   18  N1  UNL     1      48.782  -0.866  15.416  1.00  0.00    -0.331 N
ATOM     19  H12 UNL     1      47.833  -0.497  15.453  1.00  0.00     0.178 HD
ATOM     20  H11 UNL     1      49.332  -0.939  16.272  1.00  0.00     0.178 HD
ENDBRANCH  16  18
ENDBRANCH  14  16
ENDBRANCH   1  14
TORSDOF 3
ENDMDL