MODEL 4
REMARK VINA RESULT: -5.091255034      1.931      2.789
REMARK  6 active torsions:
REMARK  status: ('A' for Active; 'I' for Inactive)
REMARK    1  A    between atoms: N1_1  and  C1_4
REMARK    2  A    between atoms: C3_9  and  C4_10
REMARK    3  A    between atoms: C4_10  and  O2_11
REMARK    4  A    between atoms: C4_10  and  N3_13
REMARK    5  A    between atoms: N3_13  and  N4_15
REMARK    6  A    between atoms: N5_18  and  O3_19
ROOT
HETATM    1  C1  UNL     1      48.185  -4.666  11.896  1.00  0.00     0.695 A
HETATM    2  N2  UNL     1      48.498  -3.743  10.971  1.00  0.00    -0.153 N
ATOM      3  H2  UNL     1      49.413  -3.740  10.519  1.00  0.00     0.187 HD
HETATM    4  C2  UNL     1      47.573  -2.829  10.661  1.00  0.00     0.295 A
HETATM    5  O1  UNL     1      47.844  -1.970   9.810  1.00  0.00    -0.265 OA
HETATM    6  C3  UNL     1      46.301  -2.782  11.245  1.00  0.00     0.202 A
HETATM    7  N5  UNL     1      46.056  -3.724  12.151  1.00  0.00    -0.139 N
HETATM    8  N6  UNL     1      46.979  -4.653  12.475  1.00  0.00    -0.105 N
ATOM      9  H6  UNL     1      46.753  -5.359  13.176  1.00  0.00     0.208 HD
ENDROOT
BRANCH   6  10
HETATM   10  C4  UNL     1      45.341  -1.766  10.866  1.00  0.00     0.191 C
BRANCH  10  11
HETATM   11  O2  UNL     1      44.810  -1.092  11.847  1.00  0.00    -0.343 OA
ATOM     12  H2  UNL     1      45.162  -0.220  11.988  1.00  0.00     0.219 HD
ENDBRANCH  10  11
BRANCH  10  13
HETATM   13  N3  UNL     1      44.895  -1.396   9.612  1.00  0.00    -0.285 N
ATOM     14  H3  UNL     1      44.182  -1.957   9.147  1.00  0.00     0.188 HD
BRANCH  13  15
HETATM   15  N4  UNL     1      45.415  -0.247   8.960  1.00  0.00    -0.343 N
ATOM     16  H42 UNL     1      44.878   0.162   8.195  1.00  0.00     0.176 HD
ATOM     17  H41 UNL     1      46.303   0.163   9.247  1.00  0.00     0.176 HD
ENDBRANCH  13  15
ENDBRANCH  10  13
ENDBRANCH   6  10
BRANCH   7  18
HETATM   18  O3  UNL     1      44.862  -3.824  12.820  1.00  0.00    -0.267 OA
ATOM     19  H3  UNL     1      44.463  -4.657  13.046  1.00  0.00     0.247 HD
ENDBRANCH   7  18
BRANCH   1  20
HETATM   20  N1  UNL     1      49.079  -5.548  12.195  1.00  0.00    -0.233 N
ATOM     21  H12 UNL     1      49.497  -6.155  11.490  1.00  0.00     0.174 HD
ATOM     22  H11 UNL     1      49.364  -5.627  13.170  1.00  0.00     0.174 HD
ENDBRANCH   1  20
TORSDOF 6
ENDMDL