MODEL 3
REMARK VINA RESULT: -4.597010591      1.953      3.253
REMARK  6 active torsions:
REMARK  status: ('A' for Active; 'I' for Inactive)
REMARK    1  A    between atoms: N1_1  and  C1_4
REMARK    2  A    between atoms: N4_10  and  O1_11
REMARK    3  A    between atoms: C3_13  and  C4_14
REMARK    4  A    between atoms: C4_14  and  O2_15
REMARK    5  A    between atoms: C4_14  and  N5_17
REMARK    6  A    between atoms: N5_17  and  N6_19
ROOT
HETATM    1  C1  UNL     1      47.599  -1.799  12.824  1.00  0.00     0.135 A
HETATM    2  N2  UNL     1      48.973  -1.815  13.028  1.00  0.00    -0.336 N
ATOM      3  H2  UNL     1      49.354  -1.765  13.973  1.00  0.00     0.168 HD
HETATM    4  C2  UNL     1      49.780  -1.896  11.991  1.00  0.00     0.201 A
HETATM    5  N3  UNL     1      49.278  -1.961  10.744  1.00  0.00    -0.270 N
ATOM      6  H3  UNL     1      49.914  -2.024   9.950  1.00  0.00     0.190 HD
HETATM    7  N4  UNL     1      47.979  -1.946  10.534  1.00  0.00    -0.154 N
HETATM    8  C3  UNL     1      47.087  -1.861  11.574  1.00  0.00     0.176 A
ENDROOT
BRANCH   8   9
HETATM    9  C4  UNL     1      45.706  -1.752  11.211  1.00  0.00     0.190 C
BRANCH   9  10
HETATM   10  O2  UNL     1      44.961  -2.798  11.493  1.00  0.00    -0.343 OA
ATOM     11  H2  UNL     1      44.726  -3.346  10.753  1.00  0.00     0.219 HD
ENDBRANCH   9  10
BRANCH   9  12
HETATM   12  N5  UNL     1      45.014  -0.715  10.594  1.00  0.00    -0.285 N
ATOM     13  H5  UNL     1      44.476  -0.056  11.156  1.00  0.00     0.188 HD
BRANCH  12  14
HETATM   14  N6  UNL     1      45.058  -0.574   9.183  1.00  0.00    -0.343 N
ATOM     15  H62 UNL     1      45.543  -1.280   8.630  1.00  0.00     0.176 HD
ATOM     16  H61 UNL     1      44.610   0.226   8.737  1.00  0.00     0.176 HD
ENDBRANCH  12  14
ENDBRANCH   9  12
ENDBRANCH   8   9
BRANCH   1  17
HETATM   17  N1  UNL     1      46.890  -1.774  13.883  1.00  0.00    -0.383 N
ATOM     18  H12 UNL     1      47.185  -2.174  14.774  1.00  0.00     0.157 HD
ATOM     19  H11 UNL     1      46.001  -1.282  13.803  1.00  0.00     0.157 HD
ENDBRANCH   1  17
BRANCH   7  20
HETATM   20  O1  UNL     1      47.546  -2.016   9.233  1.00  0.00    -0.267 OA
ATOM     21  H1  UNL     1      47.104  -2.812   8.960  1.00  0.00     0.247 HD
ENDBRANCH   7  20
TORSDOF 6
ENDMDL