MODEL 3
REMARK VINA RESULT: -5.482305889      1.390      4.812
REMARK  1 active torsions:
REMARK  status: ('A' for Active; 'I' for Inactive)
REMARK    1  A    between atoms: N1_1  and  N2_4
REMARK       I    between atoms: N2_4  and  C1_6
REMARK       I    between atoms: C1_6  and  N3_8
ROOT
HETATM    1  N2  UNL     1      45.950  -1.370   9.605  1.00  0.00    -0.257 N
ATOM      2  H2  UNL     1      46.701  -1.616   8.960  1.00  0.00     0.191 HD
HETATM    3  C1  UNL     1      45.857  -2.046  10.824  1.00  0.00     0.352 C
HETATM    4  O1  UNL     1      44.890  -1.707  11.619  1.00  0.00    -0.244 OA
HETATM    5  N3  UNL     1      46.680  -3.065  11.327  1.00  0.00    -0.163 N
HETATM    6  C2  UNL     1      47.727  -3.561  10.678  1.00  0.00     0.342 A
HETATM    7  O2  UNL     1      48.093  -3.170   9.539  1.00  0.00    -0.246 OA
HETATM    8  N4  UNL     1      48.513  -4.556  11.192  1.00  0.00    -0.260 N
ATOM      9  H4  UNL     1      49.306  -4.905  10.653  1.00  0.00     0.175 HD
HETATM   10  C3  UNL     1      48.251  -5.069  12.387  1.00  0.00     0.332 A
HETATM   11  O3  UNL     1      48.927  -5.982  12.921  1.00  0.00    -0.246 OA
HETATM   12  N5  UNL     1      47.193  -4.593  13.083  1.00  0.00    -0.260 N
ATOM     13  H5  UNL     1      46.973  -4.973  14.004  1.00  0.00     0.175 HD
HETATM   14  C4  UNL     1      46.438  -3.621  12.560  1.00  0.00     0.342 A
HETATM   15  O4  UNL     1      45.465  -3.204  13.235  1.00  0.00    -0.246 OA
ENDROOT
BRANCH   1  16
HETATM   16  N1  UNL     1      45.035  -0.357   9.236  1.00  0.00    -0.341 N
ATOM     17  H12 UNL     1      44.892   0.417   9.886  1.00  0.00     0.177 HD
ATOM     18  H11 UNL     1      44.527  -0.381   8.352  1.00  0.00     0.177 HD
ENDBRANCH   1  16
TORSDOF 1
ENDMDL