MODEL 4
REMARK VINA RESULT: -3.575360242      2.477      3.745
REMARK  2 active torsions:
REMARK  status: ('A' for Active; 'I' for Inactive)
REMARK    1  A    between atoms: O1_2  and  C2_3
REMARK    2  A    between atoms: C2_3  and  C3_4
ROOT
HETATM    1  C3  UNL     1     -14.850  27.260  26.066  1.00  0.00     0.246 C
HETATM    2  N1  UNL     1     -13.624  27.975  26.346  1.00  0.00    -0.350 N
ATOM      3  H1  UNL     1     -12.669  27.631  26.248  1.00  0.00     0.163 HD
HETATM    4  C4  UNL     1     -14.041  29.260  26.786  1.00  0.00     0.097 C
HETATM    5  N2  UNL     1     -13.393  30.099  27.537  1.00  0.00    -0.387 N
ATOM      6  H21 UNL     1     -13.692  31.021  27.853  1.00  0.00     0.157 HD
ATOM      7  H22 UNL     1     -12.466  29.985  27.948  1.00  0.00     0.157 HD
HETATM    8  C5  UNL     1     -15.392  29.426  26.187  1.00  0.00     0.246 C
HETATM    9  O2  UNL     1     -15.881  28.153  26.115  1.00  0.00    -0.357 OA
ENDROOT
BRANCH   1  10
HETATM   10  C2  UNL     1     -14.973  26.196  27.170  1.00  0.00     0.220 C
BRANCH  10  11
HETATM   11  O1  UNL     1     -15.734  25.178  26.627  1.00  0.00    -0.392 OA
HETATM   12  C1  UNL     1     -16.877  24.896  27.350  1.00  0.00     0.201 C
ENDBRANCH  10  11
ENDBRANCH   1  10
TORSDOF 2
ENDMDL