MODEL 4
REMARK VINA RESULT: -2.991496418      1.219      4.092
REMARK  4 active torsions:
REMARK  status: ('A' for Active; 'I' for Inactive)
REMARK    1  A    between atoms: N1_1  and  C1_5
REMARK    2  A    between atoms: C1_5  and  C2_6
REMARK    3  A    between atoms: C2_6  and  C3_7
REMARK    4  A    between atoms: C3_7  and  N2_8
ROOT
HETATM    1  N2  UNL     1     -14.794  28.323  27.529  1.00  0.00     0.115 N
HETATM    2  C4  UNL     1     -13.504  27.931  28.026  1.00  0.00     0.302 C
HETATM    3  C5  UNL     1     -12.573  28.681  27.070  1.00  0.00     0.264 C
HETATM    4  N3  UNL     1     -13.425  29.493  26.220  1.00  0.00    -0.047 N
ATOM      5  H31 UNL     1     -13.637  29.102  25.302  1.00  0.00     0.279 HD
ATOM      6  H32 UNL     1     -13.001  30.345  25.852  1.00  0.00     0.279 HD
HETATM    7  C6  UNL     1     -14.576  29.689  27.109  1.00  0.00     0.502 C
ENDROOT
BRANCH   1   8
HETATM    8  C3  UNL     1     -15.176  27.544  26.389  1.00  0.00     0.276 C
BRANCH   8   9
HETATM    9  C2  UNL     1     -15.349  26.056  26.687  1.00  0.00     0.057 C
BRANCH   9  10
HETATM   10  C1  UNL     1     -16.607  25.879  27.513  1.00  0.00     0.231 C
BRANCH  10  11
HETATM   11  N1  UNL     1     -17.122  24.556  27.513  1.00  0.00    -0.079 N
ATOM     12  H13 UNL     1     -18.118  24.561  27.293  1.00  0.00     0.274 HD
ATOM     13  H12 UNL     1     -16.768  24.035  26.710  1.00  0.00     0.274 HD
ATOM     14  H11 UNL     1     -16.951  24.040  28.377  1.00  0.00     0.274 HD
ENDBRANCH  10  11
ENDBRANCH   9  10
ENDBRANCH   8   9
ENDBRANCH   1   8
TORSDOF 4
ENDMDL