MODEL 5
REMARK VINA RESULT: -3.194571099      2.534      3.852
REMARK  5 active torsions:
REMARK  status: ('A' for Active; 'I' for Inactive)
REMARK    1  A    between atoms: C2_2  and  N1_3
REMARK    2  A    between atoms: C2_2  and  C3_7
REMARK    3  A    between atoms: C2_2  and  N3_11
REMARK    4  A    between atoms: C3_7  and  N2_8
REMARK    5  A    between atoms: N3_11  and  C4_13
ROOT
HETATM    1  C1  UNL     1     -14.911  26.909  26.027  1.00  0.00     0.076 C
HETATM    2  C2  UNL     1     -15.775  26.849  27.324  1.00  0.00     0.220 C
ENDROOT
BRANCH   2   3
HETATM    3  N1  UNL     1     -17.003  27.611  26.936  1.00  0.00    -0.048 N
ATOM      4  H13 UNL     1     -17.347  28.258  27.645  1.00  0.00     0.277 HD
ATOM      5  H12 UNL     1     -16.858  28.319  26.216  1.00  0.00     0.277 HD
ATOM      6  H11 UNL     1     -17.656  26.869  26.682  1.00  0.00     0.277 HD
ENDBRANCH   2   3
BRANCH   2   7
HETATM    7  C3  UNL     1     -16.129  25.450  27.580  1.00  0.00     0.113 C
BRANCH   7   8
HETATM    8  N2  UNL     1     -17.352  24.925  27.234  1.00  0.00    -0.408 N
ATOM      9  H22 UNL     1     -18.181  25.491  27.418  1.00  0.00     0.155 HD
ATOM     10  H21 UNL     1     -17.450  24.004  26.807  1.00  0.00     0.155 HD
ENDBRANCH   7   8
ENDBRANCH   2   7
BRANCH   2  11
HETATM   11  N3  UNL     1     -15.123  27.571  28.310  1.00  0.00    -0.383 N
ATOM     12  H3  UNL     1     -15.460  27.468  29.267  1.00  0.00     0.156 HD
BRANCH  11  13
HETATM   13  C4  UNL     1     -14.057  28.415  28.100  1.00  0.00     0.079 A
HETATM   14  C5  UNL     1     -13.636  29.428  29.109  1.00  0.00     0.027 A
HETATM   15  C6  UNL     1     -12.704  28.322  28.710  1.00  0.00     0.027 A
ENDBRANCH  11  13
ENDBRANCH   2  11
TORSDOF 5
ENDMDL