MODEL 1
REMARK VINA RESULT: -3.581924709      0.000      0.000
REMARK  5 active torsions:
REMARK  status: ('A' for Active; 'I' for Inactive)
REMARK    1  A    between atoms: N1_1  and  C1_5
REMARK    2  A    between atoms: C1_5  and  C2_6
REMARK    3  A    between atoms: C2_6  and  C3_7
REMARK    4  A    between atoms: C3_7  and  N2_8
REMARK    5  A    between atoms: N2_8  and  C4_10
ROOT
HETATM    1  N2  UNL     1     -17.060  27.035  27.265  1.00  0.00    -0.225 N
ATOM      2  H2  UNL     1     -17.422  27.214  26.328  1.00  0.00     0.177 HD
ENDROOT
BRANCH   1   3
HETATM    3  C3  UNL     1     -16.389  25.796  27.469  1.00  0.00     0.140 C
BRANCH   3   4
HETATM    4  C2  UNL     1     -14.888  25.932  27.244  1.00  0.00     0.047 C
BRANCH   4   5
HETATM    5  C1  UNL     1     -14.656  26.613  25.914  1.00  0.00     0.231 C
BRANCH   5   6
HETATM    6  N1  UNL     1     -13.848  27.803  26.140  1.00  0.00    -0.079 N
ATOM      7  H13 UNL     1     -12.889  27.693  25.811  1.00  0.00     0.274 HD
ATOM      8  H12 UNL     1     -14.115  28.579  25.535  1.00  0.00     0.274 HD
ATOM      9  H11 UNL     1     -13.897  28.043  27.130  1.00  0.00     0.274 HD
ENDBRANCH   5   6
ENDBRANCH   4   5
ENDBRANCH   3   4
ENDBRANCH   1   3
BRANCH   1  10
HETATM   10  C4  UNL     1     -17.252  27.944  28.139  1.00  0.00     0.693 A
HETATM   11  N3  UNL     1     -18.500  28.311  28.539  1.00  0.00    -0.185 N
HETATM   12  C5  UNL     1     -18.385  29.274  29.453  1.00  0.00     0.215 A
ATOM     13  H3  UNL     1     -19.376  27.916  28.197  1.00  0.00     0.185 HD
HETATM   14  N4  UNL     1     -17.098  29.533  29.650  1.00  0.00    -0.281 N
HETATM   15  N5  UNL     1     -16.423  28.712  28.839  1.00  0.00    -0.131 N
ATOM     16  H4  UNL     1     -16.702  30.220  30.290  1.00  0.00     0.188 HD
ATOM     17  H5  UNL     1     -15.406  28.679  28.768  1.00  0.00     0.205 HD
ENDBRANCH   1  10
TORSDOF 5
ENDMDL