MODEL 1
REMARK VINA RESULT: -3.586487841      0.000      0.000
REMARK  5 active torsions:
REMARK  status: ('A' for Active; 'I' for Inactive)
REMARK    1  A    between atoms: N1_1  and  C1_5
REMARK    2  A    between atoms: C1_5  and  C2_6
REMARK    3  A    between atoms: C2_6  and  C3_7
REMARK    4  A    between atoms: C3_7  and  N2_8
REMARK    5  A    between atoms: N2_8  and  C4_10
ROOT
HETATM    1  N2  UNL     1     -17.093  27.008  27.293  1.00  0.00    -0.225 N
ATOM      2  H2  UNL     1     -17.480  27.159  26.361  1.00  0.00     0.177 HD
ENDROOT
BRANCH   1   3
HETATM    3  C3  UNL     1     -16.383  25.794  27.504  1.00  0.00     0.140 C
BRANCH   3   4
HETATM    4  C2  UNL     1     -14.913  25.888  27.218  1.00  0.00     0.047 C
BRANCH   4   5
HETATM    5  C1  UNL     1     -14.650  26.612  25.913  1.00  0.00     0.231 C
BRANCH   5   6
HETATM    6  N1  UNL     1     -13.862  27.804  26.153  1.00  0.00    -0.079 N
ATOM      7  H13 UNL     1     -14.287  28.633  25.736  1.00  0.00     0.274 HD
ATOM      8  H12 UNL     1     -13.896  28.093  27.130  1.00  0.00     0.274 HD
ATOM      9  H11 UNL     1     -12.905  27.663  25.830  1.00  0.00     0.274 HD
ENDBRANCH   5   6
ENDBRANCH   4   5
ENDBRANCH   3   4
ENDBRANCH   1   3
BRANCH   1  10
HETATM   10  C4  UNL     1     -17.296  27.933  28.157  1.00  0.00     0.693 A
HETATM   11  N3  UNL     1     -18.530  28.306  28.551  1.00  0.00    -0.185 N
HETATM   12  C5  UNL     1     -18.401  29.296  29.464  1.00  0.00     0.215 A
ATOM     13  H3  UNL     1     -19.409  27.910  28.218  1.00  0.00     0.185 HD
HETATM   14  N4  UNL     1     -17.085  29.531  29.630  1.00  0.00    -0.281 N
HETATM   15  N5  UNL     1     -16.439  28.698  28.833  1.00  0.00    -0.131 N
ATOM     16  H4  UNL     1     -16.666  30.221  30.253  1.00  0.00     0.188 HD
ATOM     17  H5  UNL     1     -15.424  28.648  28.746  1.00  0.00     0.205 HD
ENDBRANCH   1  10
TORSDOF 5
ENDMDL