MODEL 5
REMARK VINA RESULT: -3.150374831      1.182      1.282
REMARK  3 active torsions:
REMARK  status: ('A' for Active; 'I' for Inactive)
REMARK    1  A    between atoms: N1_1  and  C1_5
REMARK    2  A    between atoms: C1_5  and  C2_6
REMARK    3  A    between atoms: C2_6  and  C3_7
ROOT
HETATM    1  C3  UNL     1     -15.484  27.670  27.153  1.00  0.00     0.103 C
HETATM    2  C4  UNL     1     -15.110  28.580  26.019  1.00  0.00     0.256 C
HETATM    3  N2  UNL     1     -14.120  29.571  26.423  1.00  0.00    -0.072 N
ATOM      4  H21 UNL     1     -14.472  30.244  27.105  1.00  0.00     0.277 HD
ATOM      5  H22 UNL     1     -13.895  30.245  25.691  1.00  0.00     0.277 HD
HETATM    6  C5  UNL     1     -12.963  28.812  26.895  1.00  0.00     0.251 C
HETATM    7  C6  UNL     1     -13.317  28.063  28.134  1.00  0.00     0.141 C
HETATM    8  N3  UNL     1     -14.713  27.855  28.338  1.00  0.00    -0.414 N
ATOM      9  H3  UNL     1     -15.130  27.840  29.269  1.00  0.00     0.153 HD
ENDROOT
BRANCH   1  10
HETATM   10  C2  UNL     1     -15.445  26.251  26.633  1.00  0.00     0.053 C
BRANCH  10  11
HETATM   11  C1  UNL     1     -16.061  25.276  27.614  1.00  0.00     0.231 C
BRANCH  11  12
HETATM   12  N1  UNL     1     -17.338  24.858  27.021  1.00  0.00    -0.079 N
ATOM     13  H13 UNL     1     -17.879  25.630  26.632  1.00  0.00     0.274 HD
ATOM     14  H12 UNL     1     -17.231  24.333  26.153  1.00  0.00     0.274 HD
ATOM     15  H11 UNL     1     -17.831  24.341  27.750  1.00  0.00     0.274 HD
ENDBRANCH  11  12
ENDBRANCH  10  11
ENDBRANCH   1  10
TORSDOF 3
ENDMDL