MODEL 3
REMARK VINA RESULT: -3.756264476      0.840      1.338
REMARK  3 active torsions:
REMARK  status: ('A' for Active; 'I' for Inactive)
REMARK    1  A    between atoms: C2_2  and  C3_3
REMARK    2  A    between atoms: C3_3  and  N1_4
REMARK    3  A    between atoms: N1_4  and  C4_6
ROOT
HETATM    1  C4  UNL     1     -16.682  26.702  27.445  1.00  0.00     0.706 A
HETATM    2  N2  UNL     1     -17.369  25.564  27.561  1.00  0.00    -0.118 N
ATOM      3  H2  UNL     1     -18.386  25.497  27.560  1.00  0.00     0.207 HD
HETATM    4  N3  UNL     1     -16.563  24.553  27.674  1.00  0.00    -0.212 N
ATOM      5  H3  UNL     1     -16.818  23.571  27.777  1.00  0.00     0.206 HD
HETATM    6  N4  UNL     1     -15.344  25.059  27.630  1.00  0.00     0.009 NA
HETATM    7  N5  UNL     1     -15.391  26.371  27.489  1.00  0.00    -0.114 N
ATOM      8  H5  UNL     1     -14.596  27.007  27.427  1.00  0.00     0.203 HD
ENDROOT
BRANCH   1   9
HETATM    9  N1  UNL     1     -17.233  27.835  27.319  1.00  0.00    -0.224 N
ATOM     10  H1  UNL     1     -17.146  28.286  26.408  1.00  0.00     0.177 HD
BRANCH   9  11
HETATM   11  C3  UNL     1     -17.966  28.551  28.320  1.00  0.00     0.138 C
BRANCH  11  12
HETATM   12  C2  UNL     1     -16.932  29.375  29.100  1.00  0.00     0.016 C
HETATM   13  C1  UNL     1     -17.523  30.034  30.299  1.00  0.00     0.006 C
ENDBRANCH  11  12
ENDBRANCH   9  11
ENDBRANCH   1   9
TORSDOF 3
ENDMDL