MODEL 3
REMARK VINA RESULT: -3.306453520      1.393      4.264
REMARK  3 active torsions:
REMARK  status: ('A' for Active; 'I' for Inactive)
REMARK    1  A    between atoms: N1_3  and  N2_5
REMARK    2  A    between atoms: N2_5  and  C3_7
REMARK    3  A    between atoms: C3_7  and  C4_8
ROOT
HETATM    1  C3  UNL     1     -14.885  28.727  26.404  1.00  0.00     0.172 C
ENDROOT
BRANCH   1   2
HETATM    2  N2  UNL     1     -14.481  27.469  25.815  1.00  0.00    -0.335 N
ATOM      3  H2  UNL     1     -13.714  27.464  25.144  1.00  0.00     0.180 HD
BRANCH   2   4
HETATM    4  N1  UNL     1     -15.105  26.266  26.135  1.00  0.00    -0.320 N
HETATM    5  C2  UNL     1     -16.006  26.243  27.082  1.00  0.00     0.075 C
HETATM    6  C1  UNL     1     -16.667  24.941  27.412  1.00  0.00     0.056 C
ATOM      7  H1  UNL     1     -14.861  25.412  25.635  1.00  0.00     0.185 HD
ENDBRANCH   2   4
ENDBRANCH   1   2
BRANCH   1   8
HETATM    8  C4  UNL     1     -13.810  29.298  27.297  1.00  0.00     0.206 A
HETATM    9  C5  UNL     1     -13.830  28.846  28.714  1.00  0.00     0.062 A
HETATM   10  C6  UNL     1     -12.502  28.143  28.487  1.00  0.00     0.235 A
HETATM   11  N3  UNL     1     -12.517  28.657  27.132  1.00  0.00    -0.069 N
ATOM     12  H32 UNL     1     -12.394  28.001  26.361  1.00  0.00     0.277 HD
ATOM     13  H31 UNL     1     -11.729  29.223  26.817  1.00  0.00     0.277 HD
ENDBRANCH   1   8
TORSDOF 3
ENDMDL