MODEL 5
REMARK VINA RESULT: -9.888185787      4.639      9.278
REMARK  7 active torsions:
REMARK  status: ('A' for Active; 'I' for Inactive)
REMARK    1  A    between atoms: C6_6  and  N1_7
REMARK    2  A    between atoms: N1_7  and  C7_8
REMARK    3  A    between atoms: C10_11  and  N2_12
REMARK    4  A    between atoms: C15_19  and  N4_20
REMARK    5  A    between atoms: N4_20  and  C16_22
REMARK    6  A    between atoms: C19_25  and  C20_26
REMARK    7  A    between atoms: C21_27  and  C22_28
ROOT
HETATM    1  C1  UNL     1      36.338  -8.115  43.562  1.00  0.00     0.048 C
HETATM    2  C2  UNL     1      35.878  -8.556  42.244  1.00  0.00    -0.060 A
HETATM    3  C3  UNL     1      35.431  -9.847  42.052  1.00  0.00     0.008 A
HETATM    4  C4  UNL     1      35.004 -10.241  40.789  1.00  0.00     0.019 A
HETATM    5  C5  UNL     1      35.010  -9.379  39.711  1.00  0.00     0.050 A
HETATM    6  C6  UNL     1      34.576  -9.839  38.465  1.00  0.00     0.206 A
HETATM    7  N3  UNL     1      34.619  -8.933  37.437  1.00  0.00    -0.163 N
ATOM      8  H3  UNL     1      34.312  -9.214  36.505  1.00  0.00     0.187 HD
HETATM    9  C15 UNL     1      35.067  -7.655  37.644  1.00  0.00     0.685 A
HETATM   10  N6  UNL     1      35.469  -7.268  38.856  1.00  0.00    -0.191 N
ATOM     11  H6  UNL     1      35.795  -6.309  38.979  1.00  0.00     0.184 HD
HETATM   12  C30 UNL     1      35.462  -8.083  39.916  1.00  0.00     0.064 A
HETATM   13  C31 UNL     1      35.893  -7.682  41.186  1.00  0.00     0.038 A
ENDROOT
BRANCH   9  14
HETATM   14  N4  UNL     1      35.008  -6.889  36.670  1.00  0.00    -0.190 N
ATOM     15  H4  UNL     1      34.203  -6.262  36.661  1.00  0.00     0.184 HD
BRANCH  14  16
HETATM   16  C16 UNL     1      35.877  -6.756  35.582  1.00  0.00     0.073 A
HETATM   17  C17 UNL     1      35.508  -7.027  34.275  1.00  0.00     0.033 A
HETATM   18  C18 UNL     1      36.372  -6.826  33.223  1.00  0.00     0.023 A
HETATM   19  C19 UNL     1      37.658  -6.345  33.398  1.00  0.00     0.020 A
HETATM   20  C28 UNL     1      38.032  -6.073  34.709  1.00  0.00     0.049 A
HETATM   21  C29 UNL     1      37.177  -6.269  35.769  1.00  0.00     0.075 A
HETATM   22  N5  UNL     1      37.568  -5.988  37.101  1.00  0.00    -0.100 NA
BRANCH  19  23
HETATM   23  C20 UNL     1      38.565  -6.114  32.303  1.00  0.00    -0.061 C
HETATM   24  C21 UNL     1      39.326  -5.950  31.376  1.00  0.00    -0.061 C
BRANCH  24  25
HETATM   25  C22 UNL     1      40.237  -5.788  30.273  1.00  0.00     0.018 A
HETATM   26  C23 UNL     1      40.678  -6.880  29.587  1.00  0.00     0.020 A
HETATM   27  C24 UNL     1      41.555  -6.740  28.525  1.00  0.00     0.001 A
HETATM   28  C25 UNL     1      42.010  -5.488  28.125  1.00  0.00     0.000 A
HETATM   29  C26 UNL     1      41.570  -4.394  28.811  1.00  0.00     0.001 A
HETATM   30  C27 UNL     1      40.692  -4.523  29.874  1.00  0.00     0.020 A
ENDBRANCH  24  25
ENDBRANCH  19  23
ENDBRANCH  14  16
ENDBRANCH   9  14
BRANCH   6  31
HETATM   31  N1  UNL     1      34.150 -10.929  38.279  1.00  0.00    -0.386 NA
BRANCH  31  32
HETATM   32  C7  UNL     1      33.559 -12.087  38.073  1.00  0.00     0.109 A
HETATM   33  C8  UNL     1      33.727 -13.235  38.870  1.00  0.00     0.047 A
HETATM   34  C9  UNL     1      33.039 -14.390  38.620  1.00  0.00     0.033 A
HETATM   35  C10 UNL     1      32.142 -14.475  37.563  1.00  0.00     0.029 A
HETATM   36  C13 UNL     1      31.949 -13.369  36.755  1.00  0.00     0.033 A
HETATM   37  C14 UNL     1      32.647 -12.235  37.026  1.00  0.00     0.047 A
BRANCH  35  38
HETATM   38  N2  UNL     1      31.417 -15.669  37.331  1.00  0.00    -0.390 N
HETATM   39  C11 UNL     1      31.851 -16.626  36.333  1.00  0.00     0.149 C
HETATM   40  C12 UNL     1      30.192 -15.964  38.086  1.00  0.00     0.149 C
ENDBRANCH  35  38
ENDBRANCH  31  32
ENDBRANCH   6  31
TORSDOF 7
ENDMDL