MODEL 1
REMARK VINA RESULT: -10.493947006      0.000      0.000
REMARK  6 active torsions:
REMARK  status: ('A' for Active; 'I' for Inactive)
REMARK    1  A    between atoms: C6_8  and  N2_9
REMARK    2  A    between atoms: N2_9  and  C7_11
REMARK    3  A    between atoms: C10_14  and  N3_15
REMARK    4  A    between atoms: N3_15  and  C11_17
REMARK    5  A    between atoms: C15_25  and  C16_26
REMARK    6  A    between atoms: C17_27  and  C18_28
ROOT
HETATM    1  C11 UNL     1      35.767  -8.390  37.798  1.00  0.00     0.133 A
HETATM    2  N4  UNL     1      35.013  -7.912  38.799  1.00  0.00    -0.284 N
ATOM      3  H4  UNL     1      34.654  -8.463  39.579  1.00  0.00     0.188 HD
HETATM    4  N5  UNL     1      34.809  -6.623  38.621  1.00  0.00    -0.298 N
ATOM      5  H5  UNL     1      34.268  -6.017  39.238  1.00  0.00     0.187 HD
HETATM    6  C12 UNL     1      35.437  -6.236  37.481  1.00  0.00     0.062 A
HETATM    7  C13 UNL     1      35.560  -5.040  36.821  1.00  0.00     0.033 A
HETATM    8  C14 UNL     1      36.282  -4.976  35.660  1.00  0.00     0.023 A
HETATM    9  C15 UNL     1      36.908  -6.072  35.098  1.00  0.00     0.019 A
HETATM   10  C27 UNL     1      36.755  -7.263  35.802  1.00  0.00     0.038 A
HETATM   11  C28 UNL     1      36.042  -7.350  36.961  1.00  0.00     0.039 A
ENDROOT
BRANCH   1  12
HETATM   12  N3  UNL     1      36.156  -9.622  37.663  1.00  0.00    -0.341 N
ATOM     13  H3  UNL     1      37.143  -9.858  37.761  1.00  0.00     0.167 HD
BRANCH  12  14
HETATM   14  C10 UNL     1      35.203 -10.648  37.378  1.00  0.00     0.033 A
HETATM   15  C9  UNL     1      33.951 -10.649  37.957  1.00  0.00     0.032 A
HETATM   16  C8  UNL     1      33.049 -11.650  37.664  1.00  0.00     0.032 A
HETATM   17  C7  UNL     1      33.337 -12.685  36.798  1.00  0.00     0.049 A
HETATM   18  C30 UNL     1      34.596 -12.679  36.219  1.00  0.00     0.032 A
HETATM   19  C29 UNL     1      35.509 -11.684  36.502  1.00  0.00     0.032 A
BRANCH  17  20
HETATM   20  N2  UNL     1      32.362 -13.669  36.552  1.00  0.00    -0.192 N
ATOM     21  H2  UNL     1      31.887 -13.627  35.650  1.00  0.00     0.184 HD
BRANCH  20  22
HETATM   22  C6  UNL     1      32.014 -14.603  37.333  1.00  0.00     0.683 A
HETATM   23  N1  UNL     1      32.815 -15.208  38.218  1.00  0.00    -0.196 N
HETATM   24  C4  UNL     1      32.376 -16.192  39.016  1.00  0.00     0.024 A
ATOM     25  H1  UNL     1      33.788 -14.912  38.287  1.00  0.00     0.184 HD
HETATM   26  C3  UNL     1      31.055 -16.602  38.929  1.00  0.00     0.050 A
HETATM   27  C5  UNL     1      33.325 -16.815  39.972  1.00  0.00     0.068 C
HETATM   28  C2  UNL     1      30.230 -15.995  38.033  1.00  0.00     0.024 A
HETATM   29  C1  UNL     1      28.807 -16.406  37.911  1.00  0.00     0.068 C
HETATM   30  N7  UNL     1      30.721 -15.020  37.264  1.00  0.00    -0.196 N
ATOM     31  H7  UNL     1      30.099 -14.568  36.595  1.00  0.00     0.184 HD
ENDBRANCH  20  22
ENDBRANCH  17  20
ENDBRANCH  12  14
ENDBRANCH   1  12
BRANCH   9  32
HETATM   32  C16 UNL     1      37.660  -5.983  33.880  1.00  0.00    -0.061 C
HETATM   33  C17 UNL     1      38.307  -5.906  32.859  1.00  0.00    -0.060 C
BRANCH  33  34
HETATM   34  C18 UNL     1      39.076  -5.811  31.647  1.00  0.00     0.032 A
HETATM   35  C19 UNL     1      39.766  -4.673  31.325  1.00  0.00     0.038 A
HETATM   36  C20 UNL     1      40.503  -4.598  30.150  1.00  0.00     0.090 A
HETATM   37  N6  UNL     1      40.543  -5.659  29.314  1.00  0.00    -0.365 N
HETATM   38  C21 UNL     1      39.885  -6.798  29.583  1.00  0.00     0.043 A
ATOM     39  H6  UNL     1      41.088  -5.592  28.454  1.00  0.00     0.165 HD
HETATM   40  C22 UNL     1      39.959  -7.850  28.696  1.00  0.00     0.030 A
HETATM   41  C26 UNL     1      39.152  -6.876  30.747  1.00  0.00     0.009 A
HETATM   42  C23 UNL     1      39.268  -9.000  29.010  1.00  0.00     0.002 A
HETATM   43  C24 UNL     1      38.522  -9.108  30.175  1.00  0.00     0.001 A
HETATM   44  C25 UNL     1      38.465  -8.033  31.049  1.00  0.00     0.015 A
ENDBRANCH  33  34
ENDBRANCH   9  32
TORSDOF 6
ENDMDL