MODEL 3
REMARK VINA RESULT: -8.866655251      2.617      3.390
REMARK  5 active torsions:
REMARK  status: ('A' for Active; 'I' for Inactive)
REMARK    1  A    between atoms: C2_2  and  N1_3
REMARK    2  A    between atoms: C6_7  and  C7_8
REMARK    3  A    between atoms: C8_9  and  C9_10
REMARK    4  A    between atoms: C13_14  and  C14_15
REMARK    5  A    between atoms: C24_33  and  O1_34
ROOT
HETATM    1  N1  UNL     1      43.731 -11.801  43.836  1.00  0.00    -0.356 N
HETATM    2  C3  UNL     1      42.507 -11.524  44.489  1.00  0.00     0.103 C
HETATM    3  C4  UNL     1      41.716 -10.305  44.409  1.00  0.00    -0.008 A
HETATM    4  C5  UNL     1      40.703 -10.336  43.432  1.00  0.00     0.034 A
HETATM    5  C6  UNL     1      39.793  -9.347  43.244  1.00  0.00     0.018 A
HETATM    6  C16 UNL     1      39.863  -8.245  44.057  1.00  0.00     0.021 A
HETATM    7  C17 UNL     1      40.843  -8.190  45.016  1.00  0.00     0.014 A
HETATM    8  C18 UNL     1      41.794  -9.189  45.237  1.00  0.00    -0.014 A
HETATM    9  C19 UNL     1      42.775  -8.895  46.304  1.00  0.00    -0.020 A
HETATM   10  C20 UNL     1      43.294  -7.592  46.061  1.00  0.00     0.029 A
HETATM   11  C21 UNL     1      44.369  -7.082  46.741  1.00  0.00     0.090 A
HETATM   12  N4  UNL     1      44.887  -7.878  47.627  1.00  0.00    -0.352 N
ATOM     13  H4  UNL     1      45.691  -7.529  48.150  1.00  0.00     0.166 HD
HETATM   14  C22 UNL     1      44.444  -9.168  47.931  1.00  0.00     0.108 A
HETATM   15  C23 UNL     1      43.349  -9.697  47.265  1.00  0.00     0.061 A
HETATM   16  N5  UNL     1      45.453  -9.724  48.792  1.00  0.00    -0.308 N
ATOM     17  H5  UNL     1      45.485  -9.261  49.700  1.00  0.00     0.171 HD
HETATM   18  C24 UNL     1      46.407 -10.752  48.686  1.00  0.00     0.223 C
HETATM   19  N6  UNL     1      47.078 -11.377  47.578  1.00  0.00    -0.322 N
ATOM     20  H6  UNL     1      48.084 -11.497  47.702  1.00  0.00     0.169 HD
HETATM   21  C25 UNL     1      46.558 -11.867  46.306  1.00  0.00     0.037 A
HETATM   22  C26 UNL     1      46.948 -13.211  46.064  1.00  0.00     0.029 A
HETATM   23  C27 UNL     1      46.417 -13.998  45.065  1.00  0.00     0.004 A
HETATM   24  C28 UNL     1      45.447 -13.402  44.288  1.00  0.00     0.030 A
HETATM   25  C29 UNL     1      45.041 -12.065  44.516  1.00  0.00     0.036 A
HETATM   26  C30 UNL     1      45.607 -11.318  45.494  1.00  0.00     0.059 A
ENDROOT
BRANCH   5  27
HETATM   27  C7  UNL     1      38.776  -9.440  42.244  1.00  0.00    -0.061 C
HETATM   28  C8  UNL     1      37.953  -9.508  41.392  1.00  0.00    -0.061 C
BRANCH  28  29
HETATM   29  C9  UNL     1      36.984  -9.578  40.338  1.00  0.00     0.019 A
HETATM   30  C10 UNL     1      36.035 -10.610  40.311  1.00  0.00     0.020 A
HETATM   31  C11 UNL     1      35.119 -10.653  39.279  1.00  0.00     0.002 A
HETATM   32  C12 UNL     1      35.165  -9.679  38.302  1.00  0.00     0.015 A
HETATM   33  C13 UNL     1      36.093  -8.663  38.320  1.00  0.00     0.006 A
HETATM   34  C15 UNL     1      37.008  -8.619  39.353  1.00  0.00     0.035 A
BRANCH  33  35
HETATM   35  C14 UNL     1      36.113  -7.636  37.250  1.00  0.00     0.120 C
HETATM   36  N2  UNL     1      37.148  -7.271  36.776  1.00  0.00    -0.387 N
ATOM     37  H22 UNL     1      38.050  -7.639  37.076  1.00  0.00     0.157 HD
ATOM     38  H21 UNL     1      37.161  -6.566  36.041  1.00  0.00     0.157 HD
HETATM   39  N3  UNL     1      34.846  -7.120  36.829  1.00  0.00    -0.082 NA
ENDBRANCH  33  35
ENDBRANCH  28  29
ENDBRANCH   5  27
BRANCH   1  40
HETATM   40  C2  UNL     1      43.766 -11.969  42.379  1.00  0.00     0.124 C
HETATM   41  C1  UNL     1      42.708 -12.972  42.000  1.00  0.00     0.027 C
ENDBRANCH   1  40
BRANCH  18  42
HETATM   42  O1  UNL     1      46.759 -11.244  49.860  1.00  0.00    -0.332 OA
ATOM     43  H1  UNL     1      47.515 -11.816  49.805  1.00  0.00     0.220 HD
ENDBRANCH  18  42
TORSDOF 5
ENDMDL