MODEL 5
REMARK VINA RESULT: -10.146436075      4.360      8.037
REMARK  3 active torsions:
REMARK  status: ('A' for Active; 'I' for Inactive)
REMARK    1  A    between atoms: C1_6  and  C2_7
REMARK    2  A    between atoms: C6_11  and  O3_12
REMARK    3  A    between atoms: N4_32  and  C21_34
ROOT
HETATM    1  O1  UNL     1      42.941 -12.524  45.320  1.00  0.00    -0.200 OA
HETATM    2  S1  UNL     1      41.913 -11.584  45.632  1.00  0.00     0.265 S
HETATM    3  O2  UNL     1      41.736 -11.552  47.149  1.00  0.00    -0.200 OA
HETATM    4  N1  UNL     1      40.228 -12.271  45.115  1.00  0.00    -0.279 N
ATOM      5  H1  UNL     1      39.666 -12.724  45.837  1.00  0.00     0.179 HD
HETATM    6  C1  UNL     1      39.692 -12.212  43.835  1.00  0.00     0.068 C
HETATM    7  C8  UNL     1      38.588 -11.364  43.149  1.00  0.00     0.049 A
HETATM    8  C9  UNL     1      38.167 -10.066  42.866  1.00  0.00     0.119 A
HETATM    9  N2  UNL     1      37.057 -10.095  42.113  1.00  0.00    -0.341 N
ATOM     10  H2  UNL     1      36.566  -9.266  41.777  1.00  0.00     0.167 HD
HETATM   11  C10 UNL     1      36.684 -11.335  41.864  1.00  0.00     0.045 A
HETATM   12  C11 UNL     1      35.586 -11.819  41.141  1.00  0.00     0.030 A
HETATM   13  C12 UNL     1      35.376 -13.152  41.021  1.00  0.00     0.002 A
HETATM   14  C13 UNL     1      36.252 -13.994  41.615  1.00  0.00     0.001 A
HETATM   15  C14 UNL     1      37.316 -13.489  42.315  1.00  0.00     0.015 A
HETATM   16  C15 UNL     1      37.568 -12.117  42.462  1.00  0.00     0.007 A
HETATM   17  N3  UNL     1      38.574  -8.655  43.263  1.00  0.00    -0.342 N
ATOM     18  H3  UNL     1      38.213  -7.839  42.768  1.00  0.00     0.167 HD
HETATM   19  C16 UNL     1      39.460  -8.522  44.333  1.00  0.00     0.033 C
HETATM   20  C17 UNL     1      39.732  -9.773  44.795  1.00  0.00     0.031 C
HETATM   21  C18 UNL     1      41.024 -10.087  44.118  1.00  0.00     0.030 C
HETATM   22  C19 UNL     1      41.913  -9.959  45.136  1.00  0.00     0.106 C
HETATM   23  C20 UNL     1      42.287  -8.713  45.599  1.00  0.00     0.056 C
HETATM   24  N4  UNL     1      43.249  -8.822  46.262  1.00  0.00    -0.355 N
ATOM     25  H4  UNL     1      43.467  -9.819  46.258  1.00  0.00     0.166 HD
HETATM   26  C27 UNL     1      41.500  -7.480  45.370  1.00  0.00     0.033 C
HETATM   27  C28 UNL     1      40.174  -7.417  44.761  1.00  0.00     0.032 C
ENDROOT
BRANCH   6  28
HETATM   28  C2  UNL     1      40.396 -13.070  42.794  1.00  0.00    -0.005 A
HETATM   29  C3  UNL     1      41.190 -12.558  41.799  1.00  0.00     0.014 A
HETATM   30  C4  UNL     1      41.823 -13.397  40.909  1.00  0.00     0.004 A
HETATM   31  C5  UNL     1      41.678 -14.783  40.989  1.00  0.00     0.036 A
HETATM   32  C6  UNL     1      40.886 -15.299  41.982  1.00  0.00     0.066 A
HETATM   33  C7  UNL     1      40.257 -14.460  42.868  1.00  0.00     0.050 A
BRANCH  32  34
HETATM   34  O3  UNL     1      40.716 -16.658  42.099  1.00  0.00    -0.361 OA
ATOM     35  H3  UNL     1      40.651 -17.203  41.323  1.00  0.00     0.217 HD
ENDBRANCH  32  34
ENDBRANCH   6  28
BRANCH  24  36
HETATM   36  C21 UNL     1      44.194  -8.259  47.021  1.00  0.00     0.032 A
HETATM   37  C22 UNL     1      44.720  -8.863  48.154  1.00  0.00     0.029 A
HETATM   38  C23 UNL     1      45.693  -8.251  48.898  1.00  0.00     0.002 A
HETATM   39  C24 UNL     1      46.213  -7.017  48.584  1.00  0.00     0.000 A
HETATM   40  C25 UNL     1      45.703  -6.405  47.465  1.00  0.00     0.002 A
HETATM   41  C26 UNL     1      44.730  -6.996  46.703  1.00  0.00     0.029 A
ENDBRANCH  24  36
TORSDOF 3
ENDMDL