MODEL 4
REMARK VINA RESULT: -8.134143512      1.217      1.744
REMARK  5 active torsions:
REMARK  status: ('A' for Active; 'I' for Inactive)
REMARK    1  A    between atoms: N1_2  and  C2_4
REMARK    2  A    between atoms: C2_4  and  N2_6
REMARK    3  A    between atoms: N2_6  and  N3_8
REMARK    4  A    between atoms: C7_14  and  C8_15
REMARK    5  A    between atoms: C17_26  and  O1_27
ROOT
HETATM    1  N3  UNL     1      40.509 -15.364  41.240  1.00  0.00    -0.302 N
ATOM      2  H3  UNL     1      39.850 -14.711  40.815  1.00  0.00     0.186 HD
HETATM    3  C3  UNL     1      41.682 -14.944  41.557  1.00  0.00     0.040 C
HETATM    4  C4  UNL     1      41.900 -13.473  41.220  1.00  0.00     0.100 C
HETATM    5  C5  UNL     1      41.595 -12.571  42.354  1.00  0.00    -0.025 A
HETATM    6  C6  UNL     1      40.287 -12.048  42.326  1.00  0.00     0.022 A
HETATM    7  C7  UNL     1      39.763 -11.225  43.280  1.00  0.00    -0.025 A
HETATM    8  C14 UNL     1      40.549 -10.876  44.344  1.00  0.00     0.014 A
HETATM    9  C15 UNL     1      41.811 -11.370  44.386  1.00  0.00     0.031 A
HETATM   10  C16 UNL     1      42.403 -12.231  43.411  1.00  0.00     0.040 A
HETATM   11  N4  UNL     1      43.737 -12.605  43.695  1.00  0.00    -0.340 N
ATOM     12  H4  UNL     1      43.757 -13.147  44.559  1.00  0.00     0.167 HD
HETATM   13  C17 UNL     1      45.018 -12.486  43.201  1.00  0.00     0.115 C
HETATM   14  C18 UNL     1      45.663 -12.569  41.896  1.00  0.00     0.085 C
HETATM   15  C19 UNL     1      46.741 -13.648  41.785  1.00  0.00     0.027 C
HETATM   16  C20 UNL     1      46.955 -14.460  43.012  1.00  0.00     0.123 C
HETATM   17  N5  UNL     1      47.254 -15.869  42.733  1.00  0.00    -0.357 N
ATOM     18  H5  UNL     1      48.189 -16.121  42.411  1.00  0.00     0.162 HD
HETATM   19  C21 UNL     1      46.263 -16.914  42.900  1.00  0.00     0.251 C
HETATM   20  O2  UNL     1      46.674 -18.110  43.140  1.00  0.00    -0.268 OA
HETATM   21  C22 UNL     1      44.792 -16.711  42.819  1.00  0.00     0.032 A
HETATM   22  C23 UNL     1      44.196 -17.266  43.980  1.00  0.00     0.017 A
HETATM   23  C24 UNL     1      42.871 -17.100  44.278  1.00  0.00     0.002 A
HETATM   24  C25 UNL     1      42.142 -16.360  43.387  1.00  0.00     0.013 A
HETATM   25  C26 UNL     1      42.708 -15.795  42.218  1.00  0.00    -0.011 A
HETATM   26  C27 UNL     1      44.043 -15.976  41.921  1.00  0.00     0.030 A
ENDROOT
BRANCH   1  27
HETATM   27  N2  UNL     1      40.112 -16.665  41.457  1.00  0.00    -0.276 N
ATOM     28  H2  UNL     1      40.809 -17.341  41.772  1.00  0.00     0.189 HD
BRANCH  27  29
HETATM   29  C2  UNL     1      38.764 -17.112  41.262  1.00  0.00     0.186 C
HETATM   30  S1  UNL     1      38.425 -18.567  40.603  1.00  0.00    -0.040 SA
BRANCH  29  31
HETATM   31  N1  UNL     1      37.662 -16.301  41.635  1.00  0.00    -0.370 N
HETATM   32  C1  UNL     1      36.308 -16.744  41.314  1.00  0.00     0.148 C
ATOM     33  H1  UNL     1      37.814 -15.417  42.122  1.00  0.00     0.161 HD
ENDBRANCH  29  31
ENDBRANCH  27  29
ENDBRANCH   1  27
BRANCH   7  34
HETATM   34  C8  UNL     1      38.411 -10.695  43.229  1.00  0.00    -0.026 A
HETATM   35  C9  UNL     1      37.338 -11.525  42.966  1.00  0.00     0.012 A
HETATM   36  C10 UNL     1      36.045 -11.056  42.910  1.00  0.00     0.001 A
HETATM   37  C11 UNL     1      35.791  -9.722  43.122  1.00  0.00     0.000 A
HETATM   38  C12 UNL     1      36.846  -8.861  43.389  1.00  0.00     0.001 A
HETATM   39  C13 UNL     1      38.144  -9.360  43.439  1.00  0.00     0.012 A
ENDBRANCH   7  34
BRANCH  13  40
HETATM   40  O1  UNL     1      45.995 -12.227  44.095  1.00  0.00    -0.349 OA
ATOM     41  H1  UNL     1      46.158 -11.314  44.301  1.00  0.00     0.219 HD
ENDBRANCH  13  40
TORSDOF 5
ENDMDL