MODEL 2
REMARK VINA RESULT: -10.925049785      2.813      3.704
REMARK  5 active torsions:
REMARK  status: ('A' for Active; 'I' for Inactive)
REMARK    1  A    between atoms: C8_8  and  C9_9
REMARK    2  A    between atoms: C9_9  and  N2_29
REMARK    3  A    between atoms: N1_10  and  S1_12
REMARK    4  A    between atoms: S1_12  and  C10_15
REMARK       I    between atoms: N2_29  and  C24_31
REMARK    5  A    between atoms: C27_38  and  O3_39
ROOT
HETATM    1  C9  UNL     1      37.147  -9.827  41.124  1.00  0.00     0.128 C
HETATM    2  N1  UNL     1      37.749 -10.911  41.225  1.00  0.00    -0.265 N
ATOM      3  H1  UNL     1      37.814 -11.405  40.335  1.00  0.00     0.180 HD
ENDROOT
BRANCH   1   4
HETATM    4  C8  UNL     1      36.627  -9.390  39.834  1.00  0.00     0.020 A
HETATM    5  C7  UNL     1      37.018  -8.161  39.331  1.00  0.00     0.016 A
HETATM    6  C6  UNL     1      36.550  -7.740  38.111  1.00  0.00     0.002 A
HETATM    7  C5  UNL     1      35.694  -8.549  37.402  1.00  0.00     0.012 A
HETATM    8  C4  UNL     1      35.303  -9.779  37.906  1.00  0.00    -0.024 A
HETATM    9  C3  UNL     1      34.452 -10.606  37.196  1.00  0.00     0.022 A
HETATM   10  C25 UNL     1      35.772 -10.223  39.148  1.00  0.00    -0.009 A
HETATM   11  C2  UNL     1      34.042 -11.847  37.652  1.00  0.00    -0.028 A
HETATM   12  C1  UNL     1      33.125 -12.663  36.811  1.00  0.00     0.051 C
HETATM   13  C27 UNL     1      34.502 -12.285  38.870  1.00  0.00     0.072 A
HETATM   14  C26 UNL     1      35.359 -11.457  39.588  1.00  0.00     0.050 A
BRANCH  13  15
HETATM   15  O3  UNL     1      34.094 -13.524  39.324  1.00  0.00    -0.360 OA
ATOM     16  H3  UNL     1      34.141 -14.263  38.730  1.00  0.00     0.217 HD
ENDBRANCH  13  15
ENDBRANCH   1   4
BRANCH   1  17
HETATM   17  N2  UNL     1      36.951  -8.979  42.238  1.00  0.00    -0.316 N
HETATM   18  C24 UNL     1      35.712  -8.842  42.942  1.00  0.00     0.187 C
HETATM   19  N3  UNL     1      35.187  -9.846  43.521  1.00  0.00    -0.373 N
HETATM   20  N4  UNL     1      35.090  -7.580  42.982  1.00  0.00    -0.064 NA
ATOM     21  H32 UNL     1      35.638 -10.760  43.492  1.00  0.00     0.158 HD
ATOM     22  H31 UNL     1      34.305  -9.748  44.023  1.00  0.00     0.158 HD
ATOM     23  H2  UNL     1      37.745  -8.427  42.561  1.00  0.00     0.170 HD
ENDBRANCH   1  17
BRANCH   2  24
HETATM   24  S1  UNL     1      38.480 -11.750  42.478  1.00  0.00     0.264 S
HETATM   25  O1  UNL     1      38.861 -13.174  42.062  1.00  0.00    -0.200 OA
HETATM   26  O2  UNL     1      37.419 -11.992  43.552  1.00  0.00    -0.200 OA
BRANCH  24  27
HETATM   27  C10 UNL     1      39.878 -10.970  43.191  1.00  0.00     0.080 A
HETATM   28  C11 UNL     1      41.153 -11.428  42.971  1.00  0.00     0.026 A
HETATM   29  C12 UNL     1      42.277 -10.815  43.555  1.00  0.00     0.014 A
HETATM   30  C13 UNL     1      42.132  -9.716  44.381  1.00  0.00    -0.015 A
HETATM   31  C14 UNL     1      40.843  -9.259  44.598  1.00  0.00    -0.024 A
HETATM   32  C22 UNL     1      43.231  -9.114  44.952  1.00  0.00    -0.015 A
HETATM   33  C15 UNL     1      40.645  -8.167  45.414  1.00  0.00     0.013 A
HETATM   34  C23 UNL     1      39.744  -9.877  44.013  1.00  0.00     0.037 A
HETATM   35  C16 UNL     1      41.742  -7.547  45.999  1.00  0.00     0.013 A
HETATM   36  C17 UNL     1      43.020  -8.008  45.778  1.00  0.00    -0.025 A
HETATM   37  C18 UNL     1      44.073  -7.366  46.379  1.00  0.00     0.012 A
HETATM   38  C19 UNL     1      45.355  -7.814  46.168  1.00  0.00     0.001 A
HETATM   39  C20 UNL     1      45.550  -8.917  45.344  1.00  0.00     0.001 A
HETATM   40  C21 UNL     1      44.510  -9.576  44.732  1.00  0.00     0.013 A
ENDBRANCH  24  27
ENDBRANCH   2  24
TORSDOF 5
ENDMDL