MODEL 4
REMARK VINA RESULT: -9.592603971      6.273      9.313
REMARK  6 active torsions:
REMARK  status: ('A' for Active; 'I' for Inactive)
REMARK    1  A    between atoms: C8_9  and  N2_10
REMARK    2  A    between atoms: N2_10  and  C9_12
REMARK    3  A    between atoms: C18_23  and  N4_24
REMARK    4  A    between atoms: N4_24  and  C19_26
REMARK    5  A    between atoms: C19_26  and  N5_28
REMARK    6  A    between atoms: N5_28  and  C20_30
ROOT
HETATM    1  C1  UNL     1      34.564  -8.027  42.061  1.00  0.00     0.051 C
HETATM    2  C2  UNL     1      35.863  -8.340  42.669  1.00  0.00    -0.023 A
HETATM    3  C3  UNL     1      36.630  -7.449  43.386  1.00  0.00     0.014 A
HETATM    4  C4  UNL     1      36.283  -6.013  43.673  1.00  0.00     0.069 C
HETATM    5  N1  UNL     1      37.778  -8.035  43.820  1.00  0.00    -0.353 N
HETATM    6  C5  UNL     1      38.768  -7.326  44.595  1.00  0.00     0.156 C
HETATM    7  C6  UNL     1      37.749  -9.286  43.389  1.00  0.00     0.061 A
HETATM    8  C7  UNL     1      36.569  -9.506  42.669  1.00  0.00     0.044 A
HETATM    9  C8  UNL     1      36.301 -10.720  42.118  1.00  0.00     0.119 A
HETATM   10  N3  UNL     1      37.158 -11.747  42.246  1.00  0.00    -0.341 N
ATOM     11  H3  UNL     1      36.931 -12.647  41.823  1.00  0.00     0.167 HD
HETATM   12  C15 UNL     1      38.310 -11.608  42.923  1.00  0.00     0.046 A
HETATM   13  C16 UNL     1      39.174 -12.700  43.034  1.00  0.00     0.033 A
HETATM   14  C17 UNL     1      40.329 -12.508  43.731  1.00  0.00     0.032 A
HETATM   15  C18 UNL     1      40.684 -11.313  44.323  1.00  0.00     0.035 A
HETATM   16  C27 UNL     1      39.800 -10.232  44.199  1.00  0.00     0.045 A
HETATM   17  C28 UNL     1      38.620 -10.371  43.505  1.00  0.00     0.021 A
ENDROOT
BRANCH  15  18
HETATM   18  N4  UNL     1      41.874 -11.212  45.047  1.00  0.00    -0.333 N
ATOM     19  H4  UNL     1      42.685 -11.616  44.578  1.00  0.00     0.168 HD
BRANCH  18  20
HETATM   20  C19 UNL     1      42.152 -10.660  46.294  1.00  0.00     0.191 C
HETATM   21  S1  UNL     1      41.777  -9.144  46.694  1.00  0.00    -0.040 SA
BRANCH  20  22
HETATM   22  N5  UNL     1      42.838 -11.430  47.308  1.00  0.00    -0.166 N
ATOM     23  H5  UNL     1      43.858 -11.428  47.342  1.00  0.00     0.186 HD
BRANCH  22  24
HETATM   24  C20 UNL     1      42.174 -12.115  48.166  1.00  0.00     0.685 A
HETATM   25  N6  UNL     1      41.575 -13.302  47.981  1.00  0.00    -0.189 N
HETATM   26  C21 UNL     1      40.986 -13.683  49.119  1.00  0.00     0.076 A
ATOM     27  H6  UNL     1      41.571 -13.831  47.108  1.00  0.00     0.184 HD
HETATM   28  C22 UNL     1      40.243 -14.784  49.514  1.00  0.00     0.032 A
HETATM   29  C26 UNL     1      41.221 -12.697  50.068  1.00  0.00     0.076 A
HETATM   30  C23 UNL     1      39.740 -14.931  50.787  1.00  0.00     0.002 A
HETATM   31  C24 UNL     1      39.988 -13.937  51.709  1.00  0.00     0.002 A
HETATM   32  C25 UNL     1      40.724 -12.829  51.346  1.00  0.00     0.032 A
HETATM   33  N7  UNL     1      41.950 -11.759  49.436  1.00  0.00    -0.189 N
ATOM     34  H7  UNL     1      42.287 -10.898  49.866  1.00  0.00     0.184 HD
ENDBRANCH  22  24
ENDBRANCH  20  22
ENDBRANCH  18  20
ENDBRANCH  15  18
BRANCH   9  35
HETATM   35  N2  UNL     1      35.232 -10.941  41.460  1.00  0.00    -0.342 N
ATOM     36  H2  UNL     1      34.362 -10.992  41.989  1.00  0.00     0.167 HD
BRANCH  35  37
HETATM   37  C9  UNL     1      35.150 -11.118  40.071  1.00  0.00     0.033 A
HETATM   38  C10 UNL     1      35.806 -10.258  39.217  1.00  0.00     0.029 A
HETATM   39  C11 UNL     1      35.757 -10.391  37.843  1.00  0.00     0.002 A
HETATM   40  C12 UNL     1      35.037 -11.408  37.285  1.00  0.00     0.000 A
HETATM   41  C13 UNL     1      34.364 -12.292  38.117  1.00  0.00     0.002 A
HETATM   42  C14 UNL     1      34.424 -12.144  39.497  1.00  0.00     0.029 A
ENDBRANCH  35  37
ENDBRANCH   9  35
TORSDOF 6
ENDMDL