MODEL 5
REMARK VINA RESULT: -9.294871356      1.503      1.552
REMARK  3 active torsions:
REMARK  status: ('A' for Active; 'I' for Inactive)
REMARK       I    between atoms: N2_8  and  C7_9
REMARK       I    between atoms: C7_9  and  N3_11
REMARK    1  A    between atoms: N3_11  and  C8_13
REMARK    2  A    between atoms: C8_13  and  C9_14
REMARK    3  A    between atoms: C24_31  and  O2_32
ROOT
HETATM    1  N1  UNL     1      41.592 -16.111  43.505  1.00  0.00    -0.102 NA
HETATM    2  C1  UNL     1      42.388 -14.937  43.335  1.00  0.00     0.048 A
HETATM    3  C2  UNL     1      43.707 -14.998  43.008  1.00  0.00     0.029 A
HETATM    4  C3  UNL     1      44.383 -13.844  42.874  1.00  0.00     0.034 A
HETATM    5  C4  UNL     1      43.891 -12.504  43.037  1.00  0.00     0.061 A
HETATM    6  C5  UNL     1      42.537 -12.482  43.369  1.00  0.00     0.073 A
HETATM    7  C6  UNL     1      41.824 -13.710  43.507  1.00  0.00     0.059 A
HETATM    8  N2  UNL     1      41.640 -11.383  43.572  1.00  0.00    -0.262 N
HETATM    9  C7  UNL     1      40.518 -11.371  42.664  1.00  0.00     0.328 C
HETATM   10  O1  UNL     1      40.449 -12.279  41.778  1.00  0.00    -0.246 OA
HETATM   11  N3  UNL     1      39.467 -10.424  42.677  1.00  0.00    -0.338 N
ATOM     12  H3  UNL     1      39.471  -9.679  43.374  1.00  0.00     0.164 HD
HETATM   13  C15 UNL     1      41.659 -10.308  44.560  1.00  0.00     0.054 A
HETATM   14  C16 UNL     1      41.593  -9.021  44.051  1.00  0.00     0.031 A
HETATM   15  C17 UNL     1      41.484  -7.874  44.803  1.00  0.00     0.002 A
HETATM   16  C18 UNL     1      41.433  -8.020  46.165  1.00  0.00     0.001 A
HETATM   17  C19 UNL     1      41.498  -9.286  46.688  1.00  0.00     0.014 A
HETATM   18  C20 UNL     1      41.615 -10.466  45.937  1.00  0.00    -0.009 A
HETATM   19  C21 UNL     1      41.708 -11.693  46.710  1.00  0.00     0.011 C
HETATM   20  C22 UNL     1      42.679 -12.501  47.067  1.00  0.00    -0.007 C
HETATM   21  C23 UNL     1      44.122 -12.383  46.766  1.00  0.00     0.149 C
HETATM   22  N4  UNL     1      44.576 -11.041  46.748  1.00  0.00    -0.367 N
ATOM     23  H4  UNL     1      44.411 -10.609  47.657  1.00  0.00     0.161 HD
HETATM   24  C24 UNL     1      45.160 -10.139  45.912  1.00  0.00     0.150 C
HETATM   25  C25 UNL     1      45.948 -10.071  44.670  1.00  0.00     0.059 A
HETATM   26  C26 UNL     1      47.108  -9.258  44.892  1.00  0.00     0.021 A
HETATM   27  C27 UNL     1      48.038  -8.998  43.924  1.00  0.00     0.018 A
HETATM   28  C28 UNL     1      47.826  -9.549  42.698  1.00  0.00     0.090 A
HETATM   29  N5  UNL     1      46.789 -10.265  42.529  1.00  0.00    -0.351 N
ATOM     30  H5  UNL     1      46.685 -10.649  41.590  1.00  0.00     0.166 HD
HETATM   31  C29 UNL     1      45.747 -10.619  43.434  1.00  0.00     0.120 A
HETATM   32  N6  UNL     1      44.832 -11.488  42.811  1.00  0.00    -0.340 N
ATOM     33  H6  UNL     1      44.866 -11.311  41.807  1.00  0.00     0.167 HD
ENDROOT
BRANCH  11  34
HETATM   34  C8  UNL     1      38.373 -10.498  41.702  1.00  0.00     0.162 C
BRANCH  34  35
HETATM   35  C9  UNL     1      37.281  -9.571  41.945  1.00  0.00    -0.040 A
HETATM   36  C10 UNL     1      36.257  -9.401  41.055  1.00  0.00     0.009 A
HETATM   37  C11 UNL     1      35.209  -8.527  41.268  1.00  0.00     0.001 A
HETATM   38  C12 UNL     1      35.196  -7.797  42.430  1.00  0.00     0.000 A
HETATM   39  C13 UNL     1      36.226  -7.950  43.353  1.00  0.00     0.001 A
HETATM   40  C14 UNL     1      37.264  -8.828  43.119  1.00  0.00     0.009 A
ENDBRANCH  34  35
ENDBRANCH  11  34
BRANCH  24  41
HETATM   41  O2  UNL     1      44.971  -8.875  46.343  1.00  0.00    -0.346 OA
ATOM     42  H2  UNL     1      44.290  -8.833  47.003  1.00  0.00     0.219 HD
ENDBRANCH  24  41
TORSDOF 3
ENDMDL