MODEL 4
REMARK VINA RESULT: -9.638134440      2.291      4.406
REMARK  7 active torsions:
REMARK  status: ('A' for Active; 'I' for Inactive)
REMARK    1  A    between atoms: C2_2  and  N1_5
REMARK    2  A    between atoms: N1_5  and  C5_7
REMARK    3  A    between atoms: C6_10  and  N3_11
REMARK    4  A    between atoms: N3_11  and  C7_13
REMARK    5  A    between atoms: C11_17  and  N4_18
REMARK    6  A    between atoms: N4_18  and  C12_20
REMARK    7  A    between atoms: C14_24  and  C15_25
ROOT
HETATM    1  C7  UNL     1      37.681 -16.417  41.342  1.00  0.00     0.035 A
HETATM    2  C8  UNL     1      36.804 -17.477  41.304  1.00  0.00     0.029 A
HETATM    3  C9  UNL     1      35.470 -17.291  41.582  1.00  0.00     0.004 A
HETATM    4  C10 UNL     1      34.978 -16.038  41.906  1.00  0.00     0.029 A
HETATM    5  C11 UNL     1      35.838 -14.973  41.948  1.00  0.00     0.035 A
HETATM    6  C25 UNL     1      37.175 -15.151  41.671  1.00  0.00     0.059 A
ENDROOT
BRANCH   1   7
HETATM    7  N3  UNL     1      39.039 -16.604  41.058  1.00  0.00    -0.341 N
ATOM      8  H3  UNL     1      39.325 -17.251  40.323  1.00  0.00     0.167 HD
BRANCH   7   9
HETATM    9  C6  UNL     1      39.926 -15.954  41.730  1.00  0.00     0.137 A
HETATM   10  N2  UNL     1      40.120 -14.611  41.605  1.00  0.00    -0.176 N
HETATM   11  C5  UNL     1      41.053 -13.957  42.315  1.00  0.00     0.681 A
ATOM     12  H2  UNL     1      39.537 -14.086  40.951  1.00  0.00     0.186 HD
HETATM   13  N8  UNL     1      41.820 -14.689  43.183  1.00  0.00    -0.174 N
HETATM   14  C28 UNL     1      41.675 -15.995  43.343  1.00  0.00     0.151 A
ATOM     15  H8  UNL     1      42.533 -14.208  43.731  1.00  0.00     0.186 HD
HETATM   16  C26 UNL     1      40.713 -16.645  42.608  1.00  0.00     0.071 A
HETATM   17  N7  UNL     1      42.282 -16.939  44.112  1.00  0.00    -0.285 N
HETATM   18  C27 UNL     1      40.785 -17.967  42.969  1.00  0.00     0.126 A
HETATM   19  N6  UNL     1      41.751 -18.121  43.889  1.00  0.00    -0.309 N
ATOM     20  H6  UNL     1      42.023 -18.997  44.334  1.00  0.00     0.186 HD
ATOM     21  H7  UNL     1      43.041 -16.756  44.768  1.00  0.00     0.188 HD
BRANCH  11  22
HETATM   22  N1  UNL     1      41.257 -12.692  42.227  1.00  0.00    -0.218 N
ATOM     23  H1  UNL     1      41.969 -12.400  41.557  1.00  0.00     0.178 HD
BRANCH  22  24
HETATM   24  C2  UNL     1      40.611 -11.645  42.949  1.00  0.00     0.036 C
HETATM   25  C1  UNL     1      41.679 -10.701  43.482  1.00  0.00     0.038 C
HETATM   26  C3  UNL     1      39.768 -10.821  41.954  1.00  0.00     0.038 C
HETATM   27  C4  UNL     1      39.694 -12.119  44.029  1.00  0.00     0.038 C
ENDBRANCH  22  24
ENDBRANCH  11  22
ENDBRANCH   7   9
ENDBRANCH   1   7
BRANCH   5  28
HETATM   28  N4  UNL     1      35.414 -13.639  42.274  1.00  0.00    -0.342 N
ATOM     29  H4  UNL     1      35.156 -13.417  43.236  1.00  0.00     0.167 HD
BRANCH  28  30
HETATM   30  C12 UNL     1      35.355 -12.719  41.374  1.00  0.00     0.116 A
HETATM   31  N5  UNL     1      34.889 -12.960  40.147  1.00  0.00    -0.351 N
HETATM   32  C13 UNL     1      34.863 -11.971  39.278  1.00  0.00     0.098 A
ATOM     33  H5  UNL     1      34.559 -13.890  39.887  1.00  0.00     0.166 HD
HETATM   34  C14 UNL     1      35.280 -10.658  39.496  1.00  0.00    -0.024 A
HETATM   35  C19 UNL     1      35.769 -10.391  40.775  1.00  0.00    -0.014 A
HETATM   36  C20 UNL     1      36.192  -9.150  41.108  1.00  0.00     0.013 A
HETATM   37  C24 UNL     1      35.793 -11.440  41.687  1.00  0.00     0.019 A
HETATM   38  C21 UNL     1      36.670  -8.910  42.400  1.00  0.00     0.001 A
HETATM   39  C22 UNL     1      36.711  -9.923  43.332  1.00  0.00     0.001 A
HETATM   40  C23 UNL     1      36.272 -11.173  42.959  1.00  0.00     0.016 A
BRANCH  34  41
HETATM   41  C15 UNL     1      35.243  -9.642  38.439  1.00  0.00    -0.022 C
HETATM   42  C16 UNL     1      36.422  -9.612  37.515  1.00  0.00     0.019 C
HETATM   43  C17 UNL     1      34.070 -10.036  37.522  1.00  0.00     0.019 C
HETATM   44  C18 UNL     1      34.844  -8.270  38.938  1.00  0.00     0.019 C
ENDBRANCH  34  41
ENDBRANCH  28  30
ENDBRANCH   5  28
TORSDOF 7
ENDMDL