MODEL 3
REMARK VINA RESULT: -5.786796918      2.246      5.848
REMARK  5 active torsions:
REMARK  status: ('A' for Active; 'I' for Inactive)
REMARK    1  A    between atoms: C2_2  and  O2_4
REMARK    2  A    between atoms: O2_4  and  C3_5
REMARK    3  A    between atoms: C3_5  and  N1_6
REMARK    4  A    between atoms: C4_7  and  C5_8
REMARK    5  A    between atoms: C8_16  and  N4_17
ROOT
HETATM    1  N1  UNL     1     -16.958 -99.673  -4.806  1.00  0.00    -0.196 N
HETATM    2  C4  UNL     1     -18.170-100.012  -4.359  1.00  0.00     0.224 A
HETATM    3  N2  UNL     1     -17.985-101.137  -3.611  1.00  0.00    -0.255 N
ATOM      4  H2  UNL     1     -18.716-101.655  -3.122  1.00  0.00     0.191 HD
HETATM    5  N3  UNL     1     -16.707-101.441  -3.626  1.00  0.00    -0.175 N
HETATM    6  C6  UNL     1     -15.846-102.378  -3.127  1.00  0.00     0.065 A
HETATM    7  C7  UNL     1     -14.578-102.066  -3.565  1.00  0.00     0.015 A
HETATM    8  C8  UNL     1     -14.750-100.919  -4.330  1.00  0.00     0.150 A
HETATM    9  N5  UNL     1     -16.048-100.561  -4.351  1.00  0.00    -0.148 N
HETATM   10  C9  UNL     1     -13.366-102.866  -3.223  1.00  0.00     0.044 C
HETATM   11  C10 UNL     1     -13.716-104.119  -2.508  1.00  0.00     0.005 C
HETATM   12  C11 UNL     1     -15.097-104.639  -2.787  1.00  0.00     0.006 C
HETATM   13  C12 UNL     1     -16.064-103.575  -2.259  1.00  0.00     0.062 C
ENDROOT
BRANCH   1  14
HETATM   14  C3  UNL     1     -16.572 -98.523  -5.603  1.00  0.00     0.266 C
BRANCH  14  15
HETATM   15  O2  UNL     1     -15.774 -98.737  -6.685  1.00  0.00    -0.272 OA
BRANCH  15  16
HETATM   16  C2  UNL     1     -14.536 -98.411  -7.062  1.00  0.00     0.260 C
HETATM   17  C1  UNL     1     -13.762 -99.133  -8.134  1.00  0.00     0.126 C
HETATM   18  O1  UNL     1     -13.953 -97.455  -6.517  1.00  0.00    -0.265 OA
ENDBRANCH  15  16
ENDBRANCH  14  15
ENDBRANCH   1  14
BRANCH   2  19
HETATM   19  C5  UNL     1     -19.488 -99.396  -4.618  1.00  0.00     0.248 C
HETATM   20  O3  UNL     1     -20.518-100.076  -4.392  1.00  0.00    -0.642 OA
HETATM   21  O4  UNL     1     -19.672 -98.125  -5.093  1.00  0.00    -0.642 OA
ENDBRANCH   2  19
BRANCH   8  22
HETATM   22  N4  UNL     1     -13.756-100.343  -4.899  1.00  0.00    -0.382 N
ATOM     23  H42 UNL     1     -13.126 -99.639  -4.515  1.00  0.00     0.157 HD
ATOM     24  H41 UNL     1     -13.493-100.565  -5.859  1.00  0.00     0.157 HD
ENDBRANCH   8  22
TORSDOF 5
ENDMDL