MODEL 4
REMARK VINA RESULT: -8.154960808      1.477      2.325
REMARK  6 active torsions:
REMARK  status: ('A' for Active; 'I' for Inactive)
REMARK    1  A    between atoms: C3_4  and  S1_5
REMARK    2  A    between atoms: S1_5  and  C4_6
REMARK    3  A    between atoms: C4_6  and  C5_8
REMARK    4  A    between atoms: C5_8  and  O4_10
REMARK    5  A    between atoms: O4_10  and  N1_11
REMARK    6  A    between atoms: N1_11  and  C6_13
ROOT
HETATM    1  C5  UNL     1     -19.843 -98.259  -6.487  1.00  0.00     0.363 C
HETATM    2  O3  UNL     1     -19.256 -97.231  -6.878  1.00  0.00    -0.253 OA
ENDROOT
BRANCH   1   3
HETATM    3  C4  UNL     1     -19.145 -99.379  -5.895  1.00  0.00     0.292 C
HETATM    4  O2  UNL     1     -19.155-100.513  -6.473  1.00  0.00    -0.273 OA
BRANCH   3   5
HETATM    5  S1  UNL     1     -18.258 -99.244  -4.372  1.00  0.00    -0.016 SA
BRANCH   5   6
HETATM    6  C3  UNL     1     -16.558 -99.685  -4.626  1.00  0.00     0.126 A
HETATM    7  O1  UNL     1     -15.674 -99.131  -5.432  1.00  0.00    -0.307 OA
HETATM    8  C2  UNL     1     -14.509 -99.728  -5.353  1.00  0.00     0.057 A
HETATM    9  C1  UNL     1     -13.286 -99.366  -6.120  1.00  0.00     0.077 C
HETATM   10  C9  UNL     1     -14.607-100.753  -4.436  1.00  0.00    -0.023 A
HETATM   11  C7  UNL     1     -15.907-100.715  -3.983  1.00  0.00    -0.013 A
HETATM   12  C10 UNL     1     -13.553-101.715  -4.002  1.00  0.00     0.051 C
HETATM   13  C8  UNL     1     -16.481-101.656  -2.960  1.00  0.00     0.052 C
ENDBRANCH   5   6
ENDBRANCH   3   5
ENDBRANCH   1   3
BRANCH   1  14
HETATM   14  O4  UNL     1     -21.206 -98.311  -6.633  1.00  0.00    -0.177 OA
BRANCH  14  15
HETATM   15  N1  UNL     1     -22.077 -98.640  -5.630  1.00  0.00    -0.085 N
ATOM     16  H1  UNL     1     -22.132 -98.041  -4.805  1.00  0.00     0.214 HD
BRANCH  15  17
HETATM   17  C6  UNL     1     -22.837 -99.693  -5.697  1.00  0.00     0.734 A
HETATM   18  N2  UNL     1     -24.146 -99.815  -5.488  1.00  0.00    -0.113 N
HETATM   19  N3  UNL     1     -24.486-101.080  -5.671  1.00  0.00    -0.213 N
ATOM     20  H2  UNL     1     -24.781 -99.060  -5.229  1.00  0.00     0.207 HD
HETATM   21  N4  UNL     1     -23.412-101.775  -5.996  1.00  0.00    -0.213 N
ATOM     22  H3  UNL     1     -25.428-101.458  -5.577  1.00  0.00     0.210 HD
HETATM   23  N5  UNL     1     -22.385-100.917  -6.013  1.00  0.00    -0.113 N
ATOM     24  H4  UNL     1     -23.373-102.774  -6.195  1.00  0.00     0.210 HD
ATOM     25  H5  UNL     1     -21.417-101.154  -6.231  1.00  0.00     0.207 HD
ENDBRANCH  15  17
ENDBRANCH  14  15
ENDBRANCH   1  14
TORSDOF 6
ENDMDL