MODEL 2
REMARK VINA RESULT: -6.035851994      2.358      5.316
REMARK  5 active torsions:
REMARK  status: ('A' for Active; 'I' for Inactive)
REMARK    1  A    between atoms: C2_2  and  N1_3
REMARK    2  A    between atoms: C3_4  and  C4_5
REMARK    3  A    between atoms: C4_5  and  O2_7
REMARK    4  A    between atoms: C6_9  and  N2_10
REMARK    5  A    between atoms: N3_12  and  N4_14
ROOT
HETATM    1  N1  UNL     1     -15.331 -99.689  -5.340  1.00  0.00    -0.326 N
HETATM    2  C3  UNL     1     -16.669 -99.591  -5.323  1.00  0.00     0.141 A
HETATM    3  C6  UNL     1     -17.151-100.631  -4.512  1.00  0.00     0.102 A
HETATM    4  C7  UNL     1     -16.047-101.322  -4.067  1.00  0.00     0.107 A
HETATM    5  C8  UNL     1     -15.866-102.428  -3.250  1.00  0.00     0.267 A
HETATM    6  O3  UNL     1     -16.868-102.997  -2.757  1.00  0.00    -0.267 OA
HETATM    7  N5  UNL     1     -14.658-102.920  -2.961  1.00  0.00    -0.270 N
HETATM    8  C9  UNL     1     -14.478-104.074  -2.107  1.00  0.00     0.164 C
HETATM    9  C10 UNL     1     -13.575-102.319  -3.484  1.00  0.00     0.330 A
HETATM   10  O4  UNL     1     -12.408-102.730  -3.253  1.00  0.00    -0.246 OA
HETATM   11  N6  UNL     1     -13.691-101.230  -4.293  1.00  0.00    -0.293 N
ATOM     12  H6  UNL     1     -12.859-100.787  -4.683  1.00  0.00     0.172 HD
HETATM   13  C11 UNL     1     -14.915-100.746  -4.574  1.00  0.00     0.130 A
ENDROOT
BRANCH   3  14
HETATM   14  N2  UNL     1     -18.501-100.913  -4.211  1.00  0.00    -0.283 N
HETATM   15  N3  UNL     1     -19.219-100.297  -3.400  1.00  0.00    -0.249 N
ATOM     16  H3  UNL     1     -20.180-100.624  -3.294  1.00  0.00     0.207 HD
ATOM     17  H2  UNL     1     -18.929-101.696  -4.703  1.00  0.00     0.188 HD
BRANCH  15  18
HETATM   18  N4  UNL     1     -18.839 -99.209  -2.628  1.00  0.00    -0.331 N
ATOM     19  H42 UNL     1     -17.998 -99.337  -2.065  1.00  0.00     0.178 HD
ATOM     20  H41 UNL     1     -19.317 -98.309  -2.576  1.00  0.00     0.178 HD
ENDBRANCH  15  18
ENDBRANCH   3  14
BRANCH   2  21
HETATM   21  C4  UNL     1     -17.570 -98.639  -5.961  1.00  0.00     0.312 C
HETATM   22  O1  UNL     1     -17.425 -98.271  -7.156  1.00  0.00    -0.258 OA
BRANCH  21  23
HETATM   23  O2  UNL     1     -18.639 -98.097  -5.255  1.00  0.00    -0.321 OA
HETATM   24  C5  UNL     1     -19.820 -97.752  -5.949  1.00  0.00     0.213 C
ENDBRANCH  21  23
ENDBRANCH   2  21
BRANCH   1  25
HETATM   25  C2  UNL     1     -14.448 -98.815  -6.068  1.00  0.00     0.126 C
HETATM   26  C1  UNL     1     -13.707 -99.480  -7.176  1.00  0.00     0.027 C
ENDBRANCH   1  25
TORSDOF 5
ENDMDL