MODEL 3
REMARK VINA RESULT: -7.494761320      2.038      6.197
REMARK  7 active torsions:
REMARK  status: ('A' for Active; 'I' for Inactive)
REMARK    1  A    between atoms: C3_4  and  N2_5
REMARK    2  A    between atoms: C4_8  and  N3_9
REMARK    3  A    between atoms: N3_9  and  N4_11
REMARK    4  A    between atoms: C5_13  and  C6_14
REMARK    5  A    between atoms: C9_17  and  O3_18
REMARK    6  A    between atoms: N6_22  and  N7_23
REMARK    7  A    between atoms: N7_23  and  O4_27
ROOT
HETATM    1  C1  UNL     1     -20.379 -98.688  -6.738  1.00  0.00     0.179 C
HETATM    2  N1  UNL     1     -18.986 -98.812  -6.254  1.00  0.00    -0.279 N
HETATM    3  C2  UNL     1     -17.874 -98.554  -6.925  1.00  0.00     0.152 A
HETATM    4  C3  UNL     1     -16.737 -98.774  -6.107  1.00  0.00     0.168 A
HETATM    5  C4  UNL     1     -17.248 -99.179  -4.912  1.00  0.00     0.199 A
HETATM    6  N6  UNL     1     -18.629 -99.188  -5.047  1.00  0.00    -0.133 N
ENDROOT
BRANCH   5   7
HETATM    7  N3  UNL     1     -16.694 -99.443  -3.813  1.00  0.00    -0.281 N
ATOM      8  H3  UNL     1     -17.150 -99.047  -2.991  1.00  0.00     0.188 HD
BRANCH   7   9
HETATM    9  N4  UNL     1     -15.580-100.175  -3.558  1.00  0.00    -0.308 N
HETATM   10  C5  UNL     1     -15.578-101.467  -3.810  1.00  0.00     0.136 C
ATOM     11  H4  UNL     1     -14.749 -99.726  -3.173  1.00  0.00     0.186 HD
BRANCH  10  12
HETATM   12  C6  UNL     1     -14.433-102.308  -3.567  1.00  0.00     0.051 A
HETATM   13  C7  UNL     1     -14.500-103.468  -2.765  1.00  0.00     0.035 A
HETATM   14  C8  UNL     1     -13.256-104.015  -2.752  1.00  0.00     0.058 A
HETATM   15  C9  UNL     1     -12.426-103.225  -3.524  1.00  0.00     0.140 A
HETATM   16  N5  UNL     1     -13.173-102.203  -3.998  1.00  0.00    -0.336 N
ATOM     17  H5  UNL     1     -12.824-101.457  -4.599  1.00  0.00     0.168 HD
BRANCH  15  18
HETATM   18  O3  UNL     1     -11.091-103.385  -3.802  1.00  0.00    -0.346 OA
ATOM     19  H3  UNL     1     -10.679-103.746  -4.579  1.00  0.00     0.219 HD
ENDBRANCH  15  18
ENDBRANCH  10  12
ENDBRANCH   7   9
ENDBRANCH   5   7
BRANCH   4  20
HETATM   20  N2  UNL     1     -15.404 -98.582  -6.552  1.00  0.00    -0.110 N
HETATM   21  O1  UNL     1     -14.465 -98.736  -5.705  1.00  0.00    -0.532 OA
HETATM   22  O2  UNL     1     -14.997 -98.232  -7.796  1.00  0.00    -0.532 OA
ENDBRANCH   4  20
BRANCH   6  23
HETATM   23  N7  UNL     1     -19.506 -99.570  -4.040  1.00  0.00    -0.078 N
HETATM   24  N8  UNL     1     -20.520-100.284  -4.219  1.00  0.00    -0.302 N
ATOM     25  H82 UNL     1     -20.712-100.589  -5.173  1.00  0.00     0.181 HD
ATOM     26  H81 UNL     1     -21.164-100.565  -3.479  1.00  0.00     0.181 HD
BRANCH  23  27
HETATM   27  O4  UNL     1     -19.244 -99.152  -2.733  1.00  0.00    -0.252 OA
ATOM     28  H4  UNL     1     -18.399 -99.358  -2.351  1.00  0.00     0.248 HD
ENDBRANCH  23  27
ENDBRANCH   6  23
TORSDOF 7
ENDMDL