MODEL 1
REMARK VINA RESULT: -6.372093403      0.000      0.000
REMARK  4 active torsions:
REMARK  status: ('A' for Active; 'I' for Inactive)
REMARK    1  A    between atoms: O1_2  and  C2_3
REMARK    2  A    between atoms: C5_6  and  N1_7
REMARK    3  A    between atoms: N1_7  and  C6_9
REMARK    4  A    between atoms: C7_18  and  N7_19
ROOT
HETATM    1  C2  UNL     1     -21.294 -98.839  -5.859  1.00  0.00     0.112 A
HETATM    2  C3  UNL     1     -20.414 -99.051  -4.836  1.00  0.00     0.062 A
HETATM    3  C4  UNL     1     -19.107 -99.042  -5.122  1.00  0.00     0.047 A
HETATM    4  C5  UNL     1     -18.028 -99.234  -4.244  1.00  0.00     0.149 A
HETATM    5  N6  UNL     1     -16.783 -99.189  -4.714  1.00  0.00    -0.175 N
ATOM      6  H6  UNL     1     -16.028 -99.334  -4.043  1.00  0.00     0.186 HD
HETATM    7  C7  UNL     1     -16.439 -98.974  -5.971  1.00  0.00     0.682 A
HETATM    8  N8  UNL     1     -17.459 -98.784  -6.849  1.00  0.00    -0.184 N
ATOM      9  H8  UNL     1     -17.260 -98.614  -7.835  1.00  0.00     0.185 HD
HETATM   10  C10 UNL     1     -18.750 -98.822  -6.407  1.00  0.00     0.107 A
HETATM   11  S1  UNL     1     -20.256 -98.628  -7.216  1.00  0.00    -0.046 SA
ENDROOT
BRANCH   4  12
HETATM   12  N1  UNL     1     -18.197 -99.478  -2.857  1.00  0.00    -0.173 N
ATOM     13  H1  UNL     1     -18.501-100.403  -2.557  1.00  0.00     0.186 HD
BRANCH  12  14
HETATM   14  C6  UNL     1     -17.981 -98.578  -1.959  1.00  0.00     0.709 A
HETATM   15  N2  UNL     1     -18.250 -97.267  -2.077  1.00  0.00    -0.117 N
HETATM   16  N3  UNL     1     -17.893 -96.660  -0.954  1.00  0.00     0.006 NA
ATOM     17  H2  UNL     1     -18.661 -96.814  -2.893  1.00  0.00     0.202 HD
HETATM   18  N4  UNL     1     -17.395 -97.562  -0.111  1.00  0.00     0.006 NA
HETATM   19  N5  UNL     1     -17.452 -98.744  -0.734  1.00  0.00    -0.117 N
ATOM     20  H5  UNL     1     -17.143 -99.634  -0.341  1.00  0.00     0.202 HD
ENDBRANCH  12  14
ENDBRANCH   4  12
BRANCH   7  21
HETATM   21  N7  UNL     1     -15.099 -98.934  -6.436  1.00  0.00    -0.226 N
HETATM   22  C8  UNL     1     -14.021 -99.591  -5.728  1.00  0.00     0.168 C
HETATM   23  C9  UNL     1     -14.809 -98.213  -7.657  1.00  0.00     0.168 C
ENDBRANCH   7  21
BRANCH   1  24
HETATM   24  O1  UNL     1     -22.691 -98.797  -5.843  1.00  0.00    -0.349 OA
HETATM   25  C1  UNL     1     -23.375 -99.940  -5.332  1.00  0.00     0.211 C
ENDBRANCH   1  24
TORSDOF 4
ENDMDL