MODEL 3
REMARK VINA RESULT: -7.302532965      2.147      2.547
REMARK  5 active torsions:
REMARK  status: ('A' for Active; 'I' for Inactive)
REMARK    1  A    between atoms: C2_2  and  C4_5
REMARK    2  A    between atoms: C4_5  and  O1_6
REMARK    3  A    between atoms: C4_5  and  N2_8
REMARK    4  A    between atoms: C8_16  and  S1_17
REMARK    5  A    between atoms: S1_17  and  C9_18
ROOT
HETATM    1  C1  UNL     1     -13.891-100.662  -4.923  1.00  0.00     0.040 C
HETATM    2  C2  UNL     1     -14.452-101.426  -4.062  1.00  0.00     0.087 C
HETATM    3  C3  UNL     1     -13.587-102.463  -3.428  1.00  0.00     0.103 C
HETATM    4  N1  UNL     1     -12.934-103.275  -2.933  1.00  0.00    -0.191 NA
ENDROOT
BRANCH   2   5
HETATM    5  C4  UNL     1     -15.821-101.426  -3.659  1.00  0.00     0.179 C
BRANCH   5   6
HETATM    6  O1  UNL     1     -16.192-102.407  -2.850  1.00  0.00    -0.344 OA
ATOM      7  H1  UNL     1     -16.026-102.272  -1.924  1.00  0.00     0.219 HD
ENDBRANCH   5   6
BRANCH   5   8
HETATM    8  N2  UNL     1     -16.869-100.566  -3.960  1.00  0.00    -0.250 N
HETATM    9  C5  UNL     1     -16.514 -99.207  -4.441  1.00  0.00     0.273 C
HETATM   10  N3  UNL     1     -17.284 -98.984  -5.655  1.00  0.00    -0.364 N
HETATM   11  C6  UNL     1     -18.691 -99.220  -5.573  1.00  0.00     0.144 A
ATOM     12  H3  UNL     1     -16.843 -98.674  -6.521  1.00  0.00     0.161 HD
HETATM   13  C7  UNL     1     -19.151-100.134  -4.661  1.00  0.00     0.154 A
HETATM   14  C10 UNL     1     -19.563 -98.525  -6.409  1.00  0.00     0.277 A
HETATM   15  N4  UNL     1     -20.495-100.343  -4.599  1.00  0.00    -0.319 N
HETATM   16  N6  UNL     1     -18.240-100.837  -3.818  1.00  0.00    -0.278 N
HETATM   17  C8  UNL     1     -21.353 -99.683  -5.397  1.00  0.00     0.155 A
ATOM     18  H4  UNL     1     -20.861-101.018  -3.928  1.00  0.00     0.169 HD
HETATM   19  N5  UNL     1     -20.877 -98.784  -6.291  1.00  0.00    -0.301 N
ATOM     20  H5  UNL     1     -21.535 -98.289  -6.892  1.00  0.00     0.171 HD
ATOM     21  H6  UNL     1     -18.574-101.516  -3.134  1.00  0.00     0.189 HD
HETATM   22  O3  UNL     1     -19.073 -97.699  -7.224  1.00  0.00    -0.265 OA
BRANCH  17  23
HETATM   23  S1  UNL     1     -23.113 -99.934  -5.338  1.00  0.00    -0.025 SA
BRANCH  23  24
HETATM   24  C9  UNL     1     -24.023 -98.592  -6.021  1.00  0.00     0.312 C
HETATM   25  O2  UNL     1     -25.183 -98.733  -6.325  1.00  0.00    -0.295 OA
ENDBRANCH  23  24
ENDBRANCH  17  23
ENDBRANCH   5   8
ENDBRANCH   2   5
TORSDOF 5
ENDMDL