MODEL 2
REMARK VINA RESULT: -5.156487114      2.341      4.262
REMARK  5 active torsions:
REMARK  status: ('A' for Active; 'I' for Inactive)
REMARK    1  A    between atoms: C2_4  and  C3_5
REMARK    2  A    between atoms: C3_5  and  N2_6
REMARK    3  A    between atoms: C3_5  and  N7_23
REMARK    4  A    between atoms: C11_18  and  N6_19
REMARK    5  A    between atoms: N6_19  and  O1_21
ROOT
HETATM    1  N2  UNL     1     -16.815-100.449  -4.042  1.00  0.00    -0.300 N
HETATM    2  C4  UNL     1     -16.005 -99.743  -4.853  1.00  0.00     0.143 A
HETATM    3  N3  UNL     1     -16.327 -98.558  -5.561  1.00  0.00    -0.081 NA
HETATM    4  C5  UNL     1     -14.782-100.367  -4.890  1.00  0.00     0.101 A
HETATM    5  C6  UNL     1     -13.589-100.021  -5.596  1.00  0.00     0.104 C
HETATM    6  N4  UNL     1     -12.618 -99.726  -6.160  1.00  0.00    -0.191 NA
HETATM    7  C7  UNL     1     -14.888-101.471  -4.072  1.00  0.00     0.046 A
HETATM    8  C8  UNL     1     -16.183-101.503  -3.546  1.00  0.00     0.068 A
HETATM    9  C9  UNL     1     -16.577-102.583  -2.635  1.00  0.00     0.118 C
HETATM   10  N5  UNL     1     -15.680-103.654  -2.529  1.00  0.00    -0.371 N
ATOM     11  H5  UNL     1     -16.027-104.605  -2.407  1.00  0.00     0.164 HD
HETATM   12  C10 UNL     1     -14.302-103.407  -2.594  1.00  0.00     0.119 C
HETATM   13  C11 UNL     1     -13.927-102.510  -3.715  1.00  0.00     0.083 C
ENDROOT
BRANCH   1  14
HETATM   14  C3  UNL     1     -18.189-100.078  -3.769  1.00  0.00     0.301 C
BRANCH  14  15
HETATM   15  C2  UNL     1     -18.275 -98.800  -3.014  1.00  0.00     0.108 C
HETATM   16  N1  UNL     1     -17.703 -98.645  -1.897  1.00  0.00    -0.403 N
HETATM   17  C1  UNL     1     -17.735 -97.467  -1.115  1.00  0.00     0.145 C
ATOM     18  H1  UNL     1     -17.174 -99.435  -1.529  1.00  0.00     0.158 HD
ENDBRANCH  14  15
BRANCH  14  19
HETATM   19  N7  UNL     1     -18.991-100.023  -4.952  1.00  0.00    -0.125 N
HETATM   20  O2  UNL     1     -18.779-100.795  -5.896  1.00  0.00    -0.534 OA
HETATM   21  O3  UNL     1     -20.012 -99.117  -5.075  1.00  0.00    -0.534 OA
ENDBRANCH  14  19
ENDBRANCH   1  14
BRANCH  13  22
HETATM   22  N6  UNL     1     -12.838-102.593  -4.371  1.00  0.00    -0.267 N
ATOM     23  H6  UNL     1     -12.772-102.060  -5.238  1.00  0.00     0.194 HD
BRANCH  22  24
HETATM   24  O1  UNL     1     -11.758-103.330  -4.014  1.00  0.00    -0.289 OA
ATOM     25  H1  UNL     1     -10.877-103.218  -4.350  1.00  0.00     0.244 HD
ENDBRANCH  22  24
ENDBRANCH  13  22
TORSDOF 5
ENDMDL