MODEL 3
REMARK VINA RESULT: -6.375498838      3.474      4.772
REMARK  4 active torsions:
REMARK  status: ('A' for Active; 'I' for Inactive)
REMARK    1  A    between atoms: C3_4  and  C4_5
REMARK    2  A    between atoms: C3_4  and  C5_8
REMARK    3  A    between atoms: C7_12  and  N3_13
REMARK    4  A    between atoms: C9_22  and  N6_23
ROOT
HETATM    1  N1  UNL     1     -24.380 -98.728  -5.943  1.00  0.00    -0.192 NA
HETATM    2  C1  UNL     1     -23.309 -99.170  -5.732  1.00  0.00     0.089 C
HETATM    3  C2  UNL     1     -22.021 -99.736  -5.449  1.00  0.00     0.114 C
HETATM    4  C3  UNL     1     -20.910 -99.276  -5.956  1.00  0.00     0.081 C
ENDROOT
BRANCH   4   5
HETATM    5  C4  UNL     1     -20.920 -98.128  -6.875  1.00  0.00     0.212 C
HETATM    6  O1  UNL     1     -20.103 -97.214  -6.719  1.00  0.00    -0.644 OA
HETATM    7  O2  UNL     1     -21.812 -98.041  -7.907  1.00  0.00    -0.644 OA
ENDBRANCH   4   5
BRANCH   4   8
HETATM    8  C5  UNL     1     -19.580 -99.775  -5.574  1.00  0.00     0.094 A
HETATM    9  N2  UNL     1     -19.077 -99.252  -4.433  1.00  0.00    -0.347 N
HETATM   10  C6  UNL     1     -17.864 -99.646  -3.939  1.00  0.00     0.119 A
ATOM     11  H2  UNL     1     -19.614 -98.547  -3.928  1.00  0.00     0.166 HD
HETATM   12  C7  UNL     1     -17.234 -99.200  -2.819  1.00  0.00     0.209 A
HETATM   13  C8  UNL     1     -17.209-100.594  -4.673  1.00  0.00     0.123 A
HETATM   14  N4  UNL     1     -16.041 -99.732  -2.546  1.00  0.00    -0.304 N
HETATM   15  S1  UNL     1     -15.757-100.819  -3.772  1.00  0.00     0.008 SA
ATOM     16  H4  UNL     1     -15.434 -99.519  -1.755  1.00  0.00     0.176 HD
HETATM   17  N5  UNL     1     -17.710-101.114  -5.803  1.00  0.00    -0.332 N
HETATM   18  C9  UNL     1     -18.944-100.711  -6.298  1.00  0.00     0.128 A
ATOM     19  H5  UNL     1     -17.175-101.819  -6.310  1.00  0.00     0.168 HD
BRANCH  12  20
HETATM   20  N3  UNL     1     -17.764 -98.176  -1.922  1.00  0.00    -0.095 N
HETATM   21  O3  UNL     1     -18.519 -97.283  -2.303  1.00  0.00    -0.530 OA
HETATM   22  O4  UNL     1     -17.433 -98.192  -0.600  1.00  0.00    -0.530 OA
ENDBRANCH  12  20
BRANCH  18  23
HETATM   23  N6  UNL     1     -19.330-101.334  -7.289  1.00  0.00    -0.384 N
ATOM     24  H62 UNL     1     -18.760-101.202  -8.124  1.00  0.00     0.157 HD
ATOM     25  H61 UNL     1     -20.085-102.014  -7.375  1.00  0.00     0.157 HD
ENDBRANCH  18  23
ENDBRANCH   4   8
TORSDOF 4
ENDMDL