MODEL 3
REMARK VINA RESULT: -6.561438958      2.122      7.616
REMARK  4 active torsions:
REMARK  status: ('A' for Active; 'I' for Inactive)
REMARK    1  A    between atoms: C3_4  and  C4_5
REMARK       I    between atoms: C4_5  and  N2_7
REMARK    2  A    between atoms: N2_7  and  N3_9
REMARK    3  A    between atoms: N6_19  and  C10_20
REMARK    4  A    between atoms: C11_26  and  N9_27
ROOT
HETATM    1  N1  UNL     1     -18.916 -99.363  -3.237  1.00  0.00    -0.190 NA
HETATM    2  C1  UNL     1     -18.396 -99.164  -4.232  1.00  0.00     0.122 C
HETATM    3  C2  UNL     1     -17.745 -98.924  -5.497  1.00  0.00     0.170 A
HETATM    4  C3  UNL     1     -18.305 -98.389  -6.638  1.00  0.00     0.155 A
HETATM    5  N4  UNL     1     -17.305 -98.366  -7.538  1.00  0.00    -0.276 N
ATOM      6  H4  UNL     1     -17.379 -98.027  -8.497  1.00  0.00     0.184 HD
HETATM    7  N5  UNL     1     -16.209 -98.856  -6.977  1.00  0.00    -0.012 NA
HETATM    8  N6  UNL     1     -16.437 -99.210  -5.722  1.00  0.00    -0.206 N
ENDROOT
BRANCH   4   9
HETATM    9  C4  UNL     1     -19.688 -97.954  -6.802  1.00  0.00     0.290 C
HETATM   10  O1  UNL     1     -19.960 -96.730  -6.757  1.00  0.00    -0.264 OA
HETATM   11  N2  UNL     1     -20.732 -98.876  -7.012  1.00  0.00    -0.265 N
ATOM     12  H2  UNL     1     -20.528 -99.874  -7.052  1.00  0.00     0.190 HD
BRANCH  11  13
HETATM   13  N3  UNL     1     -22.039 -98.432  -7.166  1.00  0.00    -0.306 N
HETATM   14  C5  UNL     1     -22.969 -98.748  -6.348  1.00  0.00     0.004 C
HETATM   15  C6  UNL     1     -24.388 -98.345  -6.400  1.00  0.00     0.054 C
HETATM   16  C9  UNL     1     -22.808 -99.603  -5.156  1.00  0.00     0.054 C
HETATM   17  C7  UNL     1     -25.121 -99.337  -5.500  1.00  0.00     0.006 C
HETATM   18  C8  UNL     1     -24.088-100.432  -5.199  1.00  0.00     0.006 C
ATOM     19  H3  UNL     1     -22.264 -97.832  -7.959  1.00  0.00     0.186 HD
ENDBRANCH  11  13
ENDBRANCH   4   9
BRANCH   8  20
HETATM   20  C10 UNL     1     -15.524 -99.776  -4.776  1.00  0.00     0.194 A
HETATM   21  N7  UNL     1     -15.785-100.225  -3.535  1.00  0.00    -0.221 N
HETATM   22  O2  UNL     1     -14.662-100.655  -3.032  1.00  0.00    -0.153 OA
ATOM     23  H7  UNL     1     -16.694-100.229  -3.072  1.00  0.00     0.198 HD
HETATM   24  N8  UNL     1     -13.696-100.507  -3.879  1.00  0.00    -0.222 N
HETATM   25  C11 UNL     1     -14.171 -99.955  -5.010  1.00  0.00     0.169 A
ATOM     26  H8  UNL     1     -12.724-100.770  -3.715  1.00  0.00     0.198 HD
BRANCH  25  27
HETATM   27  N9  UNL     1     -13.539 -99.647  -6.088  1.00  0.00    -0.381 N
ATOM     28  H92 UNL     1     -13.630-100.049  -7.022  1.00  0.00     0.157 HD
ATOM     29  H91 UNL     1     -12.823 -98.927  -6.182  1.00  0.00     0.157 HD
ENDBRANCH  25  27
ENDBRANCH   8  20
TORSDOF 4
ENDMDL