MODEL 3
REMARK VINA RESULT: -5.074330201      9.553     10.154
REMARK  4 active torsions:
REMARK  status: ('A' for Active; 'I' for Inactive)
REMARK    1  A    between atoms: N3_6  and  O1_7
REMARK    2  A    between atoms: O1_7  and  C4_8
REMARK    3  A    between atoms: C7_13  and  N5_14
REMARK    4  A    between atoms: C10_19  and  N6_20
ROOT
HETATM    1  N1  UNL     1     -12.892 -99.277  -6.423  1.00  0.00    -0.191 NA
HETATM    2  C1  UNL     1     -13.760 -99.773  -5.797  1.00  0.00     0.104 C
HETATM    3  C2  UNL     1     -14.768-100.388  -4.994  1.00  0.00     0.103 A
HETATM    4  C3  UNL     1     -14.489-101.320  -3.970  1.00  0.00     0.167 A
HETATM    5  N2  UNL     1     -13.159-101.767  -3.680  1.00  0.00    -0.079 NA
HETATM    6  N3  UNL     1     -15.627-101.665  -3.384  1.00  0.00    -0.196 N
HETATM    7  C5  UNL     1     -16.637-100.999  -3.978  1.00  0.00     0.081 A
HETATM    8  C6  UNL     1     -17.990-100.980  -3.738  1.00  0.00     0.062 A
HETATM    9  C7  UNL     1     -18.846-100.194  -4.465  1.00  0.00     0.038 A
HETATM   10  C9  UNL     1     -18.319 -99.423  -5.445  1.00  0.00     0.066 A
HETATM   11  C10 UNL     1     -16.933 -99.384  -5.762  1.00  0.00     0.119 A
HETATM   12  C11 UNL     1     -16.118-100.188  -5.001  1.00  0.00     0.051 A
ENDROOT
BRANCH   6  13
HETATM   13  O1  UNL     1     -15.809-102.536  -2.348  1.00  0.00    -0.174 OA
BRANCH  13  14
HETATM   14  C4  UNL     1     -15.517-103.881  -2.535  1.00  0.00     0.395 C
HETATM   15  N4  UNL     1     -14.183-104.387  -2.312  1.00  0.00    -0.031 NA
HETATM   16  O2  UNL     1     -16.454-104.635  -2.903  1.00  0.00    -0.240 OA
ENDBRANCH  13  14
ENDBRANCH   6  13
BRANCH  11  17
HETATM   17  N6  UNL     1     -16.547 -98.537  -6.809  1.00  0.00    -0.115 N
HETATM   18  O4  UNL     1     -15.451 -98.208  -7.202  1.00  0.00    -0.532 OA
HETATM   19  O5  UNL     1     -17.609 -98.053  -7.609  1.00  0.00    -0.532 OA
ENDBRANCH  11  17
BRANCH   9  20
HETATM   20  N5  UNL     1     -20.241-100.193  -4.189  1.00  0.00    -0.334 N
HETATM   21  C8  UNL     1     -21.117 -99.733  -4.950  1.00  0.00     0.353 C
HETATM   22  O3  UNL     1     -22.020 -99.428  -5.731  1.00  0.00    -0.283 OA
ATOM     23  H5  UNL     1     -20.548-100.598  -3.305  1.00  0.00     0.168 HD
ENDBRANCH   9  20
TORSDOF 4
ENDMDL