MODEL 2
REMARK VINA RESULT: -7.772964402      1.904      2.077
REMARK  10 active torsions:
REMARK  status: ('A' for Active; 'I' for Inactive)
REMARK    1  A    between atoms: C2_2  and  N1_3
REMARK       I    between atoms: N1_3  and  C3_5
REMARK       I    between atoms: C3_5  and  N2_7
REMARK    2  A    between atoms: N2_7  and  S1_9
REMARK    3  A    between atoms: S1_9  and  O4_12
REMARK    4  A    between atoms: O4_12  and  C4_13
REMARK    5  A    between atoms: C4_13  and  C5_14
REMARK    6  A    between atoms: C6_16  and  N3_17
REMARK    7  A    between atoms: C13_24  and  N4_25
REMARK    8  A    between atoms: C14_29  and  C15_30
REMARK    9  A    between atoms: C14_29  and  O6_32
REMARK   10  A    between atoms: O6_32  and  C17_33
ROOT
HETATM    1  C5  UNL     1      10.108  -7.618  -1.381  1.00  0.00     0.186 C
HETATM    2  O5  UNL     1      10.298  -6.264  -1.420  1.00  0.00    -0.345 OA
HETATM    3  C6  UNL     1      10.061  -5.772  -2.678  1.00  0.00     0.393 C
HETATM    4  C13 UNL     1       9.624  -6.958  -3.536  1.00  0.00     0.280 C
HETATM    5  C14 UNL     1      10.388  -8.053  -2.839  1.00  0.00     0.130 C
ENDROOT
BRANCH   1   6
HETATM    6  C4  UNL     1      11.236  -8.256  -0.555  1.00  0.00     0.227 C
BRANCH   6   7
HETATM    7  O4  UNL     1      11.987  -7.252   0.073  1.00  0.00    -0.257 OA
BRANCH   7   8
HETATM    8  S1  UNL     1      11.988  -7.400   1.721  1.00  0.00     0.365 S
HETATM    9  O2  UNL     1      13.385  -7.368   2.298  1.00  0.00    -0.175 OA
HETATM   10  O3  UNL     1      11.282  -6.169   2.276  1.00  0.00    -0.175 OA
BRANCH   8  11
HETATM   11  N2  UNL     1      11.182  -8.775   2.328  1.00  0.00    -0.213 N
HETATM   12  C3  UNL     1      10.950  -9.004   3.706  1.00  0.00     0.331 C
HETATM   13  N1  UNL     1      10.278 -10.140   4.216  1.00  0.00    -0.343 N
HETATM   14  O1  UNL     1      11.385  -8.110   4.511  1.00  0.00    -0.246 OA
ATOM     15  H1  UNL     1       9.934 -10.846   3.567  1.00  0.00     0.164 HD
ATOM     16  H2  UNL     1      10.849  -9.471   1.661  1.00  0.00     0.185 HD
BRANCH  13  17
HETATM   17  C2  UNL     1      10.066 -10.328   5.640  1.00  0.00     0.120 C
HETATM   18  C1  UNL     1       9.078 -11.449   5.865  1.00  0.00     0.026 C
ENDBRANCH  13  17
ENDBRANCH   8  11
ENDBRANCH   7   8
ENDBRANCH   6   7
ENDBRANCH   1   6
BRANCH   5  19
HETATM   19  C15 UNL     1       9.959  -9.436  -3.098  1.00  0.00     0.039 C
HETATM   20  C16 UNL     1       9.014 -10.067  -2.140  1.00  0.00     0.008 C
ENDBRANCH   5  19
BRANCH   5  21
HETATM   21  O6  UNL     1      11.775  -7.847  -2.977  1.00  0.00    -0.308 OA
BRANCH  21  22
HETATM   22  C17 UNL     1      12.579  -8.497  -3.877  1.00  0.00     0.226 C
HETATM   23  N5  UNL     1      12.655  -8.053  -5.078  1.00  0.00    -0.368 N
ATOM     24  H52 UNL     1      12.136  -7.230  -5.384  1.00  0.00     0.159 HD
ATOM     25  H51 UNL     1      13.253  -8.536  -5.748  1.00  0.00     0.159 HD
HETATM   26  N6  UNL     1      13.295  -9.634  -3.454  1.00  0.00    -0.057 NA
ENDBRANCH  21  22
ENDBRANCH   5  21
BRANCH   3  27
HETATM   27  N3  UNL     1      11.235  -5.179  -3.199  1.00  0.00     0.119 N
HETATM   28  C7  UNL     1      11.979  -4.453  -2.187  1.00  0.00     0.276 C
HETATM   29  C8  UNL     1      11.290  -3.169  -1.778  1.00  0.00     0.030 C
HETATM   30  C9  UNL     1      11.713  -2.021  -2.650  1.00  0.00     0.002 C
HETATM   31  C10 UNL     1      10.754  -1.880  -3.790  1.00  0.00     0.002 C
HETATM   32  C11 UNL     1      10.107  -3.208  -4.193  1.00  0.00     0.030 C
HETATM   33  C12 UNL     1      11.100  -4.314  -4.325  1.00  0.00     0.276 C
ENDBRANCH   3  27
BRANCH   4  34
HETATM   34  N4  UNL     1       8.184  -7.050  -3.314  1.00  0.00    -0.068 N
ATOM     35  H43 UNL     1       7.886  -6.773  -2.379  1.00  0.00     0.275 HD
ATOM     36  H42 UNL     1       7.638  -6.350  -3.816  1.00  0.00     0.275 HD
ATOM     37  H41 UNL     1       7.954  -8.014  -3.558  1.00  0.00     0.275 HD
ENDBRANCH   4  34
TORSDOF 10
ENDMDL