MODEL 4
REMARK VINA RESULT: -8.131635594      2.108      8.359
REMARK  12 active torsions:
REMARK  status: ('A' for Active; 'I' for Inactive)
REMARK    1  A    between atoms: C2_2  and  C3_3
REMARK    2  A    between atoms: C3_3  and  N1_4
REMARK    3  A    between atoms: N1_4  and  C4_6
REMARK    4  A    between atoms: C5_7  and  O1_8
REMARK    5  A    between atoms: O1_8  and  C6_9
REMARK    6  A    between atoms: C8_11  and  O2_12
REMARK    7  A    between atoms: O2_12  and  C9_13
REMARK    8  A    between atoms: C15_20  and  O4_21
REMARK    9  A    between atoms: C16_23  and  N2_24
REMARK   10  A    between atoms: C18_29  and  N3_30
REMARK   11  A    between atoms: C21_37  and  O6_38
REMARK   12  A    between atoms: C22_40  and  O7_41
ROOT
HETATM    1  C6  UNL     1      11.631  -5.507   0.238  1.00  0.00     0.158 C
HETATM    2  C7  UNL     1      11.891  -6.652   1.186  1.00  0.00     0.068 C
HETATM    3  C8  UNL     1      13.306  -6.591   1.724  1.00  0.00     0.155 C
HETATM    4  C16 UNL     1      14.154  -5.682   0.838  1.00  0.00     0.214 C
HETATM    5  C17 UNL     1      13.687  -4.272   0.823  1.00  0.00     0.070 C
HETATM    6  C18 UNL     1      12.203  -4.213   0.679  1.00  0.00     0.214 C
ENDROOT
BRANCH   1   7
HETATM    7  O1  UNL     1      11.857  -5.862  -1.070  1.00  0.00    -0.348 OA
BRANCH   7   8
HETATM    8  C5  UNL     1      10.934  -6.680  -1.639  1.00  0.00     0.310 C
HETATM    9  C4  UNL     1      10.254  -5.866  -2.759  1.00  0.00     0.073 C
HETATM   10  C22 UNL     1       9.227  -6.686  -3.467  1.00  0.00     0.199 C
HETATM   11  C21 UNL     1       9.110  -8.081  -2.884  1.00  0.00     0.181 C
HETATM   12  C19 UNL     1      10.397  -8.724  -2.534  1.00  0.00     0.152 C
HETATM   13  O5  UNL     1      11.410  -7.873  -2.156  1.00  0.00    -0.348 OA
HETATM   14  C20 UNL     1      10.116  -9.719  -1.399  1.00  0.00     0.042 C
BRANCH   9  15
HETATM   15  N1  UNL     1      11.133  -5.075  -3.489  1.00  0.00    -0.370 N
ATOM     16  H1  UNL     1      11.938  -5.539  -3.908  1.00  0.00     0.164 HD
BRANCH  15  17
HETATM   17  C3  UNL     1      11.012  -3.716  -3.695  1.00  0.00     0.060 C
BRANCH  17  18
HETATM   18  C2  UNL     1       9.949  -3.178  -4.600  1.00  0.00     0.040 C
HETATM   19  C1  UNL     1       9.772  -3.953  -5.882  1.00  0.00     0.010 C
ENDBRANCH  17  18
ENDBRANCH  15  17
ENDBRANCH   9  15
BRANCH  10  20
HETATM   20  O7  UNL     1       7.919  -6.144  -3.332  1.00  0.00    -0.387 OA
ATOM     21  H7  UNL     1       7.513  -5.971  -4.173  1.00  0.00     0.210 HD
ENDBRANCH  10  20
BRANCH  11  22
HETATM   22  O6  UNL     1       8.165  -8.133  -1.836  1.00  0.00    -0.390 OA
ATOM     23  H6  UNL     1       7.289  -8.344  -2.137  1.00  0.00     0.210 HD
ENDBRANCH  11  22
ENDBRANCH   7   8
ENDBRANCH   1   7
BRANCH   6  24
HETATM   24  N3  UNL     1      11.657  -3.912   2.003  1.00  0.00    -0.072 N
ATOM     25  H33 UNL     1      12.266  -4.219   2.761  1.00  0.00     0.274 HD
ATOM     26  H32 UNL     1      11.666  -2.915   2.218  1.00  0.00     0.274 HD
ATOM     27  H31 UNL     1      10.724  -4.320   2.054  1.00  0.00     0.274 HD
ENDBRANCH   6  24
BRANCH   3  28
HETATM   28  O2  UNL     1      13.385  -6.150   3.012  1.00  0.00    -0.376 OA
BRANCH  28  29
HETATM   29  C9  UNL     1      13.986  -6.969   3.924  1.00  0.00     0.151 C
HETATM   30  C10 UNL     1      13.417  -8.384   3.711  1.00  0.00     0.043 C
HETATM   31  C11 UNL     1      12.325  -8.608   4.763  1.00  0.00     0.041 C
HETATM   32  C12 UNL     1      11.560  -7.319   4.943  1.00  0.00     0.175 C
HETATM   33  C15 UNL     1      13.039  -8.899   6.082  1.00  0.00     0.126 C
HETATM   34  O3  UNL     1      12.377  -6.427   5.630  1.00  0.00    -0.383 OA
HETATM   35  C13 UNL     1      13.725  -6.635   5.356  1.00  0.00     0.152 C
HETATM   36  C14 UNL     1      14.131  -7.852   6.198  1.00  0.00     0.066 C
BRANCH  33  37
HETATM   37  O4  UNL     1      13.548 -10.185   6.067  1.00  0.00    -0.395 OA
ATOM     38  H4  UNL     1      14.425 -10.190   6.430  1.00  0.00     0.210 HD
ENDBRANCH  33  37
ENDBRANCH  28  29
ENDBRANCH   3  28
BRANCH   4  39
HETATM   39  N2  UNL     1      15.534  -5.823   1.261  1.00  0.00    -0.072 N
ATOM     40  H23 UNL     1      15.915  -6.750   1.070  1.00  0.00     0.274 HD
ATOM     41  H22 UNL     1      16.183  -5.290   0.682  1.00  0.00     0.274 HD
ATOM     42  H21 UNL     1      15.582  -5.570   2.248  1.00  0.00     0.274 HD
ENDBRANCH   4  39
TORSDOF 12
ENDMDL