MODEL 4
REMARK VINA RESULT: -8.261756890      2.833      8.569
REMARK  13 active torsions:
REMARK  status: ('A' for Active; 'I' for Inactive)
REMARK    1  A    between atoms: C2_2  and  C3_3
REMARK    2  A    between atoms: C4_5  and  C5_6
REMARK    3  A    between atoms: C5_6  and  O2_7
REMARK    4  A    between atoms: O2_7  and  C6_8
REMARK    5  A    between atoms: C9_11  and  O3_12
REMARK    6  A    between atoms: C10_14  and  O4_15
REMARK    7  A    between atoms: C11_17  and  O5_18
REMARK    8  A    between atoms: C12_20  and  C13_21
REMARK    9  A    between atoms: C13_21  and  O6_22
REMARK   10  A    between atoms: C17_27  and  O7_28
REMARK   11  A    between atoms: O7_28  and  C18_29
REMARK   12  A    between atoms: C21_35  and  C22_36
REMARK   13  A    between atoms: C22_36  and  O8_37
ROOT
HETATM    1  C3  UNL     1      14.682  -4.829  -0.631  1.00  0.00     0.150 C
HETATM    2  O1  UNL     1      14.948  -4.477   0.691  1.00  0.00    -0.373 OA
HETATM    3  C4  UNL     1      14.494  -5.487   1.516  1.00  0.00     0.159 C
HETATM    4  C12 UNL     1      12.991  -5.557   1.390  1.00  0.00     0.036 C
HETATM    5  C14 UNL     1      12.422  -4.158   1.222  1.00  0.00     0.017 C
HETATM    6  C15 UNL     1      12.405  -3.883  -0.266  1.00  0.00     0.011 C
HETATM    7  C16 UNL     1      13.218  -5.021  -0.846  1.00  0.00     0.048 C
HETATM    8  C17 UNL     1      12.697  -6.177   0.059  1.00  0.00     0.144 C
ENDROOT
BRANCH   3   9
HETATM    9  C5  UNL     1      14.984  -5.280   2.922  1.00  0.00     0.201 C
BRANCH   9  10
HETATM   10  O2  UNL     1      15.674  -6.361   3.421  1.00  0.00    -0.381 OA
BRANCH  10  11
HETATM   11  C6  UNL     1      15.239  -6.840   4.619  1.00  0.00     0.153 C
HETATM   12  C7  UNL     1      16.037  -6.359   5.779  1.00  0.00     0.037 C
HETATM   13  C8  UNL     1      16.043  -7.223   6.979  1.00  0.00     0.037 C
HETATM   14  C9  UNL     1      14.988  -8.247   7.117  1.00  0.00     0.149 C
HETATM   15  C10 UNL     1      14.217  -8.604   5.894  1.00  0.00     0.178 C
HETATM   16  C11 UNL     1      15.115  -8.338   4.697  1.00  0.00     0.178 C
BRANCH  14  17
HETATM   17  O3  UNL     1      14.048  -7.786   8.069  1.00  0.00    -0.393 OA
ATOM     18  H3  UNL     1      14.408  -7.017   8.494  1.00  0.00     0.210 HD
ENDBRANCH  14  17
BRANCH  15  19
HETATM   19  O4  UNL     1      13.866  -9.949   5.929  1.00  0.00    -0.390 OA
ATOM     20  H4  UNL     1      13.609 -10.240   5.062  1.00  0.00     0.210 HD
ENDBRANCH  15  19
BRANCH  16  21
HETATM   21  O5  UNL     1      16.315  -8.982   4.992  1.00  0.00    -0.390 OA
ATOM     22  H5  UNL     1      16.332  -9.375   5.857  1.00  0.00     0.210 HD
ENDBRANCH  16  21
ENDBRANCH  10  11
ENDBRANCH   9  10
ENDBRANCH   3   9
BRANCH   4  23
HETATM   23  C13 UNL     1      12.344  -6.238   2.545  1.00  0.00     0.178 C
BRANCH  23  24
HETATM   24  O6  UNL     1      11.126  -5.667   2.842  1.00  0.00    -0.400 OA
ATOM     25  H6  UNL     1      11.108  -5.340   3.734  1.00  0.00     0.209 HD
ENDBRANCH  23  24
ENDBRANCH   4  23
BRANCH   1  26
HETATM   26  C2  UNL     1      15.184  -3.765  -1.507  1.00  0.00    -0.005 C
HETATM   27  C1  UNL     1      16.430  -3.289  -1.419  1.00  0.00     0.009 C
ENDBRANCH   1  26
BRANCH   8  28
HETATM   28  O7  UNL     1      11.344  -6.278  -0.134  1.00  0.00    -0.354 OA
BRANCH  28  29
HETATM   29  C18 UNL     1      10.943  -7.402  -0.862  1.00  0.00     0.264 C
HETATM   30  C19 UNL     1      10.810  -8.559   0.084  1.00  0.00     0.088 C
HETATM   31  C20 UNL     1      10.302  -9.810  -0.635  1.00  0.00     0.240 C
HETATM   32  N1  UNL     1       9.776  -9.418  -1.936  1.00  0.00    -0.046 N
HETATM   33  C21 UNL     1       8.996  -8.214  -1.850  1.00  0.00     0.346 C
ATOM     34  H12 UNL     1      10.521  -9.331  -2.627  1.00  0.00     0.280 HD
ATOM     35  H11 UNL     1       9.246 -10.175  -2.367  1.00  0.00     0.280 HD
HETATM   36  O9  UNL     1       9.729  -7.107  -1.498  1.00  0.00    -0.327 OA
BRANCH  33  37
HETATM   37  C22 UNL     1       8.425  -7.962  -3.247  1.00  0.00     0.225 C
BRANCH  37  38
HETATM   38  O8  UNL     1       7.122  -7.450  -3.135  1.00  0.00    -0.397 OA
ATOM     39  H8  UNL     1       6.973  -6.810  -3.822  1.00  0.00     0.209 HD
ENDBRANCH  37  38
ENDBRANCH  33  37
ENDBRANCH  28  29
ENDBRANCH   8  28
TORSDOF 13
ENDMDL