MODEL 3
REMARK VINA RESULT: -8.275159964      5.534      8.140
REMARK  11 active torsions:
REMARK  status: ('A' for Active; 'I' for Inactive)
REMARK       I    between atoms: C2_2  and  N1_4
REMARK    1  A    between atoms: N1_4  and  C3_6
REMARK    2  A    between atoms: C4_7  and  N2_8
REMARK    3  A    between atoms: C6_13  and  N3_14
REMARK    4  A    between atoms: C7_16  and  N4_18
REMARK    5  A    between atoms: N4_18  and  C9_20
REMARK    6  A    between atoms: C11_22  and  C12_23
REMARK    7  A    between atoms: S2_28  and  N5_29
REMARK    8  A    between atoms: N5_29  and  O4_31
REMARK    9  A    between atoms: O4_31  and  C14_32
REMARK   10  A    between atoms: C14_32  and  O5_33
REMARK   11  A    between atoms: C16_36  and  O6_37
ROOT
HETATM    1  O5  UNL     1       4.687 -12.244   1.125  1.00  0.00    -0.255 OA
HETATM    2  C15 UNL     1       5.151 -12.656   2.341  1.00  0.00     0.230 C
HETATM    3  N6  UNL     1       5.531 -13.016   3.394  1.00  0.00    -0.164 NA
ENDROOT
BRANCH   1   4
HETATM    4  C14 UNL     1       5.496 -11.463   0.255  1.00  0.00     0.391 C
BRANCH   4   5
HETATM    5  O4  UNL     1       4.732 -10.992  -0.829  1.00  0.00    -0.248 OA
BRANCH   5   6
HETATM    6  N5  UNL     1       5.051  -9.782  -1.399  1.00  0.00    -0.244 N
ATOM      7  H5  UNL     1       4.492  -8.946  -1.233  1.00  0.00     0.202 HD
BRANCH   6   8
HETATM    8  S2  UNL     1       6.357  -9.758  -2.342  1.00  0.00    -0.050 SA
HETATM    9  C6  UNL     1       7.791  -8.625  -2.040  1.00  0.00     0.161 C
HETATM   10  C5  UNL     1       8.965  -9.555  -2.383  1.00  0.00     0.072 C
HETATM   11  C4  UNL     1       8.792 -10.002  -3.827  1.00  0.00     0.212 C
HETATM   12  C3  UNL     1       7.965 -11.218  -3.982  1.00  0.00     0.154 C
HETATM   13  C16 UNL     1       6.961 -11.427  -2.863  1.00  0.00     0.217 C
BRANCH   9  14
HETATM   14  N3  UNL     1       7.768  -7.568  -2.996  1.00  0.00    -0.366 N
HETATM   15  C7  UNL     1       8.476  -6.492  -2.934  1.00  0.00     0.070 C
HETATM   16  C8  UNL     1       8.376  -5.463  -3.977  1.00  0.00     0.088 C
ATOM     17  H3  UNL     1       7.141  -7.671  -3.794  1.00  0.00     0.162 HD
BRANCH  15  18
HETATM   18  N4  UNL     1       9.364  -6.301  -1.843  1.00  0.00    -0.372 N
ATOM     19  H4  UNL     1       8.960  -6.204  -0.912  1.00  0.00     0.161 HD
BRANCH  18  20
HETATM   20  C9  UNL     1      10.801  -6.235  -1.968  1.00  0.00     0.117 C
HETATM   21  C10 UNL     1      11.247  -6.901  -3.173  1.00  0.00     0.024 C
HETATM   22  C11 UNL     1      12.439  -7.437  -3.179  1.00  0.00     0.075 C
HETATM   23  S1  UNL     1      13.128  -7.143  -1.551  1.00  0.00    -0.121 SA
HETATM   24  C13 UNL     1      11.499  -6.794  -0.749  1.00  0.00     0.108 C
BRANCH  22  25
HETATM   25  C12 UNL     1      13.114  -8.149  -4.243  1.00  0.00     0.216 C
HETATM   26  O2  UNL     1      14.136  -8.829  -3.982  1.00  0.00    -0.644 OA
HETATM   27  O3  UNL     1      12.664  -8.100  -5.533  1.00  0.00    -0.644 OA
ENDBRANCH  22  25
ENDBRANCH  18  20
ENDBRANCH  15  18
ENDBRANCH   9  14
BRANCH  11  28
HETATM   28  N2  UNL     1      10.123 -10.093  -4.385  1.00  0.00    -0.073 N
ATOM     29  H23 UNL     1      10.803 -10.276  -3.646  1.00  0.00     0.274 HD
ATOM     30  H22 UNL     1      10.219 -10.950  -4.931  1.00  0.00     0.274 HD
ATOM     31  H21 UNL     1      10.415  -9.289  -4.940  1.00  0.00     0.274 HD
ENDBRANCH  11  28
BRANCH  12  32
HETATM   32  N1  UNL     1       8.692 -12.451  -4.133  1.00  0.00    -0.351 N
HETATM   33  C2  UNL     1       8.391 -13.499  -4.996  1.00  0.00     0.214 C
HETATM   34  C1  UNL     1       9.212 -14.730  -5.070  1.00  0.00     0.117 C
HETATM   35  O1  UNL     1       7.388 -13.418  -5.748  1.00  0.00    -0.274 OA
ATOM     36  H1  UNL     1       9.517 -12.568  -3.544  1.00  0.00     0.163 HD
ENDBRANCH  12  32
BRANCH  13  37
HETATM   37  O6  UNL     1       5.941 -12.285  -3.242  1.00  0.00    -0.382 OA
ATOM     38  H6  UNL     1       5.941 -13.082  -2.725  1.00  0.00     0.211 HD
ENDBRANCH  13  37
ENDBRANCH   6   8
ENDBRANCH   5   6
ENDBRANCH   4   5
ENDBRANCH   1   4
TORSDOF 11
ENDMDL