MODEL 5
REMARK VINA RESULT: -7.792764460      8.688     10.875
REMARK  10 active torsions:
REMARK  status: ('A' for Active; 'I' for Inactive)
REMARK    1  A    between atoms: C2_2  and  S1_3
REMARK    2  A    between atoms: S1_3  and  C3_4
REMARK    3  A    between atoms: C3_4  and  C4_6
REMARK    4  A    between atoms: C5_10  and  C6_11
REMARK       I    between atoms: C6_11  and  N2_13
REMARK    5  A    between atoms: N2_13  and  C7_15
REMARK    6  A    between atoms: C8_17  and  C9_18
REMARK    7  A    between atoms: C10_21  and  N4_22
REMARK    8  A    between atoms: N4_22  and  C11_25
REMARK    9  A    between atoms: C18_32  and  O6_33
REMARK   10  A    between atoms: C19_35  and  O7_36
ROOT
HETATM    1  C7  UNL     1       8.860 -11.464  -4.261  1.00  0.00     0.255 C
HETATM    2  O4  UNL     1       8.051 -11.186  -5.305  1.00  0.00    -0.348 OA
HETATM    3  C8  UNL     1       6.704 -11.371  -4.999  1.00  0.00     0.246 C
HETATM    4  C10 UNL     1       6.656 -11.434  -3.484  1.00  0.00     0.256 C
HETATM    5  C18 UNL     1       7.961 -12.171  -3.240  1.00  0.00     0.200 C
ENDROOT
BRANCH   1   6
HETATM    6  N2  UNL     1       9.961 -12.342  -4.639  1.00  0.00    -0.330 N
HETATM    7  C6  UNL     1      11.102 -12.431  -3.804  1.00  0.00     0.254 C
HETATM    8  O3  UNL     1      11.201 -11.772  -2.731  1.00  0.00    -0.270 OA
ATOM      9  H2  UNL     1       9.911 -12.888  -5.499  1.00  0.00     0.165 HD
BRANCH   7  10
HETATM   10  C5  UNL     1      12.218 -13.322  -4.188  1.00  0.00     0.278 C
HETATM   11  O2  UNL     1      12.268 -13.390  -5.598  1.00  0.00    -0.262 OA
HETATM   12  N1  UNL     1      12.394 -14.671  -6.023  1.00  0.00    -0.263 N
HETATM   13  C4  UNL     1      12.225 -15.503  -5.055  1.00  0.00     0.120 C
ATOM     14  H1  UNL     1      12.596 -14.941  -6.986  1.00  0.00     0.194 HD
HETATM   15  C19 UNL     1      11.947 -14.743  -3.813  1.00  0.00     0.215 C
BRANCH  13  16
HETATM   16  C3  UNL     1      12.287 -16.973  -5.140  1.00  0.00     0.235 C
HETATM   17  O1  UNL     1      11.953 -17.632  -4.139  1.00  0.00    -0.278 OA
BRANCH  16  18
HETATM   18  S1  UNL     1      12.842 -17.688  -6.672  1.00  0.00    -0.086 SA
BRANCH  18  19
HETATM   19  C2  UNL     1      14.644 -17.858  -6.658  1.00  0.00     0.078 C
HETATM   20  C1  UNL     1      15.009 -18.943  -5.678  1.00  0.00     0.016 C
ENDBRANCH  18  19
ENDBRANCH  16  18
ENDBRANCH  13  16
BRANCH  15  21
HETATM   21  O7  UNL     1      10.639 -14.977  -3.388  1.00  0.00    -0.386 OA
ATOM     22  H7  UNL     1      10.290 -15.751  -3.814  1.00  0.00     0.210 HD
ENDBRANCH  15  21
ENDBRANCH   7  10
ENDBRANCH   1   6
BRANCH   5  23
HETATM   23  O6  UNL     1       7.879 -13.501  -3.563  1.00  0.00    -0.389 OA
ATOM     24  H6  UNL     1       6.966 -13.761  -3.574  1.00  0.00     0.210 HD
ENDBRANCH   5  23
BRANCH   3  25
HETATM   25  C9  UNL     1       6.266 -12.611  -5.661  1.00  0.00     0.262 C
HETATM   26  N3  UNL     1       4.921 -13.016  -5.835  1.00  0.00    -0.060 NA
HETATM   27  O5  UNL     1       7.149 -13.400  -6.125  1.00  0.00    -0.274 OA
ENDBRANCH   3  25
BRANCH   4  28
HETATM   28  N4  UNL     1       5.487 -12.094  -3.039  1.00  0.00    -0.061 N
ATOM     29  H42 UNL     1       4.649 -11.687  -3.454  1.00  0.00     0.278 HD
ATOM     30  H41 UNL     1       5.418 -13.033  -3.430  1.00  0.00     0.278 HD
BRANCH  28  31
HETATM   31  C11 UNL     1       5.400 -12.118  -1.576  1.00  0.00     0.186 C
HETATM   32  C12 UNL     1       3.968 -12.363  -1.187  1.00  0.00     0.033 C
HETATM   33  C13 UNL     1       3.888 -12.687   0.292  1.00  0.00     0.002 C
HETATM   34  C14 UNL     1       4.349 -11.503   1.074  1.00  0.00     0.000 C
HETATM   35  C15 UNL     1       3.995 -10.171   0.470  1.00  0.00     0.000 C
HETATM   36  C16 UNL     1       4.785  -9.832  -0.758  1.00  0.00     0.002 C
HETATM   37  C17 UNL     1       5.906 -10.803  -1.026  1.00  0.00     0.033 C
ENDBRANCH  28  31
ENDBRANCH   4  28
TORSDOF 10
ENDMDL