MODEL 2
REMARK VINA RESULT: -7.430347362      1.911      2.600
REMARK  14 active torsions:
REMARK  status: ('A' for Active; 'I' for Inactive)
REMARK    1  A    between atoms: S1_2  and  C2_3
REMARK    2  A    between atoms: C3_4  and  O1_5
REMARK    3  A    between atoms: C4_7  and  O2_8
REMARK    4  A    between atoms: C5_10  and  O3_11
REMARK    5  A    between atoms: C6_13  and  N1_14
REMARK    6  A    between atoms: N1_14  and  C7_15
REMARK    7  A    between atoms: C7_15  and  O4_16
REMARK    8  A    between atoms: C7_15  and  C8_18
REMARK    9  A    between atoms: C8_18  and  C13_26
REMARK   10  A    between atoms: N2_19  and  O5_21
REMARK   11  A    between atoms: O5_21  and  C9_22
REMARK   12  A    between atoms: C14_29  and  O8_30
REMARK   13  A    between atoms: O8_30  and  C15_31
REMARK   14  A    between atoms: C19_35  and  N3_36
ROOT
HETATM    1  C2  UNL     1       8.810  -9.003  -2.745  1.00  0.00     0.110 C
HETATM    2  C3  UNL     1       7.638  -8.666  -3.618  1.00  0.00     0.165 C
HETATM    3  C4  UNL     1       6.689  -9.821  -3.563  1.00  0.00     0.180 C
HETATM    4  C5  UNL     1       7.423 -11.014  -4.058  1.00  0.00     0.188 C
HETATM    5  C6  UNL     1       8.842 -10.838  -4.461  1.00  0.00     0.227 C
HETATM    6  C14 UNL     1       9.641 -10.129  -3.359  1.00  0.00     0.176 C
ENDROOT
BRANCH   5   7
HETATM    7  N1  UNL     1       9.386 -12.119  -4.762  1.00  0.00    -0.412 NA
BRANCH   7   8
HETATM    8  C7  UNL     1       9.891 -13.305  -5.042  1.00  0.00     0.245 C
BRANCH   8   9
HETATM    9  O4  UNL     1       9.066 -14.209  -5.624  1.00  0.00    -0.334 OA
ATOM     10  H4  UNL     1       9.466 -14.983  -6.003  1.00  0.00     0.220 HD
ENDBRANCH   8   9
BRANCH   8  11
HETATM   11  C8  UNL     1      11.188 -13.928  -4.853  1.00  0.00     0.196 C
HETATM   12  N2  UNL     1      11.852 -14.165  -5.935  1.00  0.00    -0.255 N
ATOM     13  H2  UNL     1      11.410 -13.893  -6.813  1.00  0.00     0.195 HD
BRANCH  12  14
HETATM   14  O5  UNL     1      13.076 -14.740  -6.023  1.00  0.00    -0.270 OA
BRANCH  14  15
HETATM   15  C9  UNL     1      13.255 -16.010  -6.638  1.00  0.00     0.078 C
HETATM   16  C10 UNL     1      14.327 -15.963  -7.734  1.00  0.00     0.048 C
HETATM   17  C11 UNL     1      11.999 -16.510  -7.300  1.00  0.00     0.048 C
HETATM   18  C12 UNL     1      13.708 -17.015  -5.625  1.00  0.00     0.048 C
ENDBRANCH  14  15
ENDBRANCH  12  14
BRANCH  11  19
HETATM   19  C13 UNL     1      11.754 -14.369  -3.626  1.00  0.00     0.234 C
HETATM   20  O6  UNL     1      11.672 -15.492  -3.086  1.00  0.00    -0.643 OA
HETATM   21  O7  UNL     1      12.533 -13.396  -2.906  1.00  0.00    -0.643 OA
ENDBRANCH  11  19
ENDBRANCH   8  11
ENDBRANCH   7   8
ENDBRANCH   5   7
BRANCH   4  22
HETATM   22  O3  UNL     1       7.310 -12.034  -3.068  1.00  0.00    -0.390 OA
ATOM     23  H3  UNL     1       8.141 -12.085  -2.610  1.00  0.00     0.210 HD
ENDBRANCH   4  22
BRANCH   6  24
HETATM   24  O8  UNL     1      10.781  -9.504  -3.825  1.00  0.00    -0.374 OA
BRANCH  24  25
HETATM   25  C15 UNL     1      11.306  -8.476  -3.118  1.00  0.00     0.152 C
HETATM   26  C16 UNL     1      12.722  -8.643  -2.616  1.00  0.00     0.034 C
HETATM   27  C17 UNL     1      13.518  -8.593  -3.929  1.00  0.00     0.005 C
HETATM   28  C18 UNL     1      12.645  -7.781  -4.894  1.00  0.00     0.035 C
HETATM   29  C19 UNL     1      11.591  -7.240  -3.994  1.00  0.00     0.212 C
BRANCH  29  30
HETATM   30  N3  UNL     1      10.512  -6.606  -4.583  1.00  0.00    -0.073 N
ATOM     31  H33 UNL     1      10.252  -7.106  -5.433  1.00  0.00     0.274 HD
ATOM     32  H32 UNL     1       9.681  -6.754  -4.010  1.00  0.00     0.274 HD
ATOM     33  H31 UNL     1      10.602  -5.612  -4.792  1.00  0.00     0.274 HD
ENDBRANCH  29  30
ENDBRANCH  24  25
ENDBRANCH   6  24
BRANCH   3  34
HETATM   34  O2  UNL     1       6.174  -9.938  -2.262  1.00  0.00    -0.390 OA
ATOM     35  H2  UNL     1       5.315 -10.343  -2.299  1.00  0.00     0.210 HD
ENDBRANCH   3  34
BRANCH   1  36
HETATM   36  S1  UNL     1       8.426  -9.451  -1.067  1.00  0.00    -0.163 SA
HETATM   37  C1  UNL     1       9.838  -9.970  -0.094  1.00  0.00     0.090 C
ENDBRANCH   1  36
BRANCH   2  38
HETATM   38  O1  UNL     1       7.074  -7.443  -3.303  1.00  0.00    -0.392 OA
ATOM     39  H1  UNL     1       7.687  -6.860  -2.868  1.00  0.00     0.210 HD
ENDBRANCH   2  38
TORSDOF 14
ENDMDL