MODEL 3
REMARK VINA RESULT: -8.479221016      4.560      8.229
REMARK  12 active torsions:
REMARK  status: ('A' for Active; 'I' for Inactive)
REMARK    1  A    between atoms: C2_2  and  C3_3
REMARK    2  A    between atoms: C3_3  and  C4_4
REMARK    3  A    between atoms: C4_4  and  N1_5
REMARK       I    between atoms: N1_5  and  C5_7
REMARK       I    between atoms: C5_7  and  N2_9
REMARK    4  A    between atoms: N2_9  and  N3_11
REMARK       I    between atoms: N3_11  and  C6_13
REMARK    5  A    between atoms: C6_13  and  C7_15
REMARK    6  A    between atoms: C7_15  and  O3_16
REMARK    7  A    between atoms: O3_16  and  C8_17
REMARK    8  A    between atoms: C9_18  and  N4_19
REMARK    9  A    between atoms: C11_24  and  N5_25
REMARK   10  A    between atoms: C12_29  and  O4_30
REMARK   11  A    between atoms: O4_30  and  C13_31
REMARK   12  A    between atoms: C19_37  and  O5_38
ROOT
HETATM    1  C8  UNL     1      11.365  -7.504  -2.128  1.00  0.00     0.188 C
HETATM    2  C9  UNL     1      11.535  -6.965  -3.554  1.00  0.00     0.217 C
HETATM    3  C10 UNL     1      10.334  -6.337  -4.146  1.00  0.00     0.071 C
HETATM    4  C11 UNL     1       9.239  -6.291  -3.149  1.00  0.00     0.217 C
HETATM    5  C12 UNL     1       8.902  -7.696  -2.723  1.00  0.00     0.183 C
HETATM    6  C19 UNL     1      10.075  -8.309  -2.013  1.00  0.00     0.180 C
ENDROOT
BRANCH   1   7
HETATM    7  O3  UNL     1      11.643  -6.725  -1.177  1.00  0.00    -0.329 OA
BRANCH   7   8
HETATM    8  C7  UNL     1      11.970  -5.988  -0.222  1.00  0.00     0.348 A
HETATM    9  O6  UNL     1      11.892  -4.525  -0.363  1.00  0.00    -0.260 OA
HETATM   10  C20 UNL     1      13.134  -5.061  -0.263  1.00  0.00     0.336 A
HETATM   11  O7  UNL     1      14.388  -4.989  -0.220  1.00  0.00    -0.258 OA
BRANCH   8  12
HETATM   12  C6  UNL     1      11.793  -6.447   1.215  1.00  0.00     0.310 C
HETATM   13  N3  UNL     1      12.124  -7.795   1.504  1.00  0.00    -0.261 N
ATOM     14  H3  UNL     1      12.446  -8.383   0.734  1.00  0.00     0.190 HD
HETATM   15  O2  UNL     1      11.383  -5.690   2.117  1.00  0.00    -0.265 OA
BRANCH  13  16
HETATM   16  N2  UNL     1      12.039  -8.362   2.756  1.00  0.00    -0.249 N
HETATM   17  C5  UNL     1      13.098  -8.324   3.735  1.00  0.00     0.338 C
HETATM   18  N1  UNL     1      12.892  -8.922   4.998  1.00  0.00    -0.321 N
HETATM   19  O1  UNL     1      14.177  -7.766   3.462  1.00  0.00    -0.245 OA
ATOM     20  H1  UNL     1      11.983  -9.369   5.109  1.00  0.00     0.169 HD
ATOM     21  H2  UNL     1      11.173  -8.839   3.006  1.00  0.00     0.192 HD
BRANCH  18  22
HETATM   22  C4  UNL     1      13.723  -9.007   6.129  1.00  0.00     0.065 C
BRANCH  22  23
HETATM   23  C3  UNL     1      13.862  -7.871   7.065  1.00  0.00     0.044 C
BRANCH  23  24
HETATM   24  C2  UNL     1      15.208  -7.433   7.495  1.00  0.00     0.001 C
HETATM   25  C1  UNL     1      16.242  -7.759   6.392  1.00  0.00     0.005 C
ENDBRANCH  23  24
ENDBRANCH  22  23
ENDBRANCH  18  22
ENDBRANCH  13  16
ENDBRANCH   8  12
ENDBRANCH   7   8
ENDBRANCH   1   7
BRANCH   2  26
HETATM   26  N4  UNL     1      12.162  -7.927  -4.439  1.00  0.00    -0.072 N
ATOM     27  H43 UNL     1      13.066  -8.229  -4.073  1.00  0.00     0.274 HD
ATOM     28  H42 UNL     1      11.670  -8.821  -4.417  1.00  0.00     0.274 HD
ATOM     29  H41 UNL     1      12.250  -7.579  -5.393  1.00  0.00     0.274 HD
ENDBRANCH   2  26
BRANCH   6  30
HETATM   30  O5  UNL     1       9.845  -8.412  -0.617  1.00  0.00    -0.390 OA
ATOM     31  H5  UNL     1       9.486  -9.283  -0.499  1.00  0.00     0.210 HD
ENDBRANCH   6  30
BRANCH   5  32
HETATM   32  O4  UNL     1       8.538  -8.551  -3.725  1.00  0.00    -0.376 OA
BRANCH  32  33
HETATM   33  C13 UNL     1       7.352  -9.220  -3.593  1.00  0.00     0.122 C
HETATM   34  C14 UNL     1       6.576  -8.979  -2.368  1.00  0.00     0.032 C
HETATM   35  C15 UNL     1       6.258 -10.120  -1.473  1.00  0.00     0.002 C
HETATM   36  C16 UNL     1       6.042 -11.382  -2.288  1.00  0.00     0.000 C
HETATM   37  C17 UNL     1       7.413 -11.655  -2.879  1.00  0.00     0.002 C
HETATM   38  C18 UNL     1       7.588 -10.653  -3.991  1.00  0.00     0.032 C
ENDBRANCH  32  33
ENDBRANCH   5  32
BRANCH   4  39
HETATM   39  N5  UNL     1       8.079  -5.523  -3.538  1.00  0.00    -0.072 N
ATOM     40  H53 UNL     1       7.563  -6.014  -4.268  1.00  0.00     0.274 HD
ATOM     41  H52 UNL     1       7.385  -5.532  -2.790  1.00  0.00     0.274 HD
ATOM     42  H51 UNL     1       8.267  -4.563  -3.828  1.00  0.00     0.274 HD
ENDBRANCH   4  39
TORSDOF 12
ENDMDL