MODEL 3
REMARK VINA RESULT: -8.261255850      7.842      9.990
REMARK  12 active torsions:
REMARK  status: ('A' for Active; 'I' for Inactive)
REMARK       I    between atoms: C2_2  and  N1_4
REMARK    1  A    between atoms: N1_4  and  C3_6
REMARK    2  A    between atoms: C4_7  and  N2_8
REMARK    3  A    between atoms: C6_13  and  N3_14
REMARK    4  A    between atoms: C7_18  and  O2_19
REMARK    5  A    between atoms: O2_19  and  C8_20
REMARK    6  A    between atoms: C11_24  and  O4_25
REMARK    7  A    between atoms: O4_25  and  C12_26
REMARK    8  A    between atoms: C12_26  and  C13_27
REMARK    9  A    between atoms: C13_27  and  C14_28
REMARK   10  A    between atoms: C20_34  and  O5_35
REMARK   11  A    between atoms: C21_37  and  N4_38
REMARK   12  A    between atoms: C22_42  and  O6_43
ROOT
HETATM    1  C8  UNL     1      13.292  -4.639   2.783  1.00  0.00     0.293 C
HETATM    2  O3  UNL     1      12.126  -5.243   2.229  1.00  0.00    -0.351 OA
HETATM    3  C9  UNL     1      11.949  -4.892   0.903  1.00  0.00     0.152 C
HETATM    4  C10 UNL     1      11.715  -3.437   0.668  1.00  0.00     0.042 C
HETATM    5  C11 UNL     1      13.038  -5.439  -0.013  1.00  0.00     0.180 C
HETATM    6  C20 UNL     1      14.168  -5.877   0.916  1.00  0.00     0.184 C
HETATM    7  C21 UNL     1      14.408  -4.643   1.801  1.00  0.00     0.269 C
ENDROOT
BRANCH   1   8
HETATM    8  O2  UNL     1      13.531  -5.231   3.990  1.00  0.00    -0.349 OA
BRANCH   8   9
HETATM    9  C7  UNL     1      13.251  -6.597   4.053  1.00  0.00     0.185 C
HETATM   10  C6  UNL     1      14.563  -7.274   4.492  1.00  0.00     0.217 C
HETATM   11  C5  UNL     1      14.364  -8.765   4.533  1.00  0.00     0.070 C
HETATM   12  C4  UNL     1      13.363  -9.068   5.601  1.00  0.00     0.210 C
HETATM   13  C3  UNL     1      12.070  -8.342   5.464  1.00  0.00     0.146 C
HETATM   14  C22 UNL     1      12.124  -6.952   4.954  1.00  0.00     0.174 C
BRANCH  10  15
HETATM   15  N3  UNL     1      14.984  -6.757   5.756  1.00  0.00    -0.072 N
ATOM     16  H33 UNL     1      15.993  -6.606   5.778  1.00  0.00     0.274 HD
ATOM     17  H32 UNL     1      14.675  -5.794   5.884  1.00  0.00     0.274 HD
ATOM     18  H31 UNL     1      14.682  -7.349   6.530  1.00  0.00     0.274 HD
ENDBRANCH  10  15
BRANCH  12  19
HETATM   19  N2  UNL     1      13.988  -8.864   6.893  1.00  0.00    -0.073 N
ATOM     20  H23 UNL     1      14.027  -7.872   7.128  1.00  0.00     0.274 HD
ATOM     21  H22 UNL     1      13.382  -9.188   7.647  1.00  0.00     0.274 HD
ATOM     22  H21 UNL     1      14.911  -9.292   6.958  1.00  0.00     0.274 HD
ENDBRANCH  12  19
BRANCH  13  23
HETATM   23  N1  UNL     1      11.207  -9.098   4.547  1.00  0.00    -0.352 N
HETATM   24  C2  UNL     1      10.333 -10.121   4.989  1.00  0.00     0.214 C
HETATM   25  C1  UNL     1       9.460 -10.890   4.078  1.00  0.00     0.117 C
HETATM   26  O1  UNL     1      10.279 -10.410   6.217  1.00  0.00    -0.274 OA
ATOM     27  H1  UNL     1      11.238  -8.877   3.552  1.00  0.00     0.163 HD
ENDBRANCH  13  23
BRANCH  14  28
HETATM   28  O6  UNL     1      10.876  -6.661   4.389  1.00  0.00    -0.391 OA
ATOM     29  H6  UNL     1      10.965  -5.852   3.898  1.00  0.00     0.210 HD
ENDBRANCH  14  28
ENDBRANCH   8   9
ENDBRANCH   1   8
BRANCH   7  30
HETATM   30  N4  UNL     1      15.732  -4.646   2.345  1.00  0.00    -0.068 N
ATOM     31  H43 UNL     1      16.151  -3.722   2.237  1.00  0.00     0.275 HD
ATOM     32  H42 UNL     1      15.687  -4.711   3.361  1.00  0.00     0.275 HD
ATOM     33  H41 UNL     1      16.368  -5.356   1.982  1.00  0.00     0.275 HD
ENDBRANCH   7  30
BRANCH   6  34
HETATM   34  O5  UNL     1      15.289  -6.271   0.249  1.00  0.00    -0.391 OA
ATOM     35  H5  UNL     1      16.086  -5.892   0.601  1.00  0.00     0.210 HD
ENDBRANCH   6  34
BRANCH   5  36
HETATM   36  O4  UNL     1      12.605  -6.442  -0.821  1.00  0.00    -0.381 OA
BRANCH  36  37
HETATM   37  C12 UNL     1      12.238  -6.060  -2.095  1.00  0.00     0.168 C
BRANCH  37  38
HETATM   38  C13 UNL     1      10.835  -6.391  -2.491  1.00  0.00     0.031 C
BRANCH  38  39
HETATM   39  C14 UNL     1      10.323  -5.206  -3.317  1.00  0.00    -0.013 C
HETATM   40  C15 UNL     1      11.205  -4.037  -3.024  1.00  0.00     0.005 C
HETATM   41  C16 UNL     1      10.853  -2.814  -3.834  1.00  0.00     0.000 C
HETATM   42  C17 UNL     1       9.745  -3.092  -4.828  1.00  0.00     0.000 C
HETATM   43  C18 UNL     1      10.111  -4.318  -5.636  1.00  0.00     0.000 C
HETATM   44  C19 UNL     1      10.221  -5.545  -4.772  1.00  0.00     0.005 C
ENDBRANCH  38  39
ENDBRANCH  37  38
ENDBRANCH  36  37
ENDBRANCH   5  36
TORSDOF 12
ENDMDL