MODEL 3
REMARK VINA RESULT: -8.147041527      3.215      8.809
REMARK  12 active torsions:
REMARK  status: ('A' for Active; 'I' for Inactive)
REMARK    1  A    between atoms: N1_2  and  C2_4
REMARK    2  A    between atoms: C4_6  and  N2_7
REMARK    3  A    between atoms: C5_11  and  O1_12
REMARK    4  A    between atoms: C6_14  and  O2_15
REMARK    5  A    between atoms: C7_17  and  O3_18
REMARK    6  A    between atoms: O3_18  and  C8_19
REMARK    7  A    between atoms: C11_22  and  O4_23
REMARK    8  A    between atoms: O4_23  and  S1_24
REMARK    9  A    between atoms: S1_24  and  N3_25
REMARK   10  A    between atoms: S1_24  and  C12_29
REMARK   11  A    between atoms: C15_32  and  O6_33
REMARK   12  A    between atoms: C20_38  and  N4_39
ROOT
HETATM    1  C8  UNL     1      11.650  -8.562   1.946  1.00  0.00     0.152 C
HETATM    2  C9  UNL     1      11.587  -7.345   0.968  1.00  0.00     0.036 C
HETATM    3  C10 UNL     1      11.709  -7.813  -0.448  1.00  0.00     0.036 C
HETATM    4  C11 UNL     1      10.703  -8.838  -0.845  1.00  0.00     0.143 C
HETATM    5  C19 UNL     1      10.781  -9.982   0.144  1.00  0.00     0.068 C
HETATM    6  C20 UNL     1      10.471  -9.383   1.504  1.00  0.00     0.214 C
ENDROOT
BRANCH   1   7
HETATM    7  O3  UNL     1      11.468  -8.152   3.219  1.00  0.00    -0.374 OA
BRANCH   7   8
HETATM    8  C7  UNL     1      12.500  -7.470   3.832  1.00  0.00     0.175 C
HETATM    9  C2  UNL     1      12.051  -6.471   4.847  1.00  0.00     0.109 C
HETATM   10  C3  UNL     1      12.505  -6.668   6.247  1.00  0.00     0.062 C
HETATM   11  C4  UNL     1      13.764  -7.445   6.439  1.00  0.00     0.216 C
HETATM   12  C5  UNL     1      13.503  -8.780   5.722  1.00  0.00     0.179 C
HETATM   13  C6  UNL     1      13.568  -8.400   4.252  1.00  0.00     0.179 C
BRANCH   9  14
HETATM   14  N1  UNL     1      12.248  -5.102   4.477  1.00  0.00    -0.419 N
HETATM   15  C1  UNL     1      11.327  -4.557   3.552  1.00  0.00     0.140 C
ATOM     16  H1  UNL     1      13.013  -4.548   4.861  1.00  0.00     0.153 HD
ENDBRANCH   9  14
BRANCH  11  17
HETATM   17  N2  UNL     1      13.921  -7.757   7.836  1.00  0.00    -0.072 N
ATOM     18  H23 UNL     1      13.639  -6.984   8.439  1.00  0.00     0.274 HD
ATOM     19  H22 UNL     1      13.242  -8.447   8.157  1.00  0.00     0.274 HD
ATOM     20  H21 UNL     1      14.882  -8.052   8.009  1.00  0.00     0.274 HD
ENDBRANCH  11  17
BRANCH  12  21
HETATM   21  O1  UNL     1      14.538  -9.630   6.014  1.00  0.00    -0.391 OA
ATOM     22  H1  UNL     1      15.096  -9.206   6.656  1.00  0.00     0.210 HD
ENDBRANCH  12  21
BRANCH  13  23
HETATM   23  O2  UNL     1      14.864  -7.825   4.113  1.00  0.00    -0.390 OA
ATOM     24  H2  UNL     1      15.351  -8.197   4.839  1.00  0.00     0.210 HD
ENDBRANCH  13  23
ENDBRANCH   7   8
ENDBRANCH   1   7
BRANCH   6  25
HETATM   25  N4  UNL     1       9.968 -10.331   2.429  1.00  0.00    -0.072 N
ATOM     26  H43 UNL     1      10.718 -10.630   3.052  1.00  0.00     0.274 HD
ATOM     27  H42 UNL     1       9.349  -9.865   3.092  1.00  0.00     0.274 HD
ATOM     28  H41 UNL     1       9.499 -11.150   2.041  1.00  0.00     0.274 HD
ENDBRANCH   6  25
BRANCH   4  29
HETATM   29  O4  UNL     1       9.383  -8.365  -0.777  1.00  0.00    -0.282 OA
BRANCH  29  30
HETATM   30  S1  UNL     1       8.596  -8.437  -2.238  1.00  0.00     0.172 S
HETATM   31  O5  UNL     1       8.806  -9.761  -2.930  1.00  0.00    -0.216 OA
BRANCH  30  32
HETATM   32  N3  UNL     1       7.062  -8.297  -2.010  1.00  0.00    -0.336 N
ATOM     33  H32 UNL     1       6.602  -7.446  -1.688  1.00  0.00     0.168 HD
ATOM     34  H31 UNL     1       6.603  -9.181  -2.232  1.00  0.00     0.168 HD
ENDBRANCH  30  32
BRANCH  30  35
HETATM   35  C12 UNL     1       9.097  -7.132  -3.278  1.00  0.00     0.064 A
HETATM   36  C13 UNL     1       8.277  -6.045  -3.472  1.00  0.00     0.027 A
HETATM   37  C14 UNL     1       8.664  -4.991  -4.303  1.00  0.00     0.038 A
HETATM   38  C15 UNL     1       9.892  -5.038  -4.945  1.00  0.00     0.068 A
HETATM   39  C17 UNL     1      10.701  -6.135  -4.739  1.00  0.00     0.038 A
HETATM   40  C18 UNL     1      10.315  -7.187  -3.910  1.00  0.00     0.027 A
BRANCH  38  41
HETATM   41  O6  UNL     1      10.300  -4.000  -5.779  1.00  0.00    -0.356 OA
HETATM   42  C16 UNL     1       9.388  -2.957  -6.064  1.00  0.00     0.210 C
ENDBRANCH  38  41
ENDBRANCH  30  35
ENDBRANCH  29  30
ENDBRANCH   4  29
TORSDOF 12
ENDMDL