MODEL 5
REMARK VINA RESULT: -8.210283325      2.598      3.770
REMARK  12 active torsions:
REMARK  status: ('A' for Active; 'I' for Inactive)
REMARK    1  A    between atoms: C1_2  and  S2_4
REMARK    2  A    between atoms: S2_4  and  C2_5
REMARK    3  A    between atoms: C2_5  and  C3_6
REMARK    4  A    between atoms: C3_6  and  O1_7
REMARK    5  A    between atoms: C4_10  and  C5_11
REMARK    6  A    between atoms: C5_11  and  O3_12
REMARK    7  A    between atoms: C6_14  and  O4_15
REMARK    8  A    between atoms: C7_17  and  O5_18
REMARK    9  A    between atoms: O5_18  and  C8_19
REMARK   10  A    between atoms: C8_19  and  C9_21
REMARK   11  A    between atoms: C9_21  and  C10_22
REMARK   12  A    between atoms: C19_34  and  O7_35
ROOT
HETATM    1  C2  UNL     1      10.515  -7.032  -3.063  1.00  0.00     0.165 C
HETATM    2  O2  UNL     1      10.885  -8.109  -3.790  1.00  0.00    -0.354 OA
HETATM    3  C4  UNL     1      11.168  -9.276  -3.226  1.00  0.00     0.178 C
HETATM    4  C6  UNL     1      10.468  -9.611  -1.940  1.00  0.00     0.181 C
HETATM    5  C7  UNL     1      10.762  -8.459  -0.996  1.00  0.00     0.195 C
HETATM    6  C19 UNL     1      10.113  -7.256  -1.647  1.00  0.00     0.198 C
ENDROOT
BRANCH   5   7
HETATM    7  O5  UNL     1      10.106  -8.757   0.219  1.00  0.00    -0.310 OA
BRANCH   7   8
HETATM    8  C8  UNL     1      10.849  -9.002   1.353  1.00  0.00     0.261 C
HETATM    9  O6  UNL     1      10.701 -10.103   1.941  1.00  0.00    -0.265 OA
BRANCH   8  10
HETATM   10  C9  UNL     1      11.791  -7.952   1.831  1.00  0.00     0.144 C
BRANCH  10  11
HETATM   11  C10 UNL     1      11.525  -7.682   3.280  1.00  0.00     0.198 A
HETATM   12  C11 UNL     1      12.216  -6.512   3.896  1.00  0.00     0.072 A
HETATM   13  C12 UNL     1      13.021  -7.462   4.739  1.00  0.00     0.129 A
HETATM   14  C13 UNL     1      14.469  -7.535   4.344  1.00  0.00     0.043 C
HETATM   15  C18 UNL     1      12.789  -7.403   6.205  1.00  0.00     0.043 C
HETATM   16  N2  UNL     1      12.249  -8.557   4.151  1.00  0.00    -0.061 N
HETATM   17  C14 UNL     1      15.325  -8.055   5.450  1.00  0.00    -0.012 C
HETATM   18  C15 UNL     1      15.199  -7.065   6.617  1.00  0.00     0.009 C
HETATM   19  C17 UNL     1      14.594  -9.053   6.332  1.00  0.00     0.009 C
HETATM   20  C16 UNL     1      13.956  -7.861   7.016  1.00  0.00    -0.012 C
ATOM     21  H22 UNL     1      11.725  -9.174   4.771  1.00  0.00     0.278 HD
ATOM     22  H21 UNL     1      12.751  -9.347   3.745  1.00  0.00     0.278 HD
ENDBRANCH  10  11
ENDBRANCH   8  10
ENDBRANCH   7   8
ENDBRANCH   5   7
BRANCH   4  23
HETATM   23  O4  UNL     1      10.937 -10.809  -1.442  1.00  0.00    -0.390 OA
ATOM     24  H4  UNL     1      10.477 -11.033  -0.642  1.00  0.00     0.210 HD
ENDBRANCH   4  23
BRANCH   6  25
HETATM   25  O7  UNL     1       8.738  -7.420  -1.473  1.00  0.00    -0.389 OA
ATOM     26  H7  UNL     1       8.403  -8.240  -1.817  1.00  0.00     0.210 HD
ENDBRANCH   6  25
BRANCH   3  27
HETATM   27  C5  UNL     1      10.923 -10.412  -4.199  1.00  0.00     0.198 C
BRANCH  27  28
HETATM   28  O3  UNL     1      12.059 -11.221  -4.190  1.00  0.00    -0.398 OA
ATOM     29  H3  UNL     1      12.685 -10.837  -4.793  1.00  0.00     0.209 HD
ENDBRANCH  27  28
ENDBRANCH   3  27
BRANCH   1  30
HETATM   30  S2  UNL     1      11.956  -5.915  -3.024  1.00  0.00    -0.060 SA
BRANCH  30  31
HETATM   31  C1  UNL     1      11.571  -4.289  -2.489  1.00  0.00     0.152 C
HETATM   32  N1  UNL     1      11.206  -3.279  -3.405  1.00  0.00    -0.082 NA
HETATM   33  S1  UNL     1      11.640  -3.942  -0.898  1.00  0.00    -0.056 SA
ENDBRANCH  30  31
ENDBRANCH   1  30
BRANCH   1  34
HETATM   34  C3  UNL     1       9.460  -6.282  -3.864  1.00  0.00     0.216 C
BRANCH  34  35
HETATM   35  O1  UNL     1       8.378  -7.043  -4.195  1.00  0.00    -0.397 OA
ATOM     36  H1  UNL     1       8.591  -7.809  -4.714  1.00  0.00     0.209 HD
ENDBRANCH  34  35
ENDBRANCH   1  34
TORSDOF 12
ENDMDL