MODEL 3
REMARK VINA RESULT: -6.022011850      1.201      1.494
REMARK  6 active torsions:
REMARK  status: ('A' for Active; 'I' for Inactive)
REMARK    1  A    between atoms: C2_2  and  N1_3
REMARK       I    between atoms: N1_3  and  C4_5
REMARK    2  A    between atoms: C4_5  and  O2_7
REMARK    3  A    between atoms: O2_7  and  C5_8
REMARK    4  A    between atoms: C8_11  and  C9_12
REMARK    5  A    between atoms: C9_12  and  N2_13
REMARK       I    between atoms: N2_13  and  C10_15
REMARK       I    between atoms: C10_15  and  N4_19
REMARK    6  A    between atoms: N4_19  and  C11_21
ROOT
HETATM    1  C5  UNL     1       7.647  11.438   2.587  1.00  0.00     0.138 C
HETATM    2  C6  UNL     1       8.096  10.006   2.644  1.00  0.00     0.034 C
HETATM    3  C7  UNL     1       6.997   9.023   2.345  1.00  0.00     0.014 C
HETATM    4  C8  UNL     1       6.052   9.611   1.354  1.00  0.00    -0.023 C
HETATM    5  C14 UNL     1       6.706  10.582   0.433  1.00  0.00     0.018 C
HETATM    6  C15 UNL     1       6.576  11.622   1.555  1.00  0.00     0.017 C
HETATM    7  C16 UNL     1       5.368  10.803   2.029  1.00  0.00     0.018 C
ENDROOT
BRANCH   4   8
HETATM    8  C9  UNL     1       5.115   8.620   0.752  1.00  0.00     0.147 C
BRANCH   8   9
HETATM    9  N2  UNL     1       4.184   8.045   1.660  1.00  0.00    -0.226 N
HETATM   10  C10 UNL     1       3.603   6.791   1.376  1.00  0.00     0.667 C
HETATM   11  N3  UNL     1       2.405   6.554   1.786  1.00  0.00    -0.235 N
HETATM   12  N4  UNL     1       4.267   5.764   0.658  1.00  0.00    -0.222 N
ATOM     13  H32 UNL     1       1.927   7.292   2.302  1.00  0.00     0.174 HD
ATOM     14  H31 UNL     1       1.985   5.647   1.581  1.00  0.00     0.174 HD
ATOM     15  H4  UNL     1       5.009   6.023   0.007  1.00  0.00     0.178 HD
ATOM     16  H2  UNL     1       3.937   8.539   2.518  1.00  0.00     0.177 HD
BRANCH  12  17
HETATM   17  C11 UNL     1       3.936   4.365   0.811  1.00  0.00     0.099 A
HETATM   18  C12 UNL     1       4.590   3.354  -0.045  1.00  0.00     0.028 A
HETATM   19  C13 UNL     1       5.020   3.436   1.389  1.00  0.00     0.028 A
ENDBRANCH  12  17
ENDBRANCH   8   9
ENDBRANCH   4   8
BRANCH   1  20
HETATM   20  O2  UNL     1       8.768  12.247   2.289  1.00  0.00    -0.298 OA
BRANCH  20  21
HETATM   21  C4  UNL     1       9.213  13.264   3.109  1.00  0.00     0.362 C
HETATM   22  N1  UNL     1       9.944  14.332   2.547  1.00  0.00    -0.333 N
HETATM   23  C3  UNL     1      10.402  15.389   3.423  1.00  0.00     0.155 C
HETATM   24  O1  UNL     1       8.959  13.214   4.331  1.00  0.00    -0.238 OA
BRANCH  22  25
HETATM   25  C2  UNL     1      10.260  14.432   1.138  1.00  0.00     0.123 C
HETATM   26  C1  UNL     1      11.598  13.777   0.881  1.00  0.00     0.026 C
ENDBRANCH  22  25
ENDBRANCH  20  21
ENDBRANCH   1  20
TORSDOF 6
ENDMDL