MODEL 5
REMARK VINA RESULT: -6.213358038      2.584      3.653
REMARK  5 active torsions:
REMARK  status: ('A' for Active; 'I' for Inactive)
REMARK    1  A    between atoms: C2_2  and  C4_4
REMARK    2  A    between atoms: C4_4  and  C5_5
REMARK    3  A    between atoms: C5_5  and  N1_6
REMARK    4  A    between atoms: C5_5  and  C6_10
REMARK       I    between atoms: C6_10  and  N2_12
REMARK    5  A    between atoms: N2_12  and  C7_14
ROOT
HETATM    1  C7  UNL     1       8.556  10.397   1.191  1.00  0.00     0.030 C
HETATM    2  C8  UNL     1       9.584   9.271   1.224  1.00  0.00     0.038 C
HETATM    3  C9  UNL     1       8.319  10.963   2.607  1.00  0.00     0.035 C
HETATM    4  C10 UNL     1       8.789  12.325   2.522  1.00  0.00    -0.010 C
HETATM    5  C11 UNL     1       8.769  13.487   3.355  1.00  0.00     0.037 C
HETATM    6  C12 UNL     1       8.897  14.706   2.433  1.00  0.00     0.186 C
HETATM    7  C13 UNL     1      10.210  15.350   2.342  1.00  0.00     0.035 C
HETATM    8  C14 UNL     1      10.859  14.690   1.112  1.00  0.00     0.035 C
HETATM    9  C15 UNL     1       9.812  13.848   0.448  1.00  0.00     0.190 C
HETATM   10  N3  UNL     1       8.655  14.401   1.029  1.00  0.00    -0.066 N
ATOM     11  H31 UNL     1       8.321  15.215   0.514  1.00  0.00     0.278 HD
ATOM     12  H32 UNL     1       7.841  13.800   0.904  1.00  0.00     0.278 HD
HETATM   13  C16 UNL     1      10.066  12.366   0.584  1.00  0.00     0.019 C
HETATM   14  C17 UNL     1      10.216  12.174   2.060  1.00  0.00     0.011 C
HETATM   15  C18 UNL     1       8.947  11.456   0.187  1.00  0.00     0.037 C
ENDROOT
BRANCH   1  16
HETATM   16  N2  UNL     1       7.341   9.757   0.774  1.00  0.00    -0.350 N
HETATM   17  C6  UNL     1       6.593   8.749   1.411  1.00  0.00     0.248 C
HETATM   18  O1  UNL     1       6.935   8.263   2.507  1.00  0.00    -0.271 OA
ATOM     19  H2  UNL     1       6.963  10.081  -0.117  1.00  0.00     0.163 HD
BRANCH  17  20
HETATM   20  C5  UNL     1       5.336   8.187   0.827  1.00  0.00     0.275 C
BRANCH  20  21
HETATM   21  C4  UNL     1       4.187   8.262   1.782  1.00  0.00     0.046 C
BRANCH  21  22
HETATM   22  C2  UNL     1       3.209   9.314   1.373  1.00  0.00    -0.020 C
HETATM   23  C1  UNL     1       1.762   9.012   1.603  1.00  0.00     0.009 C
HETATM   24  C3  UNL     1       3.531  10.663   2.005  1.00  0.00     0.009 C
ENDBRANCH  21  22
ENDBRANCH  20  21
BRANCH  20  25
HETATM   25  N1  UNL     1       5.509   6.839   0.377  1.00  0.00    -0.066 N
ATOM     26  H13 UNL     1       5.029   6.170   0.979  1.00  0.00     0.275 HD
ATOM     27  H12 UNL     1       4.998   6.656  -0.487  1.00  0.00     0.275 HD
ATOM     28  H11 UNL     1       6.503   6.628   0.285  1.00  0.00     0.275 HD
ENDBRANCH  20  25
ENDBRANCH  17  20
ENDBRANCH   1  16
TORSDOF 5
ENDMDL