MODEL 5
REMARK VINA RESULT: -6.358513703      3.034      7.688
REMARK  5 active torsions:
REMARK  status: ('A' for Active; 'I' for Inactive)
REMARK    1  A    between atoms: C2_7  and  S1_8
REMARK    2  A    between atoms: S1_8  and  C3_9
REMARK    3  A    between atoms: C9_15  and  C10_16
REMARK    4  A    between atoms: C10_16  and  C11_17
REMARK    5  A    between atoms: C11_17  and  C12_18
ROOT
HETATM    1  O1  UNL     1       5.596   5.482   0.859  1.00  0.00    -0.266 OA
HETATM    2  C1  UNL     1       4.584   6.170   1.199  1.00  0.00     0.268 A
HETATM    3  N1  UNL     1       3.438   5.644   1.632  1.00  0.00    -0.265 N
ATOM      4  H1  UNL     1       3.267   4.643   1.731  1.00  0.00     0.190 HD
HETATM    5  N2  UNL     1       2.544   6.592   1.921  1.00  0.00    -0.291 N
ATOM      6  H2  UNL     1       1.596   6.451   2.269  1.00  0.00     0.187 HD
HETATM    7  C2  UNL     1       3.137   7.769   1.662  1.00  0.00     0.096 A
HETATM    8  C9  UNL     1       4.429   7.540   1.204  1.00  0.00     0.046 A
ENDROOT
BRANCH   8   9
HETATM    9  C10 UNL     1       5.466   8.520   0.795  1.00  0.00     0.048 C
BRANCH   9  10
HETATM   10  C11 UNL     1       6.457   8.760   1.907  1.00  0.00     0.009 C
BRANCH  10  11
HETATM   11  C12 UNL     1       7.427   9.853   1.599  1.00  0.00    -0.011 C
HETATM   12  C13 UNL     1       6.879  10.793   0.554  1.00  0.00     0.032 C
HETATM   13  C14 UNL     1       7.901  11.813   0.116  1.00  0.00     0.232 C
HETATM   14  N3  UNL     1       9.221  11.516   0.632  1.00  0.00    -0.075 N
HETATM   15  C15 UNL     1       9.585  10.146   0.359  1.00  0.00     0.232 C
ATOM     16  H32 UNL     1       9.919  12.170   0.278  1.00  0.00     0.277 HD
ATOM     17  H31 UNL     1       9.294  11.735   1.626  1.00  0.00     0.277 HD
HETATM   18  C16 UNL     1       8.736   9.246   1.211  1.00  0.00     0.032 C
ENDBRANCH  10  11
ENDBRANCH   9  10
ENDBRANCH   8   9
BRANCH   7  19
HETATM   19  S1  UNL     1       2.456   9.377   1.846  1.00  0.00    -0.105 SA
BRANCH  19  20
HETATM   20  C3  UNL     1       1.060   9.492   2.953  1.00  0.00     0.054 C
HETATM   21  C4  UNL     1       0.938  10.813   3.667  1.00  0.00     0.015 C
HETATM   22  C5  UNL     1       0.660  10.646   5.155  1.00  0.00     0.001 C
HETATM   23  C6  UNL     1      -0.540   9.785   5.370  1.00  0.00     0.000 C
HETATM   24  C7  UNL     1      -0.453   8.510   4.573  1.00  0.00     0.001 C
HETATM   25  C8  UNL     1       0.940   8.368   3.943  1.00  0.00     0.015 C
ENDBRANCH  19  20
ENDBRANCH   7  19
TORSDOF 5
ENDMDL