MODEL 3
REMARK VINA RESULT: -7.059954595      1.559      2.689
REMARK  6 active torsions:
REMARK  status: ('A' for Active; 'I' for Inactive)
REMARK    1  A    between atoms: C2_2  and  C3_3
REMARK    2  A    between atoms: C2_2  and  C6_12
REMARK    3  A    between atoms: C3_3  and  C4_4
REMARK    4  A    between atoms: N1_5  and  N2_7
REMARK    5  A    between atoms: C10_16  and  C12_18
REMARK    6  A    between atoms: C12_18  and  O1_19
ROOT
HETATM    1  C6  UNL     1       6.266  10.260   0.788  1.00  0.00    -0.002 C
HETATM    2  C7  UNL     1       5.659  11.643   1.083  1.00  0.00     0.006 C
HETATM    3  C8  UNL     1       6.566  12.199   2.137  1.00  0.00     0.007 C
HETATM    4  C9  UNL     1       7.904  11.606   1.758  1.00  0.00     0.004 C
HETATM    5  C10 UNL     1       9.010  11.862   2.675  1.00  0.00    -0.018 C
HETATM    6  C11 UNL     1      10.215  12.347   1.844  1.00  0.00     0.018 C
HETATM    7  C13 UNL     1       9.497  10.767   3.557  1.00  0.00     0.012 C
HETATM    8  C14 UNL     1       9.058   9.394   3.213  1.00  0.00     0.002 C
HETATM    9  C15 UNL     1       7.560   9.481   2.851  1.00  0.00     0.010 C
HETATM   10  C16 UNL     1       7.497  10.151   1.546  1.00  0.00    -0.036 C
HETATM   11  C17 UNL     1       8.604   9.559   0.660  1.00  0.00     0.016 C
ENDROOT
BRANCH   1  12
HETATM   12  C2  UNL     1       5.175   9.286   0.814  1.00  0.00    -0.009 C
HETATM   13  C1  UNL     1       4.025   9.485   1.742  1.00  0.00     0.011 C
BRANCH  12  14
HETATM   14  C3  UNL     1       5.463   7.857   0.499  1.00  0.00     0.050 C
BRANCH  14  15
HETATM   15  C4  UNL     1       5.195   6.977   1.643  1.00  0.00     0.080 C
HETATM   16  N1  UNL     1       5.103   5.690   1.564  1.00  0.00    -0.314 N
ATOM     17  H1  UNL     1       4.915   5.156   2.412  1.00  0.00     0.185 HD
BRANCH  16  18
HETATM   18  N2  UNL     1       5.254   5.007   0.353  1.00  0.00    -0.277 N
HETATM   19  C5  UNL     1       4.479   3.998   0.134  1.00  0.00     0.215 C
HETATM   20  N3  UNL     1       4.592   3.259  -1.098  1.00  0.00    -0.065 NA
HETATM   21  N4  UNL     1       3.496   3.557   1.049  1.00  0.00    -0.065 NA
ATOM     22  H2  UNL     1       5.951   5.297  -0.334  1.00  0.00     0.189 HD
ENDBRANCH  16  18
ENDBRANCH  14  15
ENDBRANCH  12  14
ENDBRANCH   1  12
BRANCH   5  23
HETATM   23  C12 UNL     1       8.728  13.043   3.597  1.00  0.00     0.173 C
BRANCH  23  24
HETATM   24  O1  UNL     1       9.054  12.825   4.908  1.00  0.00    -0.400 OA
ATOM     25  H1  UNL     1       9.254  11.921   5.117  1.00  0.00     0.209 HD
ENDBRANCH  23  24
ENDBRANCH   5  23
TORSDOF 6
ENDMDL