MODEL 4
REMARK VINA RESULT: -6.899259742      3.982      6.313
REMARK  8 active torsions:
REMARK  status: ('A' for Active; 'I' for Inactive)
REMARK    1  A    between atoms: C1_2  and  N1_3
REMARK    2  A    between atoms: C1_2  and  N6_14
REMARK    3  A    between atoms: N1_3  and  C2_5
REMARK    4  A    between atoms: N6_14  and  C3_16
REMARK    5  A    between atoms: C3_16  and  C4_17
REMARK    6  A    between atoms: C4_17  and  C5_18
REMARK    7  A    between atoms: C5_18  and  C6_19
REMARK    8  A    between atoms: C6_19  and  C7_20
ROOT
HETATM    1  S1  UNL     1       3.152   5.099   1.241  1.00  0.00    -0.040 SA
HETATM    2  C1  UNL     1       4.731   5.120   0.874  1.00  0.00     0.186 C
ENDROOT
BRANCH   2   3
HETATM    3  N1  UNL     1       5.456   3.919   0.931  1.00  0.00    -0.164 N
ATOM      4  H1  UNL     1       6.255   3.888   1.565  1.00  0.00     0.186 HD
BRANCH   3   5
HETATM    5  C2  UNL     1       5.200   2.845   0.250  1.00  0.00     0.716 A
HETATM    6  N2  UNL     1       5.030   2.801  -1.104  1.00  0.00    -0.115 N
HETATM    7  N3  UNL     1       4.796   1.544  -1.399  1.00  0.00    -0.213 N
ATOM      8  H2  UNL     1       5.076   3.585  -1.755  1.00  0.00     0.207 HD
HETATM    9  N4  UNL     1       4.803   0.791  -0.325  1.00  0.00    -0.213 N
ATOM     10  H3  UNL     1       4.629   1.197  -2.343  1.00  0.00     0.210 HD
HETATM   11  N5  UNL     1       5.055   1.596   0.709  1.00  0.00    -0.115 N
ATOM     12  H4  UNL     1       4.647  -0.216  -0.288  1.00  0.00     0.210 HD
ATOM     13  H5  UNL     1       5.126   1.308   1.686  1.00  0.00     0.207 HD
ENDBRANCH   3   5
ENDBRANCH   2   3
BRANCH   2  14
HETATM   14  N6  UNL     1       5.349   6.345   0.522  1.00  0.00    -0.367 N
ATOM     15  H6  UNL     1       5.772   6.413  -0.404  1.00  0.00     0.161 HD
BRANCH  14  16
HETATM   16  C3  UNL     1       5.422   7.493   1.372  1.00  0.00     0.122 C
BRANCH  16  17
HETATM   17  C4  UNL     1       5.034   8.768   0.670  1.00  0.00     0.020 C
BRANCH  17  18
HETATM   18  C5  UNL     1       4.039   9.482   1.543  1.00  0.00     0.002 C
BRANCH  18  19
HETATM   19  C6  UNL     1       2.688   8.884   1.555  1.00  0.00     0.005 C
BRANCH  19  20
HETATM   20  C7  UNL     1       1.555   9.780   1.938  1.00  0.00    -0.014 C
HETATM   21  C8  UNL     1       2.109  10.733   2.992  1.00  0.00     0.004 C
HETATM   22  C9  UNL     1       1.065  11.422   3.795  1.00  0.00     0.000 C
HETATM   23  C10 UNL     1       0.792  10.716   5.112  1.00  0.00     0.000 C
HETATM   24  C11 UNL     1       0.060   9.425   4.937  1.00  0.00     0.000 C
HETATM   25  C12 UNL     1       0.669   8.509   3.918  1.00  0.00     0.000 C
HETATM   26  C13 UNL     1       0.401   9.001   2.527  1.00  0.00     0.004 C
ENDBRANCH  19  20
ENDBRANCH  18  19
ENDBRANCH  17  18
ENDBRANCH  16  17
ENDBRANCH  14  16
ENDBRANCH   2  14
TORSDOF 8
ENDMDL