MODEL 4
REMARK VINA RESULT: -6.004527345      4.025      6.646
REMARK  5 active torsions:
REMARK  status: ('A' for Active; 'I' for Inactive)
REMARK    1  A    between atoms: C4_4  and  C5_5
REMARK    2  A    between atoms: C5_5  and  C6_6
REMARK    3  A    between atoms: C6_6  and  N1_7
REMARK    4  A    between atoms: C6_6  and  C15_24
REMARK       I    between atoms: N1_7  and  C7_9
REMARK       I    between atoms: C7_9  and  N3_13
REMARK    5  A    between atoms: N3_13  and  C8_15
ROOT
HETATM    1  N1  UNL     1       7.299  11.001   0.007  1.00  0.00    -0.222 N
ATOM      2  H1  UNL     1       7.869  11.839  -0.113  1.00  0.00     0.178 HD
HETATM    3  C7  UNL     1       6.045  11.018  -0.613  1.00  0.00     0.668 C
HETATM    4  N2  UNL     1       4.978  11.113   0.068  1.00  0.00    -0.235 N
ATOM      5  H21 UNL     1       4.064  11.126  -0.384  1.00  0.00     0.174 HD
ATOM      6  H22 UNL     1       5.036  11.176   1.084  1.00  0.00     0.174 HD
HETATM    7  N3  UNL     1       5.966  10.932  -2.014  1.00  0.00    -0.217 N
ATOM      8  H3  UNL     1       5.802  10.014  -2.428  1.00  0.00     0.178 HD
ENDROOT
BRANCH   1   9
HETATM    9  C6  UNL     1       7.873   9.963   0.781  1.00  0.00     0.106 C
BRANCH   9  10
HETATM   10  C5  UNL     1       9.366   9.871   0.554  1.00  0.00     0.053 C
BRANCH  10  11
HETATM   11  C4  UNL     1       9.927  11.211   0.162  1.00  0.00    -0.023 C
HETATM   12  C2  UNL     1      10.694  11.914   0.959  1.00  0.00    -0.091 C
HETATM   13  C1  UNL     1      11.213  13.230   0.505  1.00  0.00     0.042 C
HETATM   14  C3  UNL     1      11.090  11.467   2.325  1.00  0.00     0.042 C
ENDBRANCH  10  11
ENDBRANCH   9  10
BRANCH   9  15
HETATM   15  C15 UNL     1       7.546  10.009   2.250  1.00  0.00     0.001 C
HETATM   16  C16 UNL     1       7.436  11.415   2.749  1.00  0.00     0.011 C
HETATM   17  C17 UNL     1       8.430   9.183   3.113  1.00  0.00     0.011 C
ENDBRANCH   9  15
ENDBRANCH   1   9
BRANCH   7  18
HETATM   18  C8  UNL     1       6.103  12.061  -2.901  1.00  0.00     0.163 C
HETATM   19  C9  UNL     1       5.087  12.032  -4.020  1.00  0.00     0.151 C
HETATM   20  C10 UNL     1       5.748  13.034  -4.985  1.00  0.00     0.047 C
HETATM   21  O1  UNL     1       5.284  10.848  -4.716  1.00  0.00    -0.353 OA
HETATM   22  C11 UNL     1       7.066  12.312  -5.090  1.00  0.00     0.080 C
HETATM   23  C12 UNL     1       6.625  10.874  -5.100  1.00  0.00     0.268 C
HETATM   24  C13 UNL     1       7.394  11.940  -3.687  1.00  0.00     0.092 C
HETATM   25  O2  UNL     1       7.545  10.620  -4.104  1.00  0.00    -0.347 OA
HETATM   26  C14 UNL     1       8.586  12.586  -3.073  1.00  0.00     0.049 C
ENDBRANCH   7  18
TORSDOF 5
ENDMDL