MODEL 3
REMARK VINA RESULT: -6.365632326      3.179      8.242
REMARK  6 active torsions:
REMARK  status: ('A' for Active; 'I' for Inactive)
REMARK       I    between atoms: N1_2  and  C2_4
REMARK       I    between atoms: C2_4  and  N2_5
REMARK    1  A    between atoms: C3_7  and  N3_8
REMARK    2  A    between atoms: N4_14  and  C9_16
REMARK    3  A    between atoms: C9_16  and  C10_17
REMARK    4  A    between atoms: C10_17  and  C11_18
REMARK    5  A    between atoms: C11_18  and  C12_19
REMARK    6  A    between atoms: C14_23  and  N6_24
ROOT
HETATM    1  C1  UNL     1       3.929  10.412   1.599  1.00  0.00     0.165 C
HETATM    2  N1  UNL     1       4.638   9.530   0.684  1.00  0.00    -0.231 N
ATOM      3  H1  UNL     1       4.601   9.734  -0.315  1.00  0.00     0.177 HD
HETATM    4  C2  UNL     1       5.377   8.400   1.115  1.00  0.00     0.674 C
HETATM    5  N2  UNL     1       4.762   7.126   1.233  1.00  0.00    -0.188 N
ATOM      6  H2  UNL     1       3.844   7.035   1.667  1.00  0.00     0.185 HD
HETATM    7  C3  UNL     1       5.378   6.085   0.783  1.00  0.00     0.196 C
HETATM    8  N4  UNL     1       6.625   8.496   1.413  1.00  0.00    -0.226 N
ATOM      9  H4  UNL     1       7.115   7.656   1.719  1.00  0.00     0.177 HD
ENDROOT
BRANCH   8  10
HETATM   10  C9  UNL     1       7.365   9.728   1.336  1.00  0.00     0.138 C
BRANCH  10  11
HETATM   11  C10 UNL     1       8.025  10.028   2.652  1.00  0.00     0.025 C
BRANCH  11  12
HETATM   12  C11 UNL     1       8.188  11.523   2.866  1.00  0.00     0.049 C
BRANCH  12  13
HETATM   13  C12 UNL     1       9.412  11.995   2.122  1.00  0.00     0.002 A
HETATM   14  C13 UNL     1      10.565  11.298   1.871  1.00  0.00     0.104 A
HETATM   15  N5  UNL     1      11.506  11.899   1.205  1.00  0.00    -0.346 N
HETATM   16  C14 UNL     1      11.313  13.151   0.799  1.00  0.00     0.142 A
ATOM     17  H5  UNL     1      12.380  11.417   0.996  1.00  0.00     0.167 HD
HETATM   18  S1  UNL     1       9.736  13.496   1.381  1.00  0.00    -0.058 SA
BRANCH  16  19
HETATM   19  N6  UNL     1      12.126  13.932   0.119  1.00  0.00    -0.380 N
ATOM     20  H62 UNL     1      11.925  14.495  -0.708  1.00  0.00     0.158 HD
ATOM     21  H61 UNL     1      13.114  14.126   0.287  1.00  0.00     0.158 HD
ENDBRANCH  16  19
ENDBRANCH  12  13
ENDBRANCH  11  12
ENDBRANCH  10  11
ENDBRANCH   8  10
BRANCH   7  22
HETATM   22  N3  UNL     1       4.798   4.791   0.881  1.00  0.00    -0.377 N
HETATM   23  C4  UNL     1       5.293   3.750   1.741  1.00  0.00     0.123 C
HETATM   24  C5  UNL     1       4.858   2.413   1.182  1.00  0.00     0.020 C
HETATM   25  C6  UNL     1       4.987   2.434  -0.323  1.00  0.00     0.003 C
HETATM   26  C7  UNL     1       4.080   3.455  -0.955  1.00  0.00     0.020 C
HETATM   27  C8  UNL     1       3.631   4.492   0.065  1.00  0.00     0.123 C
ENDBRANCH   7  22
TORSDOF 6
ENDMDL