MODEL 5
REMARK VINA RESULT: -5.881141493      1.218      1.925
REMARK  6 active torsions:
REMARK  status: ('A' for Active; 'I' for Inactive)
REMARK    1  A    between atoms: C2_2  and  C3_3
REMARK    2  A    between atoms: C3_3  and  C4_4
REMARK    3  A    between atoms: C4_4  and  C5_5
REMARK    4  A    between atoms: C5_5  and  N1_6
REMARK    5  A    between atoms: C5_5  and  C6_10
REMARK       I    between atoms: C6_10  and  N2_12
REMARK    6  A    between atoms: N2_12  and  C7_14
ROOT
HETATM    1  C5  UNL     1       5.820   9.962   1.348  1.00  0.00     0.275 C
ENDROOT
BRANCH   1   2
HETATM    2  C4  UNL     1       6.923  10.238   0.363  1.00  0.00     0.052 C
BRANCH   2   3
HETATM    3  C3  UNL     1       7.919  11.265   0.751  1.00  0.00    -0.031 C
HETATM    4  C12 UNL     1       7.447  12.643   0.359  1.00  0.00     0.015 C
HETATM    5  C13 UNL     1       8.633  13.371  -0.249  1.00  0.00    -0.013 C
HETATM    6  C14 UNL     1       8.677  12.908  -1.700  1.00  0.00     0.005 C
HETATM    7  C18 UNL     1       9.794  12.552   0.288  1.00  0.00     0.014 C
HETATM    8  C15 UNL     1       8.947  11.429  -1.520  1.00  0.00     0.010 C
HETATM    9  C16 UNL     1       9.194  11.195  -0.053  1.00  0.00    -0.036 C
HETATM   10  C17 UNL     1      10.150  10.133   0.249  1.00  0.00     0.016 C
BRANCH   3  11
HETATM   11  C2  UNL     1       8.127  11.215   2.212  1.00  0.00     0.006 C
HETATM   12  C1  UNL     1       7.870  12.440   3.006  1.00  0.00     0.006 C
ENDBRANCH   3  11
ENDBRANCH   2   3
ENDBRANCH   1   2
BRANCH   1  13
HETATM   13  N1  UNL     1       4.499  10.351   0.913  1.00  0.00    -0.066 N
ATOM     14  H13 UNL     1       3.844  10.304   1.693  1.00  0.00     0.275 HD
ATOM     15  H12 UNL     1       4.474  11.351   0.717  1.00  0.00     0.275 HD
ATOM     16  H11 UNL     1       4.133   9.827   0.117  1.00  0.00     0.275 HD
ENDBRANCH   1  13
BRANCH   1  17
HETATM   17  C6  UNL     1       5.764   8.525   1.710  1.00  0.00     0.248 C
HETATM   18  O1  UNL     1       6.678   8.051   2.409  1.00  0.00    -0.271 OA
HETATM   19  N2  UNL     1       4.708   7.718   1.278  1.00  0.00    -0.355 N
ATOM     20  H2  UNL     1       3.976   8.141   0.708  1.00  0.00     0.162 HD
BRANCH  19  21
HETATM   21  C7  UNL     1       4.601   6.299   1.601  1.00  0.00     0.087 C
HETATM   22  C8  UNL     1       5.250   5.493   0.507  1.00  0.00     0.052 C
HETATM   23  C9  UNL     1       5.133   4.022   0.803  1.00  0.00     0.234 C
HETATM   24  N3  UNL     1       3.990   3.722   1.660  1.00  0.00    -0.075 N
HETATM   25  C10 UNL     1       2.887   4.550   1.201  1.00  0.00     0.234 C
ATOM     26  H32 UNL     1       3.760   2.729   1.689  1.00  0.00     0.277 HD
ATOM     27  H31 UNL     1       4.191   3.838   2.653  1.00  0.00     0.277 HD
HETATM   28  C11 UNL     1       3.143   5.947   1.715  1.00  0.00     0.052 C
ENDBRANCH  19  21
ENDBRANCH   1  17
TORSDOF 6
ENDMDL