MODEL 3
REMARK VINA RESULT: -5.871301912      2.056      3.571
REMARK  7 active torsions:
REMARK  status: ('A' for Active; 'I' for Inactive)
REMARK    1  A    between atoms: C10_10  and  C11_11
REMARK    2  A    between atoms: C11_11  and  N1_12
REMARK    3  A    between atoms: C15_16  and  C16_17
REMARK    4  A    between atoms: C15_16  and  C17_20
REMARK    5  A    between atoms: C16_17  and  O1_18
REMARK    6  A    between atoms: C17_20  and  C18_21
REMARK    7  A    between atoms: C18_21  and  O2_22
ROOT
HETATM    1  N1  UNL     1       6.849  11.359  -0.080  1.00  0.00     0.090 N
HETATM    2  C12 UNL     1       6.937  11.770  -1.432  1.00  0.00     0.272 C
HETATM    3  C13 UNL     1       7.799  13.013  -1.502  1.00  0.00     0.031 C
HETATM    4  C14 UNL     1       9.210  12.564  -1.193  1.00  0.00     0.015 C
HETATM    5  C15 UNL     1       9.289  11.832   0.124  1.00  0.00     0.009 C
HETATM    6  C19 UNL     1       7.942  11.647   0.768  1.00  0.00     0.284 C
ENDROOT
BRANCH   1   7
HETATM    7  C11 UNL     1       5.647  11.761   0.600  1.00  0.00     0.285 C
BRANCH   7   8
HETATM    8  C10 UNL     1       4.559  10.727   0.586  1.00  0.00     0.065 C
HETATM    9  C2  UNL     1       3.622  11.039   1.686  1.00  0.00    -0.078 C
HETATM   10  C1  UNL     1       3.839  12.339   2.406  1.00  0.00     0.044 C
HETATM   11  C3  UNL     1       2.589  10.304   2.096  1.00  0.00    -0.023 C
HETATM   12  C4  UNL     1       2.124   8.961   1.572  1.00  0.00     0.036 C
HETATM   13  C5  UNL     1       3.221   8.018   1.953  1.00  0.00     0.018 C
HETATM   14  C6  UNL     1       3.251   6.663   1.299  1.00  0.00     0.014 C
HETATM   15  C8  UNL     1       4.495   8.303   1.257  1.00  0.00    -0.079 C
HETATM   16  C7  UNL     1       4.783   6.823   1.461  1.00  0.00     0.035 C
HETATM   17  C9  UNL     1       5.063   9.358   0.704  1.00  0.00    -0.013 C
ENDBRANCH   7   8
ENDBRANCH   1   7
BRANCH   5  18
HETATM   18  C16 UNL     1      10.068  12.727   1.069  1.00  0.00     0.175 C
BRANCH  18  19
HETATM   19  O1  UNL     1      11.430  12.656   0.671  1.00  0.00    -0.400 OA
ATOM     20  H1  UNL     1      11.937  13.082   1.352  1.00  0.00     0.209 HD
ENDBRANCH  18  19
ENDBRANCH   5  18
BRANCH   5  21
HETATM   21  C17 UNL     1       9.879  10.484  -0.082  1.00  0.00     0.039 C
BRANCH  21  22
HETATM   22  C18 UNL     1       9.710   9.493   1.007  1.00  0.00     0.165 C
BRANCH  22  23
HETATM   23  O2  UNL     1       8.619   8.647   0.888  1.00  0.00    -0.401 OA
ATOM     24  H2  UNL     1       8.366   8.422   0.001  1.00  0.00     0.209 HD
ENDBRANCH  22  23
ENDBRANCH  21  22
ENDBRANCH   5  21
TORSDOF 7
ENDMDL