MODEL 3
REMARK VINA RESULT: -6.082080610      3.567      7.180
REMARK  6 active torsions:
REMARK  status: ('A' for Active; 'I' for Inactive)
REMARK       I    between atoms: C2_2  and  N1_4
REMARK    1  A    between atoms: N1_4  and  C3_6
REMARK    2  A    between atoms: C6_9  and  O2_10
REMARK    3  A    between atoms: O2_10  and  C7_11
REMARK    4  A    between atoms: C8_13  and  C9_14
REMARK    5  A    between atoms: C9_14  and  C10_15
REMARK    6  A    between atoms: C11_17  and  C12_18
ROOT
HETATM    1  C7  UNL     1      -1.684  -9.795   7.526  1.00  0.00     0.295 C
HETATM    2  O3  UNL     1      -0.868  -9.997   6.363  1.00  0.00    -0.350 OA
HETATM    3  C8  UNL     1      -0.549  -8.746   5.891  1.00  0.00     0.165 C
HETATM    4  C11 UNL     1      -0.019  -7.792   6.923  1.00  0.00     0.252 C
HETATM    5  O6  UNL     1      -0.381  -8.011   8.212  1.00  0.00    -0.356 OA
HETATM    6  C13 UNL     1      -0.690  -9.325   8.548  1.00  0.00     0.115 C
HETATM    7  C14 UNL     1       0.543 -10.217   8.444  1.00  0.00     0.069 C
HETATM    8  C15 UNL     1       1.293 -10.093   9.755  1.00  0.00     0.170 C
HETATM    9  O7  UNL     1       0.622 -10.848  10.709  1.00  0.00    -0.391 OA
HETATM   10  C16 UNL     1      -0.758 -10.694  10.618  1.00  0.00     0.170 C
HETATM   11  C17 UNL     1      -1.130  -9.374   9.970  1.00  0.00     0.069 C
ENDROOT
BRANCH   1  12
HETATM   12  O2  UNL     1      -2.316 -10.930   7.896  1.00  0.00    -0.350 OA
BRANCH  12  13
HETATM   13  C6  UNL     1      -3.479 -11.265   7.237  1.00  0.00     0.159 C
HETATM   14  C5  UNL     1      -4.678 -11.280   8.097  1.00  0.00     0.037 C
HETATM   15  C4  UNL     1      -5.774 -12.200   7.737  1.00  0.00     0.028 C
HETATM   16  C3  UNL     1      -5.895 -12.542   6.282  1.00  0.00     0.087 C
HETATM   17  C19 UNL     1      -4.575 -12.727   5.593  1.00  0.00     0.065 C
HETATM   18  C18 UNL     1      -3.395 -12.591   6.520  1.00  0.00     0.201 C
HETATM   19  F1  UNL     1      -2.258 -12.721   5.746  1.00  0.00    -0.247 F
BRANCH  16  20
HETATM   20  N1  UNL     1      -6.598 -13.810   6.195  1.00  0.00    -0.357 N
HETATM   21  C2  UNL     1      -7.985 -13.900   5.912  1.00  0.00     0.213 C
HETATM   22  C1  UNL     1      -8.708 -15.187   5.820  1.00  0.00     0.117 C
HETATM   23  O1  UNL     1      -8.617 -12.830   5.732  1.00  0.00    -0.274 OA
ATOM     24  H1  UNL     1      -6.073 -14.672   6.343  1.00  0.00     0.162 HD
ENDBRANCH  16  20
ENDBRANCH  12  13
ENDBRANCH   1  12
BRANCH   3  25
HETATM   25  C9  UNL     1       0.526  -8.844   4.817  1.00  0.00     0.046 C
BRANCH  25  26
HETATM   26  C10 UNL     1       0.646 -10.200   4.197  1.00  0.00     0.088 C
HETATM   27 BR1  UNL     1       1.991 -10.214   2.821  1.00  0.00    -0.096 Br
ENDBRANCH  25  26
ENDBRANCH   3  25
BRANCH   4  28
HETATM   28  C12 UNL     1      -0.526  -6.421   6.543  1.00  0.00     0.205 C
HETATM   29  O4  UNL     1      -1.647  -6.061   6.918  1.00  0.00    -0.646 OA
HETATM   30  O5  UNL     1       0.213  -5.531   5.783  1.00  0.00    -0.646 OA
ENDBRANCH   4  28
TORSDOF 6
ENDMDL