MODEL 3
REMARK VINA RESULT: -7.963015679      5.620      9.792
REMARK  5 active torsions:
REMARK  status: ('A' for Active; 'I' for Inactive)
REMARK    1  A    between atoms: C3_3  and  C4_4
REMARK    2  A    between atoms: C4_4  and  N1_5
REMARK    3  A    between atoms: C15_25  and  C16_26
REMARK    4  A    between atoms: C16_26  and  C17_27
REMARK    5  A    between atoms: C17_27  and  N3_28
ROOT
HETATM    1  C1  UNL     1       0.360 -10.044   5.189  1.00  0.00     0.049 C
HETATM    2  C2  UNL     1      -0.078  -8.757   5.728  1.00  0.00    -0.041 A
HETATM    3  C3  UNL     1      -0.698  -8.757   6.961  1.00  0.00    -0.037 A
HETATM    4  C11 UNL     1      -1.077  -7.537   7.482  1.00  0.00     0.011 A
HETATM    5  C12 UNL     1      -0.858  -6.354   6.823  1.00  0.00     0.031 A
HETATM    6  C13 UNL     1      -0.241  -6.370   5.596  1.00  0.00     0.043 A
HETATM    7  N2  UNL     1       0.114  -5.384   4.733  1.00  0.00    -0.365 N
ATOM      8  H2  UNL     1      -0.042  -4.385   4.866  1.00  0.00     0.165 HD
HETATM    9  C14 UNL     1       0.702  -5.950   3.686  1.00  0.00     0.096 A
HETATM   10  C15 UNL     1       0.743  -7.352   3.845  1.00  0.00    -0.028 A
HETATM   11  C22 UNL     1       0.148  -7.595   5.051  1.00  0.00     0.005 A
ENDROOT
BRANCH   3  12
HETATM   12  C4  UNL     1      -0.957  -9.971   7.729  1.00  0.00     0.148 C
BRANCH  12  13
HETATM   13  N1  UNL     1      -2.202  -9.822   8.452  1.00  0.00    -0.178 NA
HETATM   14  C5  UNL     1      -2.960 -11.064   8.470  1.00  0.00     0.179 C
HETATM   15  C6  UNL     1      -2.447 -11.864   9.630  1.00  0.00     0.196 C
HETATM   16  C7  UNL     1      -3.462 -12.993   9.860  1.00  0.00     0.077 C
HETATM   17  O1  UNL     1      -1.236 -12.509   9.340  1.00  0.00    -0.347 OA
HETATM   18  O2  UNL     1      -2.375 -11.076  10.745  1.00  0.00    -0.223 OA
HETATM   19  C8  UNL     1      -3.054 -13.664  11.149  1.00  0.00     0.087 C
HETATM   20  C9  UNL     1      -1.606 -14.083  11.143  1.00  0.00     0.265 C
HETATM   21  F1  UNL     1      -1.452 -15.374  10.623  1.00  0.00    -0.204 F
HETATM   22  F2  UNL     1      -1.218 -14.177  12.481  1.00  0.00    -0.204 F
HETATM   23  C10 UNL     1      -0.711 -13.107  10.456  1.00  0.00     0.250 C
HETATM   24  S1  UNL     1      -1.978  -9.563  10.132  1.00  0.00     0.343 S
HETATM   25  O3  UNL     1      -3.016  -8.595  10.681  1.00  0.00    -0.180 OA
HETATM   26  O4  UNL     1      -0.622  -9.115  10.500  1.00  0.00    -0.180 OA
ENDBRANCH  12  13
ENDBRANCH   3  12
BRANCH  10  27
HETATM   27  C16 UNL     1       1.263  -8.224   2.815  1.00  0.00     0.060 C
BRANCH  27  28
HETATM   28  C17 UNL     1       2.788  -8.188   2.662  1.00  0.00     0.121 C
BRANCH  28  29
HETATM   29  N3  UNL     1       3.256  -8.869   1.499  1.00  0.00    -0.409 N
HETATM   30  C18 UNL     1       2.628  -8.583   0.266  1.00  0.00     0.144 C
HETATM   31  C19 UNL     1       3.341  -7.521  -0.548  1.00  0.00     0.251 C
HETATM   32  N4  UNL     1       4.747  -7.860  -0.674  1.00  0.00    -0.072 N
HETATM   33  C20 UNL     1       5.313  -7.797   0.665  1.00  0.00     0.251 C
ATOM     34  H42 UNL     1       4.907  -8.754  -1.136  1.00  0.00     0.277 HD
ATOM     35  H41 UNL     1       5.244  -7.277  -1.348  1.00  0.00     0.277 HD
HETATM   36  C21 UNL     1       4.680  -8.913   1.471  1.00  0.00     0.144 C
ENDBRANCH  28  29
ENDBRANCH  27  28
ENDBRANCH  10  27
TORSDOF 5
ENDMDL