MODEL 5
REMARK VINA RESULT: -7.329679155      4.242      7.450
REMARK  7 active torsions:
REMARK  status: ('A' for Active; 'I' for Inactive)
REMARK    1  A    between atoms: C2_2  and  C4_4
REMARK    2  A    between atoms: N1_7  and  C7_8
REMARK    3  A    between atoms: C8_11  and  N3_12
REMARK    4  A    between atoms: N3_12  and  C9_14
REMARK    5  A    between atoms: N4_16  and  S1_17
REMARK    6  A    between atoms: S1_17  and  C11_20
REMARK    7  A    between atoms: C16_27  and  C17_28
ROOT
HETATM    1  C7  UNL     1       4.173 -13.193  13.229  1.00  0.00     0.682 A
HETATM    2  N2  UNL     1       2.934 -12.970  12.755  1.00  0.00    -0.177 N
ATOM      3  H2  UNL     1       2.162 -13.498  13.163  1.00  0.00     0.185 HD
HETATM    4  C8  UNL     1       2.652 -12.097  11.782  1.00  0.00     0.119 A
HETATM    5  C15 UNL     1       3.682 -11.371  11.218  1.00  0.00     0.074 A
HETATM    6  C16 UNL     1       4.962 -11.573  11.680  1.00  0.00     0.034 A
HETATM    7  N6  UNL     1       5.163 -12.470  12.662  1.00  0.00    -0.195 N
ATOM      8  H6  UNL     1       6.116 -12.613  12.997  1.00  0.00     0.184 HD
ENDROOT
BRANCH   4   9
HETATM    9  N3  UNL     1       1.474 -11.885  11.331  1.00  0.00    -0.370 N
ATOM     10  H3  UNL     1       0.795 -11.490  11.982  1.00  0.00     0.161 HD
BRANCH   9  11
HETATM   11  C9  UNL     1       1.019 -12.149  10.004  1.00  0.00     0.102 C
HETATM   12  C10 UNL     1       1.069 -10.866   9.176  1.00  0.00     0.133 C
HETATM   13  N4  UNL     1      -0.155 -10.191   9.427  1.00  0.00    -0.204 NA
HETATM   14  C12 UNL     1      -1.171 -11.156   9.673  1.00  0.00     0.113 C
HETATM   15  C13 UNL     1      -0.467 -12.450  10.046  1.00  0.00     0.019 C
HETATM   16  C14 UNL     1      -0.914 -12.994  11.364  1.00  0.00     0.013 C
BRANCH  13  17
HETATM   17  S1  UNL     1      -0.545  -8.888   8.438  1.00  0.00     0.273 S
HETATM   18  O1  UNL     1      -1.799  -8.173   8.850  1.00  0.00    -0.205 OA
HETATM   19  O2  UNL     1       0.586  -7.868   8.551  1.00  0.00    -0.205 OA
BRANCH  17  20
HETATM   20  C11 UNL     1      -0.725  -9.351   6.757  1.00  0.00     0.488 C
HETATM   21  F1  UNL     1       0.071  -8.585   5.933  1.00  0.00    -0.196 F
HETATM   22  F2  UNL     1      -2.032  -9.349   6.309  1.00  0.00    -0.196 F
ENDBRANCH  17  20
ENDBRANCH  13  17
ENDBRANCH   9  11
ENDBRANCH   4   9
BRANCH   1  23
HETATM   23  N1  UNL     1       4.421 -14.133  14.266  1.00  0.00    -0.217 N
HETATM   24  C6  UNL     1       5.740 -14.636  14.593  1.00  0.00     0.141 C
HETATM   25  C5  UNL     1       5.513 -15.815  15.500  1.00  0.00     0.027 C
HETATM   26  C4  UNL     1       4.264 -15.387  16.257  1.00  0.00     0.009 C
HETATM   27  C22 UNL     1       3.452 -14.744  15.155  1.00  0.00     0.146 C
BRANCH  26  28
HETATM   28  C2  UNL     1       3.549 -16.582  16.849  1.00  0.00    -0.017 C
HETATM   29  C1  UNL     1       2.902 -17.433  15.794  1.00  0.00     0.010 C
HETATM   30  C3  UNL     1       4.607 -17.434  17.534  1.00  0.00     0.010 C
ENDBRANCH  26  28
ENDBRANCH   1  23
BRANCH   6  31
HETATM   31  C17 UNL     1       6.070 -10.793  11.073  1.00  0.00     0.039 C
HETATM   32  C18 UNL     1       6.471  -9.730  12.052  1.00  0.00     0.038 C
HETATM   33  C19 UNL     1       6.187  -8.349  11.497  1.00  0.00     0.233 C
HETATM   34  N5  UNL     1       7.026  -8.262  10.290  1.00  0.00    -0.075 N
HETATM   35  C20 UNL     1       6.370  -9.029   9.280  1.00  0.00     0.233 C
ATOM     36  H52 UNL     1       7.224  -7.303  10.004  1.00  0.00     0.277 HD
ATOM     37  H51 UNL     1       7.992  -8.549  10.450  1.00  0.00     0.277 HD
HETATM   38  C21 UNL     1       5.723 -10.277   9.714  1.00  0.00     0.038 C
ENDBRANCH   6  31
TORSDOF 7
ENDMDL