MODEL 5
REMARK VINA RESULT: -6.781106582      3.522      5.999
REMARK  6 active torsions:
REMARK  status: ('A' for Active; 'I' for Inactive)
REMARK       I    between atoms: C1_2  and  N1_3
REMARK       I    between atoms: C1_2  and  N2_11
REMARK    1  A    between atoms: N1_3  and  C2_5
REMARK    2  A    between atoms: C2_5  and  C3_6
REMARK    3  A    between atoms: C3_6  and  C4_7
REMARK    4  A    between atoms: C4_7  and  C5_8
REMARK    5  A    between atoms: N5_22  and  C12_24
REMARK    6  A    between atoms: N7_33  and  C19_34
ROOT
HETATM    1  O1  UNL     1      -2.233  -9.391   6.191  1.00  0.00    -0.247 OA
HETATM    2  C1  UNL     1      -1.444  -9.490   7.195  1.00  0.00     0.322 C
HETATM    3  N1  UNL     1      -0.364  -8.627   7.193  1.00  0.00    -0.343 N
ATOM      4  H1  UNL     1       0.287  -8.663   7.977  1.00  0.00     0.164 HD
HETATM    5  N2  UNL     1      -1.812 -10.484   8.168  1.00  0.00    -0.300 N
HETATM    6  C6  UNL     1      -3.102 -11.089   7.791  1.00  0.00     0.139 C
HETATM    7  C7  UNL     1      -3.149 -12.088   6.550  1.00  0.00     0.065 C
HETATM    8  C8  UNL     1      -2.141 -12.989   6.572  1.00  0.00     0.011 A
HETATM    9  C9  UNL     1      -1.956 -13.366   7.932  1.00  0.00     0.035 A
HETATM   10  N3  UNL     1      -1.032 -13.869   7.433  1.00  0.00    -0.354 N
ATOM     11  H3  UNL     1      -0.984 -13.762   6.420  1.00  0.00     0.163 HD
HETATM   12  C10 UNL     1      -0.167 -14.465   7.893  1.00  0.00     0.288 A
HETATM   13  N4  UNL     1       0.006 -14.358   6.445  1.00  0.00    -0.339 N
ATOM     14  H4  UNL     1       0.781 -14.783   5.935  1.00  0.00     0.165 HD
HETATM   15  C11 UNL     1      -1.023 -13.596   5.825  1.00  0.00     0.108 A
HETATM   16  N5  UNL     1      -1.133 -13.320   4.623  1.00  0.00    -0.371 N
ATOM     17  H5  UNL     1      -1.953 -12.748   4.422  1.00  0.00     0.161 HD
HETATM   18  N6  UNL     1      -0.620 -14.273   9.162  1.00  0.00    -0.370 N
HETATM   19  C17 UNL     1       0.015 -14.234  10.242  1.00  0.00     0.136 C
HETATM   20  C18 UNL     1       0.023 -12.652  10.663  1.00  0.00     0.116 C
HETATM   21  N7  UNL     1      -0.027 -11.752   9.543  1.00  0.00    -0.273 NA
HETATM   22  C23 UNL     1      -0.946 -10.666   9.332  1.00  0.00     0.158 C
HETATM   23  C24 UNL     1      -2.026 -13.632   9.304  1.00  0.00     0.178 C
ENDROOT
BRANCH   3  24
HETATM   24  C2  UNL     1      -0.112  -7.670   6.126  1.00  0.00     0.124 C
BRANCH  24  25
HETATM   25  C3  UNL     1      -0.340  -6.251   6.501  1.00  0.00     0.025 C
BRANCH  25  26
HETATM   26  C4  UNL     1      -0.150  -5.404   5.239  1.00  0.00     0.073 C
BRANCH  26  27
HETATM   27  C5  UNL     1      -0.475  -3.940   5.553  1.00  0.00     0.353 C
HETATM   28  F1  UNL     1       0.375  -3.136   4.835  1.00  0.00    -0.214 F
HETATM   29  F2  UNL     1      -0.303  -3.685   6.900  1.00  0.00    -0.214 F
ENDBRANCH  26  27
ENDBRANCH  25  26
ENDBRANCH  24  25
ENDBRANCH   3  24
BRANCH  21  30
HETATM   30  C19 UNL     1       1.327 -11.201   9.335  1.00  0.00     0.063 C
HETATM   31  C20 UNL     1       1.514  -9.837   9.956  1.00  0.00     0.020 C
HETATM   32  C21 UNL     1       2.899 -10.295  10.364  1.00  0.00     0.003 C
HETATM   33  C22 UNL     1       2.450 -11.747  10.113  1.00  0.00     0.020 C
ENDBRANCH  21  30
BRANCH  16  34
HETATM   34  C12 UNL     1      -0.383 -13.618   3.475  1.00  0.00     0.087 C
HETATM   35  C13 UNL     1      -1.215 -14.008   2.299  1.00  0.00     0.051 C
HETATM   36  C14 UNL     1      -0.791 -13.127   1.131  1.00  0.00     0.169 C
HETATM   37  O2  UNL     1       0.581 -13.239   0.951  1.00  0.00    -0.391 OA
HETATM   38  C15 UNL     1       1.318 -12.626   1.956  1.00  0.00     0.169 C
HETATM   39  C16 UNL     1       0.418 -12.356   3.117  1.00  0.00     0.051 C
ENDBRANCH  16  34
TORSDOF 6
ENDMDL