MODEL 3
REMARK VINA RESULT: -7.480301819      4.161      9.260
REMARK  7 active torsions:
REMARK  status: ('A' for Active; 'I' for Inactive)
REMARK    1  A    between atoms: C5_10  and  N4_11
REMARK    2  A    between atoms: N4_11  and  C6_13
REMARK    3  A    between atoms: C6_13  and  C7_14
REMARK    4  A    between atoms: N5_17  and  C10_18
REMARK    5  A    between atoms: C10_18  and  C11_19
REMARK    6  A    between atoms: C11_19  and  N6_20
REMARK    7  A    between atoms: N8_31  and  C20_33
ROOT
HETATM    1  N1  UNL     1      -1.105  -5.590   7.460  1.00  0.00    -0.191 NA
HETATM    2  C1  UNL     1      -0.641  -6.171   6.579  1.00  0.00     0.103 C
HETATM    3  C2  UNL     1      -0.058  -6.867   5.471  1.00  0.00     0.087 A
HETATM    4  C3  UNL     1       0.434  -6.074   4.432  1.00  0.00     0.114 A
HETATM    5  N2  UNL     1       1.001  -6.609   3.347  1.00  0.00    -0.350 N
ATOM      6  H2  UNL     1       1.353  -6.009   2.601  1.00  0.00     0.166 HD
HETATM    7  C4  UNL     1       1.101  -7.928   3.250  1.00  0.00     0.135 A
HETATM    8  N3  UNL     1       1.677  -8.439   2.148  1.00  0.00    -0.176 N
ATOM      9  H3  UNL     1       2.016  -7.804   1.425  1.00  0.00     0.186 HD
HETATM   10  C5  UNL     1       1.820  -9.768   1.972  1.00  0.00     0.679 A
HETATM   11  N7  UNL     1       1.360 -10.594   2.948  1.00  0.00    -0.201 N
ATOM     12  H7  UNL     1       1.458 -11.603   2.834  1.00  0.00     0.183 HD
HETATM   13  C17 UNL     1       0.773 -10.108   4.073  1.00  0.00     0.123 A
HETATM   14  C18 UNL     1       0.632  -8.745   4.246  1.00  0.00     0.052 A
HETATM   15  C19 UNL     1       0.027  -8.233   5.407  1.00  0.00     0.066 A
HETATM   16  N8  UNL     1      -0.369  -9.012   6.255  1.00  0.00    -0.383 N
ATOM     17  H8  UNL     1      -0.167  -9.957   5.930  1.00  0.00     0.160 HD
ENDROOT
BRANCH  16  18
HETATM   18  C20 UNL     1      -0.985  -9.111   7.487  1.00  0.00     0.082 C
HETATM   19  C21 UNL     1      -1.580 -10.465   7.817  1.00  0.00     0.031 C
HETATM   20  C22 UNL     1      -2.506 -10.234   8.997  1.00  0.00     0.081 C
HETATM   21  C23 UNL     1      -1.772  -9.548  10.133  1.00  0.00     0.243 C
HETATM   22  F1  UNL     1      -1.958 -10.331  11.256  1.00  0.00    -0.206 F
HETATM   23  F2  UNL     1      -2.289  -8.299  10.416  1.00  0.00    -0.206 F
HETATM   24  C24 UNL     1      -0.281  -9.507   9.874  1.00  0.00     0.081 C
HETATM   25  C25 UNL     1       0.104  -8.906   8.568  1.00  0.00     0.031 C
ENDBRANCH  16  18
BRANCH  10  26
HETATM   26  N4  UNL     1       2.375 -10.258   0.915  1.00  0.00    -0.226 N
ATOM     27  H4  UNL     1       3.355 -10.540   0.922  1.00  0.00     0.177 HD
BRANCH  26  28
HETATM   28  C6  UNL     1       1.584 -10.397  -0.264  1.00  0.00     0.142 C
BRANCH  28  29
HETATM   29  C7  UNL     1       2.209  -9.732  -1.485  1.00  0.00     0.007 C
HETATM   30  C8  UNL     1       2.113  -8.263  -1.338  1.00  0.00     0.036 C
HETATM   31  C9  UNL     1       3.374  -7.489  -1.475  1.00  0.00     0.273 C
HETATM   32  N5  UNL     1       4.110  -8.065  -2.614  1.00  0.00     0.090 N
HETATM   33  C15 UNL     1       4.639  -9.306  -1.999  1.00  0.00     0.273 C
HETATM   34  C16 UNL     1       3.524 -10.299  -1.842  1.00  0.00     0.036 C
BRANCH  32  35
HETATM   35  C10 UNL     1       5.178  -7.204  -3.024  1.00  0.00     0.302 C
BRANCH  35  36
HETATM   36  C11 UNL     1       5.580  -6.277  -1.950  1.00  0.00     0.302 C
BRANCH  36  37
HETATM   37  N6  UNL     1       6.869  -6.363  -1.405  1.00  0.00     0.090 N
HETATM   38  C12 UNL     1       7.506  -7.547  -1.026  1.00  0.00     0.274 C
HETATM   39  C13 UNL     1       6.996  -7.460   0.399  1.00  0.00     0.060 C
HETATM   40  C14 UNL     1       6.844  -5.981   0.020  1.00  0.00     0.274 C
ENDBRANCH  36  37
ENDBRANCH  35  36
ENDBRANCH  32  35
ENDBRANCH  28  29
ENDBRANCH  26  28
ENDBRANCH  10  26
TORSDOF 7
ENDMDL