MODEL 2
REMARK VINA RESULT: -6.140824530      5.254      8.190
REMARK  7 active torsions:
REMARK  status: ('A' for Active; 'I' for Inactive)
REMARK    1  A    between atoms: C2_2  and  N1_3
REMARK    2  A    between atoms: N1_3  and  C4_5
REMARK    3  A    between atoms: C4_5  and  C5_6
REMARK    4  A    between atoms: C5_6  and  O1_7
REMARK    5  A    between atoms: C5_6  and  C6_9
REMARK    6  A    between atoms: C6_9  and  N2_10
REMARK    7  A    between atoms: C9_13  and  N3_14
ROOT
HETATM    1  N2  UNL     1       0.564 -10.103   9.573  1.00  0.00     0.091 N
HETATM    2  C7  UNL     1       0.548 -11.150   8.628  1.00  0.00     0.274 C
HETATM    3  C8  UNL     1      -0.455 -11.154   7.558  1.00  0.00     0.056 C
HETATM    4  C9  UNL     1      -1.637 -10.297   7.843  1.00  0.00     0.094 C
HETATM    5  C16 UNL     1      -1.349  -9.002   8.495  1.00  0.00     0.056 C
HETATM    6  C17 UNL     1      -0.030  -8.875   9.172  1.00  0.00     0.274 C
ENDROOT
BRANCH   4   7
HETATM    7  N3  UNL     1      -2.695 -11.027   8.531  1.00  0.00    -0.332 N
HETATM    8  C10 UNL     1      -2.713 -11.476   9.782  1.00  0.00     0.184 A
HETATM    9  N4  UNL     1      -3.878 -12.086   9.989  1.00  0.00    -0.349 N
HETATM   10  C11 UNL     1      -4.628 -12.041   8.879  1.00  0.00     0.086 A
ATOM     11  H4  UNL     1      -4.160 -12.524  10.866  1.00  0.00     0.166 HD
HETATM   12  C12 UNL     1      -5.881 -12.500   8.537  1.00  0.00     0.074 A
HETATM   13  C15 UNL     1      -3.864 -11.361   7.943  1.00  0.00     0.133 A
HETATM   14 BR1  UNL     1      -6.874 -13.428   9.875  1.00  0.00    -0.046 Br
HETATM   15  C13 UNL     1      -6.342 -12.269   7.273  1.00  0.00     0.102 A
HETATM   16 BR2  UNL     1      -8.094 -12.924   6.834  1.00  0.00    -0.030 Br
HETATM   17  N5  UNL     1      -5.617 -11.612   6.354  1.00  0.00    -0.314 N
HETATM   18  C14 UNL     1      -4.389 -11.152   6.661  1.00  0.00     0.275 A
ATOM     19  H5  UNL     1      -5.998 -11.460   5.420  1.00  0.00     0.170 HD
HETATM   20  O2  UNL     1      -3.749 -10.544   5.767  1.00  0.00    -0.266 OA
ENDBRANCH   4   7
BRANCH   1  21
HETATM   21  C6  UNL     1       1.909  -9.847  10.067  1.00  0.00     0.305 C
BRANCH  21  22
HETATM   22  C5  UNL     1       2.490 -11.123  10.630  1.00  0.00     0.174 C
BRANCH  22  23
HETATM   23  C4  UNL     1       4.003 -11.144  10.494  1.00  0.00     0.305 C
BRANCH  23  24
HETATM   24  N1  UNL     1       4.556  -9.833  10.605  1.00  0.00     0.086 N
HETATM   25  C3  UNL     1       5.000  -9.486  11.916  1.00  0.00     0.310 C
BRANCH  24  26
HETATM   26  C2  UNL     1       5.549  -9.524   9.630  1.00  0.00     0.267 C
HETATM   27  C1  UNL     1       6.584  -8.541  10.117  1.00  0.00     0.037 C
ENDBRANCH  24  26
ENDBRANCH  23  24
ENDBRANCH  22  23
BRANCH  22  28
HETATM   28  O1  UNL     1       2.112 -11.185  11.977  1.00  0.00    -0.392 OA
ATOM     29  H1  UNL     1       1.236 -11.542  12.064  1.00  0.00     0.210 HD
ENDBRANCH  22  28
ENDBRANCH  21  22
ENDBRANCH   1  21
TORSDOF 7
ENDMDL