MODEL 1
REMARK VINA RESULT: -6.586123123      0.000      0.000
REMARK  5 active torsions:
REMARK  status: ('A' for Active; 'I' for Inactive)
REMARK    1  A    between atoms: C5_6  and  N1_7
REMARK    2  A    between atoms: C5_6  and  C7_13
REMARK    3  A    between atoms: N1_7  and  S1_9
REMARK       I    between atoms: C7_13  and  N2_15
REMARK    4  A    between atoms: N2_15  and  S2_17
REMARK    5  A    between atoms: S2_17  and  C8_20
ROOT
HETATM    1  C1  UNL     1      -2.235 -12.510  11.941  1.00  0.00     0.051 C
HETATM    2  C2  UNL     1      -1.536 -12.000  10.688  1.00  0.00     0.100 C
HETATM    3  F1  UNL     1      -0.163 -12.082  10.959  1.00  0.00    -0.243 F
HETATM    4  C3  UNL     1      -1.881 -10.567  10.529  1.00  0.00     0.046 C
HETATM    5  C4  UNL     1      -3.043 -10.331   9.563  1.00  0.00     0.045 C
HETATM    6  C5  UNL     1      -2.621 -10.839   8.268  1.00  0.00     0.122 C
HETATM    7  C12 UNL     1      -2.080 -12.249   8.241  1.00  0.00     0.045 C
HETATM    8  C13 UNL     1      -1.884 -12.880   9.552  1.00  0.00     0.046 C
ENDROOT
BRANCH   6   9
HETATM    9  N1  UNL     1      -3.485 -10.662   7.127  1.00  0.00    -0.301 N
ATOM     10  H1  UNL     1      -3.226 -10.022   6.375  1.00  0.00     0.173 HD
BRANCH   9  11
HETATM   11  S1  UNL     1      -4.915 -11.519   7.056  1.00  0.00     0.223 S
HETATM   12  C6  UNL     1      -4.877 -12.790   5.781  1.00  0.00     0.186 C
HETATM   13  O1  UNL     1      -6.066 -10.604   6.743  1.00  0.00    -0.206 OA
HETATM   14  O2  UNL     1      -5.263 -12.255   8.333  1.00  0.00    -0.206 OA
ENDBRANCH   9  11
ENDBRANCH   6   9
BRANCH   6  15
HETATM   15  C7  UNL     1      -1.414  -9.966   7.820  1.00  0.00     0.260 C
HETATM   16  O3  UNL     1      -0.288 -10.395   7.770  1.00  0.00    -0.270 OA
HETATM   17  N2  UNL     1      -1.708  -8.614   7.469  1.00  0.00    -0.248 N
ATOM     18  H2  UNL     1      -2.689  -8.362   7.592  1.00  0.00     0.182 HD
BRANCH  17  19
HETATM   19  S2  UNL     1      -0.760  -7.360   6.895  1.00  0.00     0.271 S
HETATM   20  O4  UNL     1       0.391  -7.158   7.890  1.00  0.00    -0.200 OA
HETATM   21  O5  UNL     1      -1.606  -6.096   6.907  1.00  0.00    -0.200 OA
BRANCH  19  22
HETATM   22  C8  UNL     1      -0.024  -7.651   5.344  1.00  0.00     0.121 A
HETATM   23  C9  UNL     1       0.351  -8.905   4.888  1.00  0.00     0.052 A
HETATM   24  C10 UNL     1       1.005  -8.978   3.716  1.00  0.00     0.019 A
HETATM   25 BR1  UNL     1       1.681 -10.636   2.920  1.00  0.00    -0.051 Br
HETATM   26  C11 UNL     1       1.253  -7.794   3.070  1.00  0.00     0.070 A
HETATM   27  S3  UNL     1       0.584  -6.664   4.097  1.00  0.00    -0.087 SA
ENDBRANCH  19  22
ENDBRANCH  17  19
ENDBRANCH   6  15
TORSDOF 5
ENDMDL