MODEL 2
REMARK VINA RESULT: -6.585831897      1.056      1.141
REMARK  8 active torsions:
REMARK  status: ('A' for Active; 'I' for Inactive)
REMARK    1  A    between atoms: C2_2  and  N1_3
REMARK    2  A    between atoms: N1_3  and  C3_4
REMARK    3  A    between atoms: N1_3  and  C5_9
REMARK    4  A    between atoms: C3_4  and  O1_5
REMARK    5  A    between atoms: C10_14  and  N2_15
REMARK    6  A    between atoms: N2_15  and  C11_17
REMARK    7  A    between atoms: C12_22  and  O2_23
REMARK    8  A    between atoms: N5_26  and  C14_28
ROOT
HETATM    1  C11 UNL     1      -1.386  -8.485   6.784  1.00  0.00     0.695 A
HETATM    2  N3  UNL     1      -1.545  -7.161   7.055  1.00  0.00    -0.130 N
ATOM      3  H3  UNL     1      -2.102  -6.873   7.861  1.00  0.00     0.205 HD
HETATM    4  N4  UNL     1      -0.988  -6.252   6.289  1.00  0.00    -0.262 N
ATOM      5  H4  UNL     1      -1.113  -5.262   6.501  1.00  0.00     0.189 HD
HETATM    6  C12 UNL     1      -0.245  -6.629   5.212  1.00  0.00     0.215 A
HETATM    7  C13 UNL     1      -0.043  -7.939   4.883  1.00  0.00     0.172 A
HETATM    8  N5  UNL     1       0.633  -8.380   3.966  1.00  0.00    -0.346 N
ATOM      9  H5  UNL     1       0.552  -9.395   4.023  1.00  0.00     0.163 HD
HETATM   10  N6  UNL     1      -0.655  -8.848   5.728  1.00  0.00    -0.171 N
ATOM     11  H6  UNL     1      -0.543  -9.843   5.534  1.00  0.00     0.186 HD
ENDROOT
BRANCH   1  12
HETATM   12  N2  UNL     1      -1.965  -9.293   7.591  1.00  0.00    -0.215 N
ATOM     13  H2  UNL     1      -2.906  -9.585   7.326  1.00  0.00     0.178 HD
BRANCH  12  14
HETATM   14  C10 UNL     1      -1.470  -9.837   8.809  1.00  0.00     0.145 C
HETATM   15  C5  UNL     1      -1.101 -11.254   8.687  1.00  0.00     0.014 C
HETATM   16  C6  UNL     1      -0.864 -11.973   9.972  1.00  0.00     0.055 C
HETATM   17  C7  UNL     1      -1.718 -11.643  11.130  1.00  0.00     0.006 C
HETATM   18  C8  UNL     1      -1.999 -10.194  11.226  1.00  0.00     0.003 C
HETATM   19  C9  UNL     1      -2.392  -9.507   9.946  1.00  0.00     0.032 C
BRANCH  15  20
HETATM   20  N1  UNL     1      -1.868 -12.068   7.712  1.00  0.00    -0.333 N
BRANCH  20  21
HETATM   21  C2  UNL     1      -3.255 -12.380   7.957  1.00  0.00     0.126 C
HETATM   22  C1  UNL     1      -4.151 -11.998   6.818  1.00  0.00     0.027 C
ENDBRANCH  20  21
BRANCH  20  23
HETATM   23  C3  UNL     1      -1.231 -12.618   6.587  1.00  0.00     0.153 C
HETATM   24  C4  UNL     1      -0.975 -13.962   6.140  1.00  0.00     0.140 C
HETATM   25 CL1  UNL     1      -1.493 -15.324   7.100  1.00  0.00    -0.092 Cl
BRANCH  23  26
HETATM   26  O1  UNL     1      -0.774 -11.679   5.771  1.00  0.00    -0.345 OA
ATOM     27  H1  UNL     1      -1.000 -11.857   4.866  1.00  0.00     0.219 HD
ENDBRANCH  23  26
ENDBRANCH  20  23
ENDBRANCH  15  20
ENDBRANCH  12  14
ENDBRANCH   1  12
BRANCH   6  28
HETATM   28  O2  UNL     1       0.289  -5.594   4.480  1.00  0.00    -0.247 OA
HETATM   29 BR1  UNL     1       0.042  -3.793   4.945  1.00  0.00     0.107 Br
ENDBRANCH   6  28
BRANCH   8  30
HETATM   30  C14 UNL     1       1.448  -8.129   2.898  1.00  0.00     0.222 C
HETATM   31  C15 UNL     1       2.767  -8.914   3.092  1.00  0.00     0.054 C
HETATM   32  C16 UNL     1       3.751  -8.539   2.006  1.00  0.00     0.006 C
HETATM   33  C17 UNL     1       2.973  -8.198   0.753  1.00  0.00     0.026 C
HETATM   34  C18 UNL     1       1.724  -9.047   0.776  1.00  0.00     0.170 C
HETATM   35  O3  UNL     1       0.828  -8.626   1.720  1.00  0.00    -0.367 OA
ENDBRANCH   8  30
TORSDOF 8
ENDMDL