MODEL 4
REMARK VINA RESULT: -6.874014912      4.113      6.133
REMARK  9 active torsions:
REMARK  status: ('A' for Active; 'I' for Inactive)
REMARK    1  A    between atoms: C2_2  and  C3_5
REMARK    2  A    between atoms: C3_5  and  N1_6
REMARK       I    between atoms: N1_6  and  C4_8
REMARK    3  A    between atoms: C4_8  and  C5_10
REMARK    4  A    between atoms: C12_17  and  C13_18
REMARK    5  A    between atoms: C13_18  and  O3_20
REMARK    6  A    between atoms: O3_20  and  C14_21
REMARK    7  A    between atoms: C14_21  and  C15_22
REMARK    8  A    between atoms: C15_22  and  O4_23
REMARK    9  A    between atoms: O4_23  and  C16_24
REMARK       I    between atoms: C16_24  and  N2_26
ROOT
HETATM    1  C5  UNL     1      -2.543 -11.162   8.048  1.00  0.00     0.043 C
HETATM    2  C6  UNL     1      -3.275 -10.942   9.330  1.00  0.00     0.024 C
HETATM    3  C7  UNL     1      -2.301 -10.882  10.490  1.00  0.00    -0.012 C
HETATM    4  C8  UNL     1      -1.468 -12.120  10.597  1.00  0.00     0.009 C
HETATM    5  C9  UNL     1      -0.759 -12.337   9.279  1.00  0.00    -0.012 C
HETATM    6  C10 UNL     1      -1.711 -12.426   8.123  1.00  0.00     0.024 C
HETATM    7  C11 UNL     1       0.158 -11.176   9.055  1.00  0.00     0.024 C
HETATM    8  C12 UNL     1      -0.651  -9.897   8.906  1.00  0.00     0.050 C
HETATM    9  C21 UNL     1      -1.382  -9.708  10.234  1.00  0.00     0.024 C
HETATM   10  C22 UNL     1      -1.624  -9.988   7.775  1.00  0.00     0.039 C
ENDROOT
BRANCH   8  11
HETATM   11  C13 UNL     1       0.257  -8.724   8.771  1.00  0.00     0.267 C
HETATM   12  O2  UNL     1       0.867  -8.307   9.782  1.00  0.00    -0.264 OA
BRANCH  11  13
HETATM   13  O3  UNL     1       0.494  -8.046   7.628  1.00  0.00    -0.319 OA
BRANCH  13  14
HETATM   14  C14 UNL     1      -0.035  -6.835   7.285  1.00  0.00     0.205 C
BRANCH  14  15
HETATM   15  C15 UNL     1      -0.625  -6.636   5.961  1.00  0.00     0.207 C
BRANCH  15  16
HETATM   16  O4  UNL     1      -0.236  -7.434   4.923  1.00  0.00    -0.302 OA
BRANCH  16  17
HETATM   17  C16 UNL     1       0.812  -7.234   4.081  1.00  0.00     0.362 C
HETATM   18  O5  UNL     1       1.220  -6.053   3.999  1.00  0.00    -0.238 OA
HETATM   19  N2  UNL     1       1.453  -8.229   3.315  1.00  0.00    -0.324 N
HETATM   20  C17 UNL     1       2.547  -7.898   2.462  1.00  0.00     0.154 C
HETATM   21  C20 UNL     1       0.971  -9.589   3.420  1.00  0.00     0.154 C
HETATM   22  C18 UNL     1       3.553  -9.025   2.504  1.00  0.00     0.187 C
HETATM   23  O6  UNL     1       2.886 -10.180   2.086  1.00  0.00    -0.388 OA
HETATM   24  C19 UNL     1       1.990 -10.615   3.034  1.00  0.00     0.187 C
ENDBRANCH  16  17
ENDBRANCH  15  16
ENDBRANCH  14  15
ENDBRANCH  13  14
ENDBRANCH  11  13
ENDBRANCH   8  11
BRANCH   1  25
HETATM   25  C4  UNL     1      -3.484 -11.253   6.915  1.00  0.00     0.226 C
HETATM   26  N1  UNL     1      -4.483 -12.293   6.880  1.00  0.00    -0.357 N
ATOM     27  H1  UNL     1      -4.540 -12.969   7.642  1.00  0.00     0.162 HD
HETATM   28  O1  UNL     1      -3.414 -10.431   5.990  1.00  0.00    -0.273 OA
BRANCH  26  29
HETATM   29  C3  UNL     1      -5.401 -12.380   5.772  1.00  0.00     0.164 C
BRANCH  29  30
HETATM   30  C2  UNL     1      -6.777 -12.039   6.248  1.00  0.00     0.125 C
HETATM   31  C1  UNL     1      -7.092 -10.568   6.095  1.00  0.00     0.052 C
HETATM   32 CL1  UNL     1      -7.949 -12.944   5.266  1.00  0.00    -0.100 Cl
HETATM   33 CL2  UNL     1      -6.940 -12.554   7.948  1.00  0.00    -0.100 Cl
ENDBRANCH  29  30
ENDBRANCH  26  29
ENDBRANCH   1  25
TORSDOF 9
ENDMDL