MODEL 2
REMARK VINA RESULT: -6.922974338      2.209      3.644
REMARK  8 active torsions:
REMARK  status: ('A' for Active; 'I' for Inactive)
REMARK    1  A    between atoms: O1_2  and  N1_3
REMARK    2  A    between atoms: C3_5  and  N2_6
REMARK    3  A    between atoms: N2_6  and  C4_8
REMARK    4  A    between atoms: C7_13  and  C8_14
REMARK    5  A    between atoms: N5_24  and  C14_26
REMARK    6  A    between atoms: C14_26  and  C15_27
REMARK    7  A    between atoms: C15_27  and  C16_28
REMARK    8  A    between atoms: C16_28  and  N6_29
ROOT
HETATM    1  C4  UNL     1       2.217  -7.940   2.367  1.00  0.00     0.146 A
HETATM    2  N3  UNL     1       1.627  -7.121   2.970  1.00  0.00    -0.338 N
ATOM      3  H3  UNL     1       1.818  -6.230   2.511  1.00  0.00     0.167 HD
HETATM    4  C5  UNL     1       0.818  -6.854   3.990  1.00  0.00     0.061 A
HETATM    5  C6  UNL     1       0.446  -5.604   4.336  1.00  0.00     0.045 A
HETATM    6  C7  UNL     1      -0.350  -5.384   5.457  1.00  0.00     0.015 A
HETATM    7  C10 UNL     1      -0.770  -6.424   6.208  1.00  0.00     0.015 A
HETATM    8  C11 UNL     1      -0.397  -7.737   5.858  1.00  0.00     0.032 A
HETATM    9  C12 UNL     1       0.396  -7.932   4.767  1.00  0.00     0.060 A
HETATM   10  N4  UNL     1       0.915  -9.084   4.325  1.00  0.00    -0.338 N
ATOM     11  H4  UNL     1       0.664  -9.926   4.842  1.00  0.00     0.167 HD
HETATM   12  C13 UNL     1       1.704  -9.239   3.311  1.00  0.00     0.146 A
HETATM   13  N5  UNL     1       2.123 -10.270   2.933  1.00  0.00    -0.373 N
ATOM     14  H5  UNL     1       2.692  -9.989   2.135  1.00  0.00     0.161 HD
ENDROOT
BRANCH   1  15
HETATM   15  N2  UNL     1       2.879  -8.864   1.704  1.00  0.00    -0.367 N
ATOM     16  H2  UNL     1       2.537  -9.816   1.577  1.00  0.00     0.161 HD
BRANCH  15  17
HETATM   17  C3  UNL     1       4.146  -8.392   1.170  1.00  0.00     0.098 C
HETATM   18  C2  UNL     1       3.944  -7.526  -0.018  1.00  0.00     0.146 C
HETATM   19  N1  UNL     1       5.139  -7.382  -0.856  1.00  0.00    -0.191 NA
HETATM   20  C23 UNL     1       6.260  -7.847  -0.101  1.00  0.00     0.082 C
HETATM   21  C22 UNL     1       6.138  -9.384  -0.029  1.00  0.00     0.024 C
HETATM   22  C24 UNL     1       7.611  -7.511  -0.671  1.00  0.00     0.028 C
HETATM   23  C21 UNL     1       4.996  -9.633   0.902  1.00  0.00     0.028 C
BRANCH  19  24
HETATM   24  O1  UNL     1       4.959  -8.146  -1.953  1.00  0.00    -0.308 OA
HETATM   25  C1  UNL     1       4.418  -7.457  -3.024  1.00  0.00     0.229 C
ENDBRANCH  19  24
ENDBRANCH  15  17
ENDBRANCH   1  15
BRANCH  13  26
HETATM   26  C14 UNL     1       2.292 -11.622   2.939  1.00  0.00     0.123 C
BRANCH  26  27
HETATM   27  C15 UNL     1       2.345 -12.230   1.528  1.00  0.00     0.050 C
BRANCH  27  28
HETATM   28  C16 UNL     1       0.914 -12.132   0.981  1.00  0.00     0.274 C
BRANCH  28  29
HETATM   29  N6  UNL     1       0.775 -11.657  -0.318  1.00  0.00     0.092 N
HETATM   30  C17 UNL     1      -0.327 -10.768  -0.593  1.00  0.00     0.298 C
HETATM   31  C18 UNL     1       0.059  -9.338  -0.174  1.00  0.00     0.198 C
HETATM   32  O2  UNL     1       1.020  -8.899  -1.043  1.00  0.00    -0.388 OA
HETATM   33  C19 UNL     1       1.692  -9.899  -1.739  1.00  0.00     0.198 C
HETATM   34  C20 UNL     1       1.987 -11.112  -0.899  1.00  0.00     0.298 C
ENDBRANCH  28  29
ENDBRANCH  27  28
ENDBRANCH  26  27
ENDBRANCH  13  26
BRANCH   6  35
HETATM   35  C8  UNL     1      -0.685  -3.987   5.866  1.00  0.00     0.267 C
HETATM   36  C9  UNL     1       0.115  -3.020   4.975  1.00  0.00     0.096 C
HETATM   37  F1  UNL     1      -0.295  -3.748   7.188  1.00  0.00    -0.201 F
HETATM   38  F2  UNL     1      -1.996  -3.731   5.757  1.00  0.00    -0.201 F
ENDBRANCH   6  35
TORSDOF 8
ENDMDL