MODEL 2
REMARK VINA RESULT: -7.344489683      3.222      7.398
REMARK  3 active torsions:
REMARK  status: ('A' for Active; 'I' for Inactive)
REMARK    1  A    between atoms: N1_1  and  C1_4
REMARK    2  A    between atoms: C2_9  and  C3_10
REMARK    3  A    between atoms: C4_11  and  C5_12
ROOT
HETATM    1  C1  UNL     1      -2.972  71.506  14.129  1.00  0.00     0.690 A
HETATM    2  N2  UNL     1      -2.875  72.027  12.893  1.00  0.00    -0.132 N
ATOM      3  H2  UNL     1      -2.417  72.929  12.766  1.00  0.00     0.205 HD
HETATM    4  N3  UNL     1      -3.360  71.393  11.841  1.00  0.00    -0.285 N
ATOM      5  H3  UNL     1      -3.274  71.809  10.913  1.00  0.00     0.187 HD
HETATM    6  C2  UNL     1      -3.968  70.202  11.988  1.00  0.00     0.064 A
HETATM    7  C9  UNL     1      -4.063  69.680  13.246  1.00  0.00     0.137 A
HETATM    8  N6  UNL     1      -3.576  70.309  14.326  1.00  0.00    -0.199 N
ATOM      9  H6  UNL     1      -3.657  69.902  15.258  1.00  0.00     0.183 HD
ENDROOT
BRANCH   6  10
HETATM   10  C3  UNL     1      -4.496  69.531  10.784  1.00  0.00     0.035 C
HETATM   11  C4  UNL     1      -5.137  68.393  10.870  1.00  0.00     0.032 C
BRANCH  11  12
HETATM   12  C5  UNL     1      -5.666  67.708   9.722  1.00  0.00     0.041 A
HETATM   13  C6  UNL     1      -5.630  68.319   8.467  1.00  0.00     0.104 A
HETATM   14  C7  UNL     1      -6.128  67.681   7.374  1.00  0.00     0.251 A
HETATM   15  O1  UNL     1      -6.102  68.225   6.222  1.00  0.00    -0.268 OA
HETATM   16  N4  UNL     1      -6.663  66.455   7.473  1.00  0.00    -0.275 N
HETATM   17  C8  UNL     1      -6.699  65.865   8.681  1.00  0.00     0.327 A
ATOM     18  H4  UNL     1      -7.035  65.981   6.651  1.00  0.00     0.173 HD
HETATM   19  O2  UNL     1      -7.205  64.696   8.798  1.00  0.00    -0.247 OA
HETATM   20  N5  UNL     1      -6.210  66.484   9.772  1.00  0.00    -0.308 N
ATOM     21  H5  UNL     1      -6.255  66.003  10.670  1.00  0.00     0.170 HD
ENDBRANCH  11  12
ENDBRANCH   6  10
BRANCH   1  22
HETATM   22  N1  UNL     1      -2.489  72.153  15.114  1.00  0.00    -0.233 N
ATOM     23  H12 UNL     1      -1.998  73.034  14.961  1.00  0.00     0.174 HD
ATOM     24  H11 UNL     1      -2.599  71.778  16.056  1.00  0.00     0.174 HD
ENDBRANCH   1  22
TORSDOF 3
ENDMDL