MODEL 4
REMARK VINA RESULT: -6.673455959      1.612      1.990
REMARK  2 active torsions:
REMARK  status: ('A' for Active; 'I' for Inactive)
REMARK    1  A    between atoms: C1_2  and  C2_4
REMARK    2  A    between atoms: C3_7  and  C4_8
ROOT
HETATM    1  C2  UNL     1      -4.731  69.146  11.936  1.00  0.00     0.188 A
HETATM    2  N2  UNL     1      -5.497  68.127  11.480  1.00  0.00    -0.321 N
ATOM      3  H2  UNL     1      -6.302  67.740  11.974  1.00  0.00     0.169 HD
HETATM    4  C3  UNL     1      -5.053  67.698  10.295  1.00  0.00     0.139 A
HETATM    5  N5  UNL     1      -3.992  68.466  10.009  1.00  0.00    -0.283 N
ATOM      6  H5  UNL     1      -3.422  68.393   9.167  1.00  0.00     0.188 HD
HETATM    7  N6  UNL     1      -3.798  69.336  10.993  1.00  0.00    -0.280 N
ATOM      8  H6  UNL     1      -3.057  70.036  11.026  1.00  0.00     0.189 HD
ENDROOT
BRANCH   4   9
HETATM    9  C4  UNL     1      -5.587  66.620   9.456  1.00  0.00     0.093 A
HETATM   10  C5  UNL     1      -6.350  66.882   8.337  1.00  0.00     0.113 A
HETATM   11  N3  UNL     1      -6.832  65.887   7.577  1.00  0.00    -0.318 N
HETATM   12  C6  UNL     1      -6.588  64.602   7.880  1.00  0.00     0.327 A
ATOM     13  H3  UNL     1      -7.394  66.111   6.755  1.00  0.00     0.170 HD
HETATM   14  O2  UNL     1      -7.057  63.672   7.142  1.00  0.00    -0.247 OA
HETATM   15  N4  UNL     1      -5.849  64.301   8.961  1.00  0.00    -0.275 N
HETATM   16  C7  UNL     1      -5.356  65.291   9.738  1.00  0.00     0.264 A
ATOM     17  H4  UNL     1      -5.661  63.327   9.195  1.00  0.00     0.173 HD
HETATM   18  O3  UNL     1      -4.663  65.018  10.750  1.00  0.00    -0.267 OA
ENDBRANCH   4   9
BRANCH   1  19
HETATM   19  C1  UNL     1      -4.872  69.890  13.175  1.00  0.00     0.300 C
HETATM   20  N1  UNL     1      -5.103  71.293  13.193  1.00  0.00    -0.054 NA
HETATM   21  O1  UNL     1      -4.788  69.278  14.268  1.00  0.00    -0.268 OA
ENDBRANCH   1  19
TORSDOF 2
ENDMDL