MODEL 3
REMARK VINA RESULT: -5.985898689      1.288      4.301
REMARK  3 active torsions:
REMARK  status: ('A' for Active; 'I' for Inactive)
REMARK    1  A    between atoms: N1_1  and  C1_4
REMARK    2  A    between atoms: C2_7  and  N3_8
REMARK    3  A    between atoms: C3_10  and  C4_11
ROOT
HETATM    1  C1  UNL     1      -3.988  70.384  12.398  1.00  0.00     0.679 A
HETATM    2  N2  UNL     1      -4.710  69.685  13.263  1.00  0.00    -0.174 N
ATOM      3  H2  UNL     1      -4.769  70.033  14.220  1.00  0.00     0.186 HD
HETATM    4  C2  UNL     1      -5.385  68.523  12.965  1.00  0.00     0.151 A
HETATM    5  C5  UNL     1      -5.265  68.100  11.642  1.00  0.00     0.125 A
HETATM    6  N4  UNL     1      -5.884  66.969  11.226  1.00  0.00    -0.316 N
ATOM      7  H4  UNL     1      -6.447  66.407  11.864  1.00  0.00     0.169 HD
HETATM    8  C6  UNL     1      -5.723  66.616   9.926  1.00  0.00     0.261 A
HETATM    9  O2  UNL     1      -6.323  65.546   9.577  1.00  0.00    -0.267 OA
HETATM   10  C7  UNL     1      -4.980  67.331   9.021  1.00  0.00     0.164 A
HETATM   11  N5  UNL     1      -4.384  68.440   9.471  1.00  0.00    -0.345 N
ATOM     12  H5  UNL     1      -3.823  68.995   8.825  1.00  0.00     0.167 HD
HETATM   13  C8  UNL     1      -4.502  68.851  10.757  1.00  0.00     0.151 A
HETATM   14  N6  UNL     1      -3.870  69.980  11.126  1.00  0.00    -0.174 N
ATOM     15  H6  UNL     1      -3.316  70.513  10.455  1.00  0.00     0.186 HD
ENDROOT
BRANCH   4  16
HETATM   16  N3  UNL     1      -6.028  67.937  13.817  1.00  0.00    -0.347 N
HETATM   17  C3  UNL     1      -6.393  67.626  15.074  1.00  0.00     0.131 C
ATOM     18  H3  UNL     1      -6.639  67.342  13.258  1.00  0.00     0.167 HD
BRANCH  17  19
HETATM   19  C4  UNL     1      -7.434  66.555  15.226  1.00  0.00     0.275 C
HETATM   20  O1  UNL     1      -7.509  65.666  14.405  1.00  0.00    -0.301 OA
ENDBRANCH  17  19
ENDBRANCH   4  16
BRANCH   1  21
HETATM   21  N1  UNL     1      -3.366  71.488  12.746  1.00  0.00    -0.234 N
ATOM     22  H12 UNL     1      -3.902  72.356  12.732  1.00  0.00     0.174 HD
ATOM     23  H11 UNL     1      -2.384  71.490  13.020  1.00  0.00     0.174 HD
ENDBRANCH   1  21
TORSDOF 3
ENDMDL