MODEL 4
REMARK VINA RESULT: -6.229543642      1.793      2.654
REMARK  7 active torsions:
REMARK  status: ('A' for Active; 'I' for Inactive)
REMARK    1  A    between atoms: O1_3  and  C3_4
REMARK    2  A    between atoms: C3_4  and  N1_5
REMARK    3  A    between atoms: C3_4  and  C4_9
REMARK    4  A    between atoms: C4_9  and  N2_10
REMARK    5  A    between atoms: C4_9  and  C5_14
REMARK    6  A    between atoms: C6_15  and  C7_16
REMARK    7  A    between atoms: C9_18  and  N3_19
ROOT
HETATM    1  C1  UNL     1      -7.460  63.606   7.325  1.00  0.00     0.044 C
HETATM    2  C2  UNL     1      -6.576  63.956   8.067  1.00  0.00     0.045 C
HETATM    3  O1  UNL     1      -5.573  64.371   8.897  1.00  0.00    -0.267 OA
ENDROOT
BRANCH   3   4
HETATM    4  C3  UNL     1      -5.085  65.687   8.852  1.00  0.00     0.377 C
BRANCH   4   5
HETATM    5  N1  UNL     1      -3.942  65.853   9.734  1.00  0.00    -0.049 N
ATOM      6  H13 UNL     1      -3.061  65.756   9.229  1.00  0.00     0.277 HD
ATOM      7  H12 UNL     1      -3.840  66.821  10.040  1.00  0.00     0.277 HD
ATOM      8  H11 UNL     1      -3.994  65.212  10.526  1.00  0.00     0.277 HD
ENDBRANCH   4   5
BRANCH   4   9
HETATM    9  C4  UNL     1      -6.187  66.623   9.289  1.00  0.00     0.319 C
BRANCH   9  10
HETATM   10  N2  UNL     1      -6.721  67.341   8.121  1.00  0.00    -0.060 N
ATOM     11  H23 UNL     1      -6.333  68.281   8.038  1.00  0.00     0.276 HD
ATOM     12  H22 UNL     1      -6.370  66.958   7.242  1.00  0.00     0.276 HD
ATOM     13  H21 UNL     1      -7.740  67.348   8.158  1.00  0.00     0.276 HD
ENDBRANCH   9  10
BRANCH   9  14
HETATM   14  C5  UNL     1      -5.600  67.585  10.240  1.00  0.00    -0.062 C
HETATM   15  C6  UNL     1      -5.138  68.375  11.028  1.00  0.00    -0.046 C
BRANCH  15  16
HETATM   16  C7  UNL     1      -4.605  69.319  11.988  1.00  0.00     0.091 A
HETATM   17  C8  UNL     1      -4.838  69.172  13.334  1.00  0.00     0.087 A
HETATM   18  C9  UNL     1      -4.331  70.066  14.226  1.00  0.00     0.102 A
HETATM   19  N4  UNL     1      -3.599  71.089  13.751  1.00  0.00    -0.339 N
HETATM   20  C10 UNL     1      -3.356  71.255  12.440  1.00  0.00     0.182 A
ATOM     21  H4  UNL     1      -3.214  71.765  14.411  1.00  0.00     0.168 HD
HETATM   22  N5  UNL     1      -3.868  70.359  11.582  1.00  0.00    -0.345 N
ATOM     23  H5  UNL     1      -3.689  70.475  10.585  1.00  0.00     0.167 HD
BRANCH  18  24
HETATM   24  N3  UNL     1      -4.549  69.930  15.486  1.00  0.00    -0.385 N
ATOM     25  H32 UNL     1      -4.690  70.740  16.089  1.00  0.00     0.157 HD
ATOM     26  H31 UNL     1      -4.587  69.002  15.910  1.00  0.00     0.157 HD
ENDBRANCH  18  24
ENDBRANCH  15  16
ENDBRANCH   9  14
ENDBRANCH   4   9
ENDBRANCH   3   4
TORSDOF 7
ENDMDL