MODEL 1
REMARK VINA RESULT: -7.517227501      0.000      0.000
REMARK  4 active torsions:
REMARK  status: ('A' for Active; 'I' for Inactive)
REMARK    1  A    between atoms: C2_2  and  C3_3
REMARK    2  A    between atoms: C3_3  and  N1_4
REMARK    3  A    between atoms: N1_4  and  C4_6
REMARK    4  A    between atoms: C6_12  and  N4_13
ROOT
HETATM    1  C4  UNL     1      -5.392  66.917   9.895  1.00  0.00     0.694 A
HETATM    2  N2  UNL     1      -4.723  68.078   9.903  1.00  0.00    -0.172 N
ATOM      3  H2  UNL     1      -4.322  68.446   9.040  1.00  0.00     0.186 HD
HETATM    4  C5  UNL     1      -4.583  68.757  11.059  1.00  0.00     0.170 A
HETATM    5  N3  UNL     1      -3.921  69.928  11.123  1.00  0.00    -0.174 N
ATOM      6  H3  UNL     1      -3.503  70.337  10.287  1.00  0.00     0.186 HD
HETATM    7  C6  UNL     1      -3.825  70.541  12.306  1.00  0.00     0.680 A
HETATM    8  N5  UNL     1      -4.361  70.044  13.449  1.00  0.00    -0.154 N
ATOM      9  H5  UNL     1      -4.265  70.545  14.332  1.00  0.00     0.187 HD
HETATM   10  C7  UNL     1      -5.013  68.893  13.390  1.00  0.00     0.291 A
HETATM   11  O1  UNL     1      -5.530  68.393  14.436  1.00  0.00    -0.265 OA
HETATM   12  C8  UNL     1      -5.135  68.231  12.197  1.00  0.00     0.162 A
HETATM   13  N6  UNL     1      -5.802  67.062  12.161  1.00  0.00    -0.278 N
ATOM     14  H6  UNL     1      -6.211  66.677  13.012  1.00  0.00     0.188 HD
HETATM   15  N7  UNL     1      -5.922  66.425  11.029  1.00  0.00    -0.132 N
ATOM     16  H7  UNL     1      -6.427  65.538  11.003  1.00  0.00     0.205 HD
ENDROOT
BRANCH   1  17
HETATM   17  N1  UNL     1      -5.548  66.230   8.792  1.00  0.00    -0.221 N
ATOM     18  H1  UNL     1      -5.536  66.690   7.882  1.00  0.00     0.178 HD
BRANCH  17  19
HETATM   19  C3  UNL     1      -5.737  64.802   8.899  1.00  0.00     0.164 C
BRANCH  19  20
HETATM   20  C2  UNL     1      -7.005  64.464   8.216  1.00  0.00    -0.017 C
HETATM   21  C1  UNL     1      -7.115  63.398   7.450  1.00  0.00     0.008 C
ENDBRANCH  19  20
ENDBRANCH  17  19
ENDBRANCH   1  17
BRANCH   7  22
HETATM   22  N4  UNL     1      -3.185  71.678  12.381  1.00  0.00    -0.234 N
ATOM     23  H42 UNL     1      -3.094  72.228  11.527  1.00  0.00     0.174 HD
ATOM     24  H41 UNL     1      -2.803  71.973  13.280  1.00  0.00     0.174 HD
ENDBRANCH   7  22
TORSDOF 4
ENDMDL