MODEL 3
REMARK VINA RESULT: -6.758998594      2.506      5.977
REMARK  1 active torsions:
REMARK  status: ('A' for Active; 'I' for Inactive)
REMARK    1  A    between atoms: N5_11  and  C4_13
ROOT
HETATM    1  C1  UNL     1      -8.436  68.671  15.689  1.00  0.00     0.165 C
HETATM    2  N1  UNL     1      -7.855  68.468  14.391  1.00  0.00    -0.229 N
ATOM      3  H1  UNL     1      -8.391  67.966  13.684  1.00  0.00     0.177 HD
HETATM    4  C2  UNL     1      -6.657  68.907  14.084  1.00  0.00     0.705 C
HETATM    5  N2  UNL     1      -5.871  69.612  15.028  1.00  0.00    -0.115 N
ATOM      6  H2  UNL     1      -6.297  70.116  15.806  1.00  0.00     0.203 HD
HETATM    7  N3  UNL     1      -4.491  69.585  14.849  1.00  0.00     0.007 NA
HETATM    8  N4  UNL     1      -4.139  69.867  13.542  1.00  0.00    -0.115 N
ATOM      9  H4  UNL     1      -3.412  70.552  13.333  1.00  0.00     0.203 HD
HETATM   10  C3  UNL     1      -4.829  69.164  12.473  1.00  0.00     0.711 C
HETATM   11  N5  UNL     1      -4.262  69.004  11.348  1.00  0.00    -0.173 N
ATOM     12  H5  UNL     1      -3.323  69.389  11.252  1.00  0.00     0.186 HD
HETATM   13  N8  UNL     1      -6.124  68.683  12.786  1.00  0.00    -0.020 N
ATOM     14  H8  UNL     1      -6.669  68.180  12.086  1.00  0.00     0.203 HD
ENDROOT
BRANCH  11  15
HETATM   15  C4  UNL     1      -4.795  68.350  10.215  1.00  0.00     0.140 A
HETATM   16  C5  UNL     1      -5.265  67.062  10.134  1.00  0.00     0.144 A
HETATM   17  N6  UNL     1      -5.670  66.864   8.874  1.00  0.00    -0.310 N
HETATM   18  C6  UNL     1      -6.236  65.612   8.397  1.00  0.00     0.160 C
HETATM   19  C7  UNL     1      -5.478  67.975   8.149  1.00  0.00     0.327 A
HETATM   20  O1  UNL     1      -5.765  68.096   6.916  1.00  0.00    -0.246 OA
HETATM   21  N7  UNL     1      -4.944  68.879   8.971  1.00  0.00    -0.293 N
ATOM     22  H7  UNL     1      -4.684  69.829   8.706  1.00  0.00     0.172 HD
ENDBRANCH  11  15
TORSDOF 1
ENDMDL