MODEL 3
REMARK VINA RESULT: -7.240909029      1.830      2.584
REMARK  3 active torsions:
REMARK  status: ('A' for Active; 'I' for Inactive)
REMARK    1  A    between atoms: N1_1  and  N2_4
REMARK    2  A    between atoms: C3_10  and  C4_11
REMARK    3  A    between atoms: C4_11  and  C5_12
ROOT
HETATM    1  N2  UNL     1      -6.644  68.083   6.054  1.00  0.00    -0.138 N
ATOM      2  H2  UNL     1      -6.389  69.054   5.879  1.00  0.00     0.205 HD
HETATM    3  C1  UNL     1      -6.279  67.542   7.166  1.00  0.00     0.699 C
HETATM    4  N3  UNL     1      -5.584  68.390   7.958  1.00  0.00    -0.200 N
ATOM      5  H3  UNL     1      -5.297  69.272   7.533  1.00  0.00     0.183 HD
HETATM    6  C2  UNL     1      -5.229  68.202   9.239  1.00  0.00     0.113 C
HETATM    7  C3  UNL     1      -5.446  67.131  10.079  1.00  0.00    -0.031 C
HETATM    8  C8  UNL     1      -6.126  65.983   9.732  1.00  0.00     0.083 C
HETATM    9  C9  UNL     1      -6.707  65.609   8.525  1.00  0.00     0.260 C
HETATM   10  O1  UNL     1      -7.380  64.547   8.489  1.00  0.00    -0.268 OA
HETATM   11  N6  UNL     1      -6.639  66.261   7.350  1.00  0.00    -0.155 N
ATOM     12  H6  UNL     1      -6.885  65.729   6.516  1.00  0.00     0.187 HD
ENDROOT
BRANCH   7  13
HETATM   13  C4  UNL     1      -4.916  67.196  11.464  1.00  0.00     0.098 C
BRANCH  13  14
HETATM   14  C5  UNL     1      -4.726  68.582  11.930  1.00  0.00     0.029 A
HETATM   15  C6  UNL     1      -5.542  69.279  12.784  1.00  0.00     0.114 A
HETATM   16  N4  UNL     1      -5.010  70.506  12.947  1.00  0.00    -0.360 N
HETATM   17  C7  UNL     1      -3.900  70.570  12.222  1.00  0.00     0.180 A
ATOM     18  H4  UNL     1      -5.392  71.254  13.526  1.00  0.00     0.166 HD
HETATM   19  N5  UNL     1      -3.713  69.389  11.588  1.00  0.00    -0.354 N
ATOM     20  H5  UNL     1      -2.941  69.156  10.963  1.00  0.00     0.166 HD
ENDBRANCH  13  14
ENDBRANCH   7  13
BRANCH   1  21
HETATM   21  N1  UNL     1      -7.373  67.402   5.077  1.00  0.00    -0.331 N
ATOM     22  H12 UNL     1      -8.170  67.888   4.663  1.00  0.00     0.177 HD
ATOM     23  H11 UNL     1      -7.145  66.458   4.767  1.00  0.00     0.177 HD
ENDBRANCH   1  21
TORSDOF 3
ENDMDL