MODEL 4
REMARK VINA RESULT: -6.901533029      3.117      6.634
REMARK  2 active torsions:
REMARK  status: ('A' for Active; 'I' for Inactive)
REMARK    1  A    between atoms: N1_3  and  N2_5
REMARK    2  A    between atoms: C3_7  and  C4_8
ROOT
HETATM    1  C1  UNL     1      -7.102  63.624   7.690  1.00  0.00     0.038 C
HETATM    2  C2  UNL     1      -6.665  64.683   8.107  1.00  0.00     0.015 C
HETATM    3  N1  UNL     1      -6.150  65.902   8.565  1.00  0.00    -0.259 N
ATOM      4  H1  UNL     1      -5.620  66.505   7.937  1.00  0.00     0.197 HD
ENDROOT
BRANCH   3   5
HETATM    5  N2  UNL     1      -6.367  66.281   9.884  1.00  0.00    -0.302 N
HETATM    6  C3  UNL     1      -5.374  66.664  10.612  1.00  0.00     0.139 C
ATOM      7  H2  UNL     1      -7.309  66.254  10.275  1.00  0.00     0.186 HD
BRANCH   6   8
HETATM    8  C4  UNL     1      -5.654  67.054  11.999  1.00  0.00     0.084 A
HETATM    9  N3  UNL     1      -6.458  66.451  12.885  1.00  0.00    -0.297 N
HETATM   10  N4  UNL     1      -6.461  67.087  14.038  1.00  0.00    -0.284 N
ATOM     11  H3  UNL     1      -6.998  65.608  12.691  1.00  0.00     0.187 HD
HETATM   12  C5  UNL     1      -5.640  68.142  13.925  1.00  0.00     0.142 A
ATOM     13  H4  UNL     1      -6.992  66.825  14.868  1.00  0.00     0.188 HD
HETATM   14  N5  UNL     1      -5.300  69.100  14.817  1.00  0.00    -0.292 N
HETATM   15  C8  UNL     1      -5.116  68.143  12.644  1.00  0.00     0.107 A
HETATM   16  C6  UNL     1      -4.441  70.068  14.454  1.00  0.00     0.328 A
ATOM     17  H5  UNL     1      -5.692  69.088  15.758  1.00  0.00     0.172 HD
HETATM   18  O1  UNL     1      -4.121  70.962  15.280  1.00  0.00    -0.247 OA
HETATM   19  N6  UNL     1      -3.915  70.091  13.203  1.00  0.00    -0.275 N
HETATM   20  C7  UNL     1      -4.231  69.155  12.293  1.00  0.00     0.265 A
ATOM     21  H6  UNL     1      -3.265  70.835  12.948  1.00  0.00     0.173 HD
HETATM   22  O2  UNL     1      -3.743  69.178  11.136  1.00  0.00    -0.267 OA
ENDBRANCH   6   8
ENDBRANCH   3   5
TORSDOF 2
ENDMDL