MODEL 3
REMARK VINA RESULT: -7.036372558      1.814      2.533
REMARK  2 active torsions:
REMARK  status: ('A' for Active; 'I' for Inactive)
REMARK    1  A    between atoms: C2_5  and  C3_6
REMARK    2  A    between atoms: N2_7  and  C4_9
ROOT
HETATM    1  O1  UNL     1      -6.545  68.267   6.357  1.00  0.00    -0.245 OA
HETATM    2  C1  UNL     1      -6.339  67.616   7.407  1.00  0.00     0.339 A
HETATM    3  N1  UNL     1      -5.930  68.221   8.525  1.00  0.00    -0.302 N
ATOM      4  H1  UNL     1      -5.787  69.230   8.507  1.00  0.00     0.171 HD
HETATM    5  C2  UNL     1      -5.697  67.559   9.674  1.00  0.00     0.121 A
HETATM    6  C9  UNL     1      -5.899  66.204   9.663  1.00  0.00     0.288 A
HETATM    7  O3  UNL     1      -5.687  65.575  10.724  1.00  0.00    -0.264 OA
HETATM    8  N4  UNL     1      -6.311  65.590   8.539  1.00  0.00    -0.261 N
ATOM      9  H4  UNL     1      -6.458  64.580   8.543  1.00  0.00     0.190 HD
HETATM   10  N5  UNL     1      -6.531  66.280   7.421  1.00  0.00    -0.248 N
ATOM     11  H5  UNL     1      -6.842  65.799   6.578  1.00  0.00     0.192 HD
ENDROOT
BRANCH   5  12
HETATM   12  C3  UNL     1      -5.252  68.289  10.856  1.00  0.00     0.123 C
HETATM   13  N2  UNL     1      -5.876  68.142  11.973  1.00  0.00    -0.359 N
ATOM     14  H2  UNL     1      -6.683  67.522  12.053  1.00  0.00     0.165 HD
BRANCH  13  15
HETATM   15  C4  UNL     1      -5.400  68.874  13.085  1.00  0.00     0.101 A
HETATM   16  C5  UNL     1      -4.677  70.021  12.879  1.00  0.00     0.036 A
HETATM   17  C6  UNL     1      -4.221  70.718  14.002  1.00  0.00     0.020 A
HETATM   18  C7  UNL     1      -4.516  70.229  15.255  1.00  0.00     0.091 A
HETATM   19  N3  UNL     1      -5.233  69.093  15.418  1.00  0.00    -0.332 N
HETATM   20  C8  UNL     1      -5.685  68.398  14.340  1.00  0.00     0.272 A
ATOM     21  H3  UNL     1      -5.435  68.754  16.358  1.00  0.00     0.168 HD
HETATM   22  O2  UNL     1      -6.357  67.332  14.533  1.00  0.00    -0.266 OA
ENDBRANCH  13  15
ENDBRANCH   5  12
TORSDOF 2
ENDMDL