MODEL 2
REMARK VINA RESULT: -7.498130497      0.069      1.691
REMARK  3 active torsions:
REMARK  status: ('A' for Active; 'I' for Inactive)
REMARK    1  A    between atoms: N1_1  and  C1_4
REMARK    2  A    between atoms: C4_13  and  C5_14
REMARK    3  A    between atoms: C5_14  and  N5_15
ROOT
HETATM    1  C1  UNL     1      -3.984  70.801  12.340  1.00  0.00     0.131 A
HETATM    2  N2  UNL     1      -4.600  71.172  13.478  1.00  0.00    -0.337 N
ATOM      3  H2  UNL     1      -4.472  72.103  13.876  1.00  0.00     0.168 HD
HETATM    4  C2  UNL     1      -5.391  70.257  14.067  1.00  0.00     0.183 A
HETATM    5  N3  UNL     1      -5.553  69.031  13.537  1.00  0.00    -0.337 N
ATOM      6  H3  UNL     1      -6.162  68.369  14.018  1.00  0.00     0.168 HD
HETATM    7  C3  UNL     1      -4.949  68.640  12.404  1.00  0.00     0.138 A
HETATM    8  N4  UNL     1      -4.940  67.508  11.681  1.00  0.00    -0.329 N
ATOM      9  H4  UNL     1      -5.454  66.655  11.902  1.00  0.00     0.168 HD
HETATM   10  C4  UNL     1      -4.139  67.689  10.619  1.00  0.00     0.102 A
HETATM   11  N7  UNL     1      -3.650  68.939  10.684  1.00  0.00    -0.338 N
ATOM     12  H7  UNL     1      -3.011  69.357  10.007  1.00  0.00     0.167 HD
HETATM   13  C8  UNL     1      -4.130  69.554  11.775  1.00  0.00     0.122 A
ENDROOT
BRANCH  10  14
HETATM   14  C5  UNL     1      -3.820  66.729   9.549  1.00  0.00     0.215 C
BRANCH  14  15
HETATM   15  N5  UNL     1      -4.964  66.500   8.682  1.00  0.00    -0.244 N
HETATM   16  C6  UNL     1      -5.769  65.354   8.478  1.00  0.00     0.334 A
HETATM   17  O1  UNL     1      -5.834  64.159   8.919  1.00  0.00    -0.246 OA
HETATM   18  N6  UNL     1      -6.571  66.049   7.516  1.00  0.00    -0.260 N
HETATM   19  C7  UNL     1      -5.741  67.205   7.736  1.00  0.00     0.334 A
ATOM     20  H6  UNL     1      -7.376  65.825   6.931  1.00  0.00     0.175 HD
HETATM   21  O2  UNL     1      -5.742  68.350   7.260  1.00  0.00    -0.246 OA
ENDBRANCH  14  15
ENDBRANCH  10  14
BRANCH   1  22
HETATM   22  N1  UNL     1      -3.228  71.647  11.760  1.00  0.00    -0.383 N
ATOM     23  H12 UNL     1      -3.660  72.430  11.270  1.00  0.00     0.157 HD
ATOM     24  H11 UNL     1      -2.219  71.506  11.810  1.00  0.00     0.157 HD
ENDBRANCH   1  22
TORSDOF 3
ENDMDL