MODEL 3
REMARK VINA RESULT: -6.294365390      1.848      2.527
REMARK  3 active torsions:
REMARK  status: ('A' for Active; 'I' for Inactive)
REMARK    1  A    between atoms: C4_11  and  C5_12
REMARK    2  A    between atoms: C5_12  and  N4_13
REMARK    3  A    between atoms: C5_12  and  C6_17
ROOT
HETATM    1  C5  UNL     1      -3.420  67.596   9.634  1.00  0.00     0.292 C
ENDROOT
BRANCH   1   2
HETATM    2  C4  UNL     1      -4.281  66.510   9.102  1.00  0.00     0.089 A
HETATM    3  C1  UNL     1      -5.049  66.723   7.950  1.00  0.00     0.134 A
HETATM    4  N1  UNL     1      -5.013  67.965   7.274  1.00  0.00    -0.082 NA
HETATM    5  N2  UNL     1      -5.836  65.752   7.460  1.00  0.00    -0.296 N
HETATM    6  C2  UNL     1      -5.856  64.580   8.117  1.00  0.00     0.328 A
ATOM      7  H2  UNL     1      -6.397  65.898   6.621  1.00  0.00     0.171 HD
HETATM    8  O1  UNL     1      -6.605  63.668   7.644  1.00  0.00    -0.247 OA
HETATM    9  N3  UNL     1      -5.130  64.337   9.230  1.00  0.00    -0.275 N
HETATM   10  C3  UNL     1      -4.334  65.292   9.742  1.00  0.00     0.261 A
ATOM     11  H3  UNL     1      -5.186  63.426   9.684  1.00  0.00     0.173 HD
HETATM   12  O2  UNL     1      -3.685  65.010  10.777  1.00  0.00    -0.267 OA
ENDBRANCH   1   2
BRANCH   1  13
HETATM   13  N4  UNL     1      -3.365  68.741   8.808  1.00  0.00    -0.064 N
ATOM     14  H43 UNL     1      -3.676  68.516   7.863  1.00  0.00     0.275 HD
ATOM     15  H42 UNL     1      -4.089  69.409   9.073  1.00  0.00     0.275 HD
ATOM     16  H41 UNL     1      -2.451  69.193   8.787  1.00  0.00     0.275 HD
ENDBRANCH   1  13
BRANCH   1  17
HETATM   17  C6  UNL     1      -3.935  67.969  10.974  1.00  0.00     0.125 A
HETATM   18  N5  UNL     1      -5.061  67.966  11.610  1.00  0.00    -0.296 N
HETATM   19  C7  UNL     1      -4.578  68.497  12.825  1.00  0.00     0.327 A
ATOM     20  H5  UNL     1      -5.996  67.675  11.325  1.00  0.00     0.172 HD
HETATM   21  O3  UNL     1      -5.057  68.790  13.922  1.00  0.00    -0.247 OA
HETATM   22  N6  UNL     1      -3.330  68.516  12.168  1.00  0.00    -0.296 N
ATOM     23  H6  UNL     1      -2.386  68.801  12.429  1.00  0.00     0.172 HD
ENDBRANCH   1  17
TORSDOF 3
ENDMDL