MODEL 3
REMARK VINA RESULT: -6.148789610      2.468      4.927
REMARK  3 active torsions:
REMARK  status: ('A' for Active; 'I' for Inactive)
REMARK    1  A    between atoms: N1_1  and  C1_5
REMARK    2  A    between atoms: C1_5  and  C2_6
REMARK    3  A    between atoms: C2_6  and  N2_7
ROOT
HETATM    1  N2  UNL     1      -3.572  67.519  10.914  1.00  0.00    -0.337 N
HETATM    2  C3  UNL     1      -4.982  67.761  10.529  1.00  0.00     0.253 C
HETATM    3  N3  UNL     1      -5.106  68.248   9.194  1.00  0.00    -0.327 N
ATOM      4  H3  UNL     1      -5.236  69.254   9.092  1.00  0.00     0.165 HD
HETATM    5  C4  UNL     1      -5.071  67.501   8.002  1.00  0.00     0.325 C
HETATM    6  O1  UNL     1      -4.669  68.141   6.962  1.00  0.00    -0.247 OA
HETATM    7  N4  UNL     1      -5.426  66.142   7.830  1.00  0.00    -0.260 N
ATOM      8  H4  UNL     1      -5.753  65.885   6.899  1.00  0.00     0.175 HD
HETATM    9  C5  UNL     1      -5.389  65.108   8.763  1.00  0.00     0.342 C
HETATM   10  O2  UNL     1      -6.404  64.326   8.776  1.00  0.00    -0.245 OA
HETATM   11  N5  UNL     1      -4.336  64.844   9.694  1.00  0.00    -0.249 N
ATOM     12  H5  UNL     1      -4.472  64.121  10.401  1.00  0.00     0.192 HD
HETATM   13  N6  UNL     1      -3.154  65.528   9.667  1.00  0.00    -0.270 N
ATOM     14  H6  UNL     1      -2.428  65.039   9.145  1.00  0.00     0.189 HD
HETATM   15  C6  UNL     1      -2.758  66.633  10.142  1.00  0.00     0.206 C
HETATM   16  N7  UNL     1      -1.404  67.039   9.909  1.00  0.00    -0.062 NA
ENDROOT
BRANCH   1  17
HETATM   17  C2  UNL     1      -3.140  68.221  12.089  1.00  0.00     0.154 C
BRANCH  17  18
HETATM   18  C1  UNL     1      -3.493  69.644  12.221  1.00  0.00     0.249 C
BRANCH  18  19
HETATM   19  N1  UNL     1      -2.463  70.433  11.499  1.00  0.00    -0.078 N
ATOM     20  H13 UNL     1      -1.528  70.037  11.586  1.00  0.00     0.274 HD
ATOM     21  H12 UNL     1      -2.546  70.360  10.485  1.00  0.00     0.274 HD
ATOM     22  H11 UNL     1      -2.519  71.395  11.834  1.00  0.00     0.274 HD
ENDBRANCH  18  19
ENDBRANCH  17  18
ENDBRANCH   1  17
TORSDOF 3
ENDMDL