MODEL 3
REMARK VINA RESULT: -6.148153242      2.077      3.156
REMARK  4 active torsions:
REMARK  status: ('A' for Active; 'I' for Inactive)
REMARK    1  A    between atoms: C2_5  and  N3_6
REMARK    2  A    between atoms: C6_17  and  N6_18
REMARK    3  A    between atoms: N6_18  and  N7_20
REMARK    4  A    between atoms: N7_20  and  C7_22
ROOT
HETATM    1  C1  UNL     1      -2.072  71.221  12.125  1.00  0.00     0.179 C
HETATM    2  N1  UNL     1      -2.918  70.232  12.794  1.00  0.00    -0.277 N
HETATM    3  N2  UNL     1      -3.187  70.357  14.075  1.00  0.00    -0.281 N
ATOM      4  H2  UNL     1      -2.794  71.153  14.578  1.00  0.00     0.189 HD
HETATM    5  C2  UNL     1      -3.971  69.472  14.766  1.00  0.00     0.132 A
HETATM    6  C3  UNL     1      -4.523  68.386  14.137  1.00  0.00     0.110 A
HETATM    7  C4  UNL     1      -5.333  67.333  14.518  1.00  0.00     0.276 A
HETATM    8  O1  UNL     1      -5.788  67.128  15.669  1.00  0.00    -0.266 OA
HETATM    9  N4  UNL     1      -5.523  66.595  13.412  1.00  0.00    -0.265 N
ATOM     10  H4  UNL     1      -6.081  65.742  13.366  1.00  0.00     0.190 HD
HETATM   11  N5  UNL     1      -4.877  67.138  12.389  1.00  0.00    -0.293 N
ATOM     12  H5  UNL     1      -4.872  66.757  11.444  1.00  0.00     0.187 HD
HETATM   13  C5  UNL     1      -4.229  68.258  12.759  1.00  0.00     0.114 A
HETATM   14  C6  UNL     1      -3.437  69.184  12.129  1.00  0.00     0.166 A
ENDROOT
BRANCH  14  15
HETATM   15  N6  UNL     1      -3.154  69.101  10.904  1.00  0.00    -0.280 N
ATOM     16  H6  UNL     1      -3.508  69.888  10.360  1.00  0.00     0.188 HD
BRANCH  15  17
HETATM   17  N7  UNL     1      -2.486  68.202  10.153  1.00  0.00    -0.276 N
ATOM     18  H7  UNL     1      -1.511  67.998  10.367  1.00  0.00     0.189 HD
BRANCH  17  19
HETATM   19  C7  UNL     1      -3.112  67.536   9.072  1.00  0.00     0.368 C
HETATM   20  O2  UNL     1      -3.505  68.222   8.098  1.00  0.00    -0.282 OA
ENDBRANCH  17  19
ENDBRANCH  15  17
ENDBRANCH  14  15
BRANCH   5  21
HETATM   21  N3  UNL     1      -4.188  69.662  16.016  1.00  0.00    -0.384 N
ATOM     22  H32 UNL     1      -3.436  69.511  16.689  1.00  0.00     0.157 HD
ATOM     23  H31 UNL     1      -5.112  69.961  16.326  1.00  0.00     0.157 HD
ENDBRANCH   5  21
TORSDOF 4
ENDMDL