MODEL 4
REMARK VINA RESULT: -7.301494195      1.709      2.405
REMARK  5 active torsions:
REMARK  status: ('A' for Active; 'I' for Inactive)
REMARK    1  A    between atoms: N1_1  and  C1_4
REMARK    2  A    between atoms: C3_11  and  N4_12
REMARK    3  A    between atoms: N4_12  and  N5_14
REMARK    4  A    between atoms: N6_16  and  C4_18
REMARK    5  A    between atoms: N10_24  and  O2_25
ROOT
HETATM    1  N4  UNL     1      -2.243  67.825   9.438  1.00  0.00    -0.116 N
ATOM      2  H4  UNL     1      -1.378  67.863   8.899  1.00  0.00     0.207 HD
ENDROOT
BRANCH   1   3
HETATM    3  C3  UNL     1      -3.269  67.198   8.979  1.00  0.00     0.716 A
HETATM    4  N3  UNL     1      -3.613  65.976   9.435  1.00  0.00    -0.139 N
HETATM    5  C2  UNL     1      -4.693  65.327   8.947  1.00  0.00     0.352 A
ATOM      6  H3  UNL     1      -3.048  65.534  10.161  1.00  0.00     0.189 HD
HETATM    7  N2  UNL     1      -5.427  65.921   7.990  1.00  0.00    -0.141 N
HETATM    8  O1  UNL     1      -5.031  64.183   9.360  1.00  0.00    -0.246 OA
HETATM    9  C1  UNL     1      -5.119  67.147   7.501  1.00  0.00     0.694 A
ATOM     10  H2  UNL     1      -6.242  65.433   7.619  1.00  0.00     0.189 HD
HETATM   11  N11 UNL     1      -4.027  67.743   8.033  1.00  0.00    -0.021 N
ATOM     12  H11 UNL     1      -3.770  68.668   7.687  1.00  0.00     0.203 HD
BRANCH   9  13
HETATM   13  N1  UNL     1      -5.804  67.734   6.590  1.00  0.00    -0.234 N
ATOM     14  H12 UNL     1      -6.598  67.264   6.155  1.00  0.00     0.174 HD
ATOM     15  H11 UNL     1      -5.602  68.676   6.257  1.00  0.00     0.174 HD
ENDBRANCH   9  13
ENDBRANCH   1   3
BRANCH   1  16
HETATM   16  N5  UNL     1      -2.328  68.449  10.678  1.00  0.00    -0.214 N
HETATM   17  N6  UNL     1      -2.958  69.530  10.875  1.00  0.00    -0.113 N
ATOM     18  H6  UNL     1      -3.444  70.002  10.111  1.00  0.00     0.207 HD
ATOM     19  H5  UNL     1      -1.858  68.014  11.470  1.00  0.00     0.209 HD
BRANCH  17  20
HETATM   20  C4  UNL     1      -2.969  70.067  12.191  1.00  0.00     0.753 A
HETATM   21  N7  UNL     1      -2.555  71.267  12.626  1.00  0.00    -0.110 N
HETATM   22  N8  UNL     1      -2.750  71.355  13.951  1.00  0.00     0.011 NA
ATOM     23  H7  UNL     1      -2.155  71.999  12.040  1.00  0.00     0.203 HD
HETATM   24  N9  UNL     1      -3.291  70.201  14.357  1.00  0.00    -0.184 N
HETATM   25  N10 UNL     1      -3.423  69.428  13.308  1.00  0.00     0.032 N
ATOM     26  H9  UNL     1      -3.553  69.965  15.313  1.00  0.00     0.209 HD
BRANCH  25  27
HETATM   27  O2  UNL     1      -3.949  68.145  13.332  1.00  0.00    -0.253 OA
ATOM     28  H2  UNL     1      -3.476  67.367  13.601  1.00  0.00     0.247 HD
ENDBRANCH  25  27
ENDBRANCH  17  20
ENDBRANCH   1  16
TORSDOF 5
ENDMDL