MODEL 1
REMARK VINA RESULT: -6.726556495      0.000      0.000
REMARK  3 active torsions:
REMARK  status: ('A' for Active; 'I' for Inactive)
REMARK    1  A    between atoms: N1_1  and  C1_4
REMARK    2  A    between atoms: N3_7  and  C2_8
REMARK    3  A    between atoms: C2_8  and  C3_9
ROOT
HETATM    1  C1  UNL     1      -2.448  70.929  12.254  1.00  0.00     0.183 A
HETATM    2  N2  UNL     1      -2.610  69.797  11.552  1.00  0.00    -0.275 N
ATOM      3  H2  UNL     1      -2.169  69.711  10.636  1.00  0.00     0.189 HD
HETATM    4  N3  UNL     1      -3.330  68.787  12.021  1.00  0.00    -0.239 N
HETATM    5  C6  UNL     1      -3.901  68.918  13.222  1.00  0.00     0.344 A
HETATM    6  O1  UNL     1      -4.583  67.981  13.686  1.00  0.00    -0.245 OA
HETATM    7  N7  UNL     1      -3.773  70.033  13.975  1.00  0.00    -0.271 N
ATOM      8  H7  UNL     1      -4.225  70.094  14.887  1.00  0.00     0.174 HD
HETATM    9  C7  UNL     1      -3.052  71.050  13.511  1.00  0.00     0.294 A
HETATM   10  O2  UNL     1      -2.904  72.099  14.165  1.00  0.00    -0.264 OA
ENDROOT
BRANCH   4  11
HETATM   11  C2  UNL     1      -3.496  67.599  11.247  1.00  0.00     0.180 C
BRANCH  11  12
HETATM   12  C3  UNL     1      -4.659  67.623  10.286  1.00  0.00     0.121 C
HETATM   13  C4  UNL     1      -4.165  67.880   8.894  1.00  0.00     0.149 C
HETATM   14  N4  UNL     1      -4.217  66.568   8.304  1.00  0.00    -0.363 N
HETATM   15  C5  UNL     1      -5.003  65.700   9.111  1.00  0.00     0.184 C
ATOM     16  H4  UNL     1      -3.757  66.299   7.434  1.00  0.00     0.162 HD
HETATM   17  N5  UNL     1      -5.436  64.383   8.724  1.00  0.00    -0.064 NA
HETATM   18  N6  UNL     1      -5.235  66.314  10.211  1.00  0.00    -0.357 N
ATOM     19  H6  UNL     1      -5.783  65.906  10.968  1.00  0.00     0.162 HD
ENDBRANCH  11  12
ENDBRANCH   4  11
BRANCH   1  20
HETATM   20  N1  UNL     1      -1.748  71.902  11.792  1.00  0.00    -0.380 N
ATOM     21  H12 UNL     1      -0.862  71.707  11.326  1.00  0.00     0.158 HD
ATOM     22  H11 UNL     1      -2.063  72.867  11.882  1.00  0.00     0.158 HD
ENDBRANCH   1  20
TORSDOF 3
ENDMDL