MODEL 2
REMARK VINA RESULT: -7.518675707      0.610      1.167
REMARK  3 active torsions:
REMARK  status: ('A' for Active; 'I' for Inactive)
REMARK    1  A    between atoms: N1_1  and  C1_4
REMARK    2  A    between atoms: C2_7  and  C3_8
REMARK    3  A    between atoms: C3_8  and  N3_9
ROOT
HETATM    1  C3  UNL     1      -3.241  67.844   9.231  1.00  0.00     0.217 C
ENDROOT
BRANCH   1   2
HETATM    2  C2  UNL     1      -3.480  68.366  10.589  1.00  0.00     0.131 A
HETATM    3  N2  UNL     1      -2.693  69.159  11.320  1.00  0.00    -0.177 N
HETATM    4  C1  UNL     1      -3.294  69.402  12.522  1.00  0.00     0.691 A
ATOM      5  H2  UNL     1      -1.788  69.526  11.026  1.00  0.00     0.185 HD
HETATM    6  N7  UNL     1      -4.450  68.740  12.494  1.00  0.00    -0.131 N
HETATM    7  N6  UNL     1      -4.570  68.110  11.329  1.00  0.00    -0.273 N
ATOM      8  H7  UNL     1      -5.136  68.719  13.249  1.00  0.00     0.205 HD
ATOM      9  H6  UNL     1      -5.360  67.530  11.044  1.00  0.00     0.189 HD
BRANCH   4  10
HETATM   10  N1  UNL     1      -2.772  70.137  13.441  1.00  0.00    -0.233 N
ATOM     11  H12 UNL     1      -2.391  71.082  13.397  1.00  0.00     0.174 HD
ATOM     12  H11 UNL     1      -2.669  69.837  14.410  1.00  0.00     0.174 HD
ENDBRANCH   4  10
ENDBRANCH   1   2
BRANCH   1  13
HETATM   13  N3  UNL     1      -4.103  66.728   8.893  1.00  0.00    -0.244 N
HETATM   14  C4  UNL     1      -4.015  65.521   9.482  1.00  0.00     0.334 A
HETATM   15  O1  UNL     1      -3.129  65.393  10.367  1.00  0.00    -0.246 OA
HETATM   16  N4  UNL     1      -4.816  64.487   9.167  1.00  0.00    -0.260 N
HETATM   17  C5  UNL     1      -5.747  64.649   8.224  1.00  0.00     0.332 A
ATOM     18  H4  UNL     1      -4.712  63.590   9.642  1.00  0.00     0.175 HD
HETATM   19  O2  UNL     1      -6.495  63.674   7.933  1.00  0.00    -0.246 OA
HETATM   20  N5  UNL     1      -5.862  65.852   7.611  1.00  0.00    -0.260 N
HETATM   21  C6  UNL     1      -5.045  66.880   7.945  1.00  0.00     0.334 A
ATOM     22  H5  UNL     1      -6.571  65.984   6.891  1.00  0.00     0.175 HD
HETATM   23  O3  UNL     1      -5.229  67.956   7.319  1.00  0.00    -0.246 OA
ENDBRANCH   1  13
TORSDOF 3
ENDMDL