MODEL 2
REMARK VINA RESULT: -6.062212920      3.479      5.394
REMARK  5 active torsions:
REMARK  status: ('A' for Active; 'I' for Inactive)
REMARK    1  A    between atoms: N1_1  and  C1_4
REMARK    2  A    between atoms: N3_7  and  C2_8
REMARK    3  A    between atoms: C2_8  and  O1_9
REMARK    4  A    between atoms: O1_9  and  C3_10
REMARK    5  A    between atoms: C3_10  and  N4_11
ROOT
HETATM    1  C1  UNL     1      -2.937  69.858  12.366  1.00  0.00     0.143 A
HETATM    2  N2  UNL     1      -2.619  69.560  11.105  1.00  0.00    -0.279 N
ATOM      3  H2  UNL     1      -2.012  70.133  10.518  1.00  0.00     0.189 HD
HETATM    4  N3  UNL     1      -3.189  68.425  10.704  1.00  0.00    -0.259 N
HETATM    5  C4  UNL     1      -3.912  67.968  11.763  1.00  0.00     0.152 A
HETATM    6  C5  UNL     1      -4.695  66.854  11.920  1.00  0.00     0.280 A
HETATM    7  O2  UNL     1      -4.820  66.061  10.967  1.00  0.00    -0.265 OA
HETATM    8  N5  UNL     1      -5.308  66.635  13.087  1.00  0.00    -0.273 N
ATOM      9  H5  UNL     1      -5.891  65.806  13.207  1.00  0.00     0.173 HD
HETATM   10  C6  UNL     1      -5.158  67.515  14.119  1.00  0.00     0.327 A
HETATM   11  O3  UNL     1      -5.757  67.277  15.221  1.00  0.00    -0.247 OA
HETATM   12  N6  UNL     1      -4.403  68.588  13.965  1.00  0.00    -0.303 N
ATOM     13  H6  UNL     1      -4.304  69.232  14.749  1.00  0.00     0.171 HD
HETATM   14  C7  UNL     1      -3.764  68.864  12.825  1.00  0.00     0.116 A
ENDROOT
BRANCH   4  15
HETATM   15  C2  UNL     1      -3.069  67.790   9.401  1.00  0.00     0.319 C
BRANCH  15  16
HETATM   16  O1  UNL     1      -3.883  68.409   8.461  1.00  0.00    -0.344 OA
BRANCH  16  17
HETATM   17  C3  UNL     1      -4.585  67.524   7.683  1.00  0.00     0.398 C
BRANCH  17  18
HETATM   18  N4  UNL     1      -5.782  67.141   8.420  1.00  0.00    -0.058 N
ATOM     19  H43 UNL     1      -6.344  66.445   7.929  1.00  0.00     0.276 HD
ATOM     20  H42 UNL     1      -5.576  66.585   9.250  1.00  0.00     0.276 HD
ATOM     21  H41 UNL     1      -6.301  67.993   8.631  1.00  0.00     0.276 HD
ENDBRANCH  17  18
ENDBRANCH  16  17
ENDBRANCH  15  16
ENDBRANCH   4  15
BRANCH   1  22
HETATM   22  N1  UNL     1      -2.548  70.891  13.049  1.00  0.00    -0.383 N
ATOM     23  H12 UNL     1      -2.501  71.849  12.701  1.00  0.00     0.157 HD
ATOM     24  H11 UNL     1      -2.234  70.904  14.019  1.00  0.00     0.157 HD
ENDBRANCH   1  22
TORSDOF 5
ENDMDL