MODEL 5
REMARK VINA RESULT: -5.682961546      1.647      3.980
REMARK  2 active torsions:
REMARK  status: ('A' for Active; 'I' for Inactive)
REMARK    1  A    between atoms: N3_7  and  N4_8
REMARK    2  A    between atoms: N4_8  and  C3_10
ROOT
HETATM    1  C1  UNL     1      -2.788  66.101   9.582  1.00  0.00     0.165 C
HETATM    2  N1  UNL     1      -3.268  66.954  10.653  1.00  0.00    -0.268 N
HETATM    3  C2  UNL     1      -4.444  66.575  11.354  1.00  0.00     0.345 C
HETATM    4  O1  UNL     1      -5.042  65.605  10.809  1.00  0.00    -0.245 OA
HETATM    5  N2  UNL     1      -5.038  67.103  12.543  1.00  0.00    -0.228 N
ATOM      6  H2  UNL     1      -5.919  66.688  12.848  1.00  0.00     0.194 HD
HETATM    7  N3  UNL     1      -4.512  68.143  13.324  1.00  0.00    -0.171 N
HETATM    8  C4  UNL     1      -3.600  69.172  12.944  1.00  0.00     0.193 A
HETATM    9  N5  UNL     1      -3.482  70.338  13.605  1.00  0.00    -0.171 N
ATOM     10  H5  UNL     1      -4.007  70.625  14.431  1.00  0.00     0.186 HD
HETATM   11  C5  UNL     1      -2.536  71.051  12.966  1.00  0.00     0.678 A
HETATM   12  N6  UNL     1      -2.167  72.237  13.341  1.00  0.00    -0.234 N
ATOM     13  H61 UNL     1      -1.451  72.777  12.857  1.00  0.00     0.174 HD
ATOM     14  H62 UNL     1      -2.536  72.756  14.138  1.00  0.00     0.174 HD
HETATM   15  N7  UNL     1      -2.049  70.366  11.914  1.00  0.00    -0.183 N
ATOM     16  H7  UNL     1      -1.326  70.675  11.264  1.00  0.00     0.184 HD
HETATM   17  C6  UNL     1      -2.704  69.195  11.889  1.00  0.00     0.165 A
HETATM   18  C7  UNL     1      -2.500  68.120  10.908  1.00  0.00     0.282 C
HETATM   19  O3  UNL     1      -1.475  68.259  10.174  1.00  0.00    -0.265 OA
ENDROOT
BRANCH   7  20
HETATM   20  N4  UNL     1      -4.938  68.175  14.655  1.00  0.00    -0.254 N
ATOM     21  H4  UNL     1      -4.408  68.689  15.359  1.00  0.00     0.191 HD
BRANCH  20  22
HETATM   22  C3  UNL     1      -6.125  67.476  15.008  1.00  0.00     0.370 C
HETATM   23  O2  UNL     1      -6.189  66.224  14.942  1.00  0.00    -0.282 OA
ENDBRANCH  20  22
ENDBRANCH   7  20
TORSDOF 2
ENDMDL