MODEL 4
REMARK VINA RESULT: -6.168163606      1.211      3.213
REMARK  4 active torsions:
REMARK  status: ('A' for Active; 'I' for Inactive)
REMARK    1  A    between atoms: C4_8  and  N4_9
REMARK    2  A    between atoms: C5_14  and  N6_15
REMARK    3  A    between atoms: N6_15  and  N7_17
REMARK    4  A    between atoms: C6_19  and  C7_20
ROOT
HETATM    1  N1  UNL     1      -2.367  70.992  13.077  1.00  0.00    -0.191 NA
HETATM    2  C1  UNL     1      -3.086  70.128  13.356  1.00  0.00     0.107 C
HETATM    3  C2  UNL     1      -3.987  69.039  13.690  1.00  0.00     0.132 A
HETATM    4  C3  UNL     1      -4.455  68.879  14.987  1.00  0.00     0.156 A
HETATM    5  N2  UNL     1      -4.049  69.788  15.996  1.00  0.00    -0.080 NA
HETATM    6  N3  UNL     1      -5.300  67.869  15.325  1.00  0.00    -0.177 N
ATOM      7  H3  UNL     1      -5.638  67.761  16.281  1.00  0.00     0.185 HD
HETATM    8  C4  UNL     1      -5.673  67.019  14.355  1.00  0.00     0.678 A
HETATM    9  N5  UNL     1      -5.237  67.145  13.081  1.00  0.00    -0.174 N
ATOM     10  H5  UNL     1      -5.546  66.477  12.374  1.00  0.00     0.186 HD
HETATM   11  C5  UNL     1      -4.403  68.137  12.733  1.00  0.00     0.159 A
ENDROOT
BRANCH  11  12
HETATM   12  N6  UNL     1      -3.958  68.303  11.539  1.00  0.00    -0.284 N
ATOM     13  H6  UNL     1      -3.116  68.868  11.430  1.00  0.00     0.188 HD
BRANCH  12  14
HETATM   14  N7  UNL     1      -4.519  67.781  10.395  1.00  0.00    -0.305 N
HETATM   15  C6  UNL     1      -4.090  67.997   9.199  1.00  0.00     0.177 C
ATOM     16  H7  UNL     1      -5.336  67.178  10.501  1.00  0.00     0.186 HD
BRANCH  15  17
HETATM   17  C7  UNL     1      -4.793  67.373   8.097  1.00  0.00     0.271 C
HETATM   18  N8  UNL     1      -5.288  66.050   8.183  1.00  0.00    -0.057 NA
HETATM   19  O1  UNL     1      -4.966  68.021   7.041  1.00  0.00    -0.270 OA
ENDBRANCH  15  17
ENDBRANCH  12  14
ENDBRANCH  11  12
BRANCH   8  20
HETATM   20  N4  UNL     1      -6.479  66.043  14.640  1.00  0.00    -0.234 N
ATOM     21  H42 UNL     1      -6.743  65.899  15.614  1.00  0.00     0.174 HD
ATOM     22  H41 UNL     1      -6.827  65.446  13.890  1.00  0.00     0.174 HD
ENDBRANCH   8  20
TORSDOF 4
ENDMDL