MODEL 5
REMARK VINA RESULT: -5.470726886      2.175      3.609
REMARK  5 active torsions:
REMARK  status: ('A' for Active; 'I' for Inactive)
REMARK    1  A    between atoms: N1_1  and  C1_4
REMARK    2  A    between atoms: N3_9  and  C3_10
REMARK    3  A    between atoms: C3_10  and  C4_11
REMARK    4  A    between atoms: C4_11  and  C5_12
REMARK    5  A    between atoms: C5_12  and  N4_13
ROOT
HETATM    1  C1  UNL     1      -5.665  64.988   8.062  1.00  0.00     0.173 A
HETATM    2  N2  UNL     1      -5.776  66.120   7.342  1.00  0.00    -0.289 N
ATOM      3  H2  UNL     1      -6.302  66.108   6.469  1.00  0.00     0.172 HD
HETATM    4  C2  UNL     1      -5.197  67.284   7.759  1.00  0.00     0.342 A
HETATM    5  O1  UNL     1      -5.379  68.261   6.988  1.00  0.00    -0.245 OA
HETATM    6  N3  UNL     1      -4.496  67.341   8.902  1.00  0.00    -0.237 N
HETATM    7  N6  UNL     1      -4.399  66.203   9.596  1.00  0.00    -0.257 N
ATOM      8  H6  UNL     1      -3.869  66.221  10.468  1.00  0.00     0.190 HD
HETATM    9  C7  UNL     1      -4.943  65.056   9.230  1.00  0.00     0.303 A
HETATM   10  O2  UNL     1      -4.829  64.012   9.910  1.00  0.00    -0.263 OA
ENDROOT
BRANCH   6  11
HETATM   11  C3  UNL     1      -3.919  68.550   9.359  1.00  0.00     0.196 C
BRANCH  11  12
HETATM   12  C4  UNL     1      -2.977  68.554  10.494  1.00  0.00     0.190 A
HETATM   13  C6  UNL     1      -3.704  68.686  11.845  1.00  0.00     0.275 A
HETATM   14  N5  UNL     1      -2.788  69.668  11.359  1.00  0.00    -0.059 N
ATOM     15  H52 UNL     1      -1.949  70.080  11.768  1.00  0.00     0.278 HD
ATOM     16  H51 UNL     1      -2.881  70.673  11.208  1.00  0.00     0.278 HD
BRANCH  12  17
HETATM   17  C5  UNL     1      -1.851  67.553  10.586  1.00  0.00     0.271 C
BRANCH  17  18
HETATM   18  N4  UNL     1      -0.658  67.857   9.907  1.00  0.00    -0.077 N
ATOM     19  H43 UNL     1      -0.874  68.405   9.075  1.00  0.00     0.274 HD
ATOM     20  H42 UNL     1      -0.125  68.536  10.450  1.00  0.00     0.274 HD
ATOM     21  H41 UNL     1      -0.052  67.078   9.651  1.00  0.00     0.274 HD
ENDBRANCH  17  18
ENDBRANCH  12  17
ENDBRANCH  11  12
ENDBRANCH   6  11
BRANCH   1  22
HETATM   22  N1  UNL     1      -6.218  63.873   7.663  1.00  0.00    -0.381 N
ATOM     23  H12 UNL     1      -5.658  63.071   7.376  1.00  0.00     0.157 HD
ATOM     24  H11 UNL     1      -7.232  63.768   7.627  1.00  0.00     0.157 HD
ENDBRANCH   1  22
TORSDOF 5
ENDMDL