MODEL 5
REMARK VINA RESULT: -7.111864987      1.472      1.976
REMARK  3 active torsions:
REMARK  status: ('A' for Active; 'I' for Inactive)
REMARK    1  A    between atoms: C3_3  and  N1_4
REMARK       I    between atoms: N1_4  and  C5_6
REMARK       I    between atoms: C5_6  and  N4_11
REMARK    2  A    between atoms: N4_11  and  N5_13
REMARK    3  A    between atoms: N5_13  and  C7_14
ROOT
HETATM    1  C1  UNL     1      -2.952  -3.043  11.296  1.00  0.00     0.014 C
HETATM    2  C2  UNL     1      -2.669  -1.875  11.207  1.00  0.00    -0.097 C
HETATM    3  C3  UNL     1      -2.350  -0.448  11.108  1.00  0.00     0.234 C
ENDROOT
BRANCH   3   4
HETATM    4  N1  UNL     1      -3.539   0.364  11.182  1.00  0.00    -0.210 N
HETATM    5  C4  UNL     1      -4.607   0.107  10.247  1.00  0.00     0.169 C
HETATM    6  C5  UNL     1      -3.702   1.401  12.128  1.00  0.00     0.701 C
HETATM    7  N2  UNL     1      -3.245   2.591  11.868  1.00  0.00    -0.125 N
HETATM    8  N4  UNL     1      -4.351   1.224  13.379  1.00  0.00    -0.135 N
HETATM    9  C6  UNL     1      -2.586   2.905  10.675  1.00  0.00     0.196 C
ATOM     10  H2  UNL     1      -3.373   3.326  12.565  1.00  0.00     0.197 HD
HETATM   11  N3  UNL     1      -2.033   3.179   9.698  1.00  0.00    -0.171 NA
ATOM     12  H4  UNL     1      -5.169   0.620  13.461  1.00  0.00     0.201 HD
BRANCH   8  13
HETATM   13  N5  UNL     1      -3.853   1.882  14.479  1.00  0.00    -0.121 NA
BRANCH  13  14
HETATM   14  C7  UNL     1      -4.801   1.939  15.590  1.00  0.00     0.100 C
HETATM   15  C8  UNL     1      -4.997   0.525  16.059  1.00  0.00     0.023 C
HETATM   16  C9  UNL     1      -5.764   0.400  17.329  1.00  0.00     0.002 C
HETATM   17  C10 UNL     1      -6.988   1.253  17.407  1.00  0.00     0.000 C
HETATM   18  C11 UNL     1      -6.632   2.680  17.678  1.00  0.00     0.000 C
HETATM   19  C12 UNL     1      -6.568   3.479  16.404  1.00  0.00     0.002 C
HETATM   20  C13 UNL     1      -6.074   2.635  15.230  1.00  0.00     0.023 C
ENDBRANCH  13  14
ENDBRANCH   8  13
ENDBRANCH   3   4
TORSDOF 3
ENDMDL