MODEL 1
REMARK VINA RESULT: -7.350373036      0.000      0.000
REMARK  3 active torsions:
REMARK  status: ('A' for Active; 'I' for Inactive)
REMARK    1  A    between atoms: O1_2  and  C2_3
REMARK    2  A    between atoms: C2_3  and  C3_5
REMARK    3  A    between atoms: C3_5  and  C4_6
ROOT
HETATM    1  C4  UNL     1      -4.695   2.396  14.598  1.00  0.00     0.201 C
HETATM    2  N1  UNL     1      -3.801   1.735  13.686  1.00  0.00    -0.069 N
ATOM      3  H11 UNL     1      -3.564   0.798  14.013  1.00  0.00     0.277 HD
ATOM      4  H12 UNL     1      -2.871   2.154  13.711  1.00  0.00     0.277 HD
HETATM    5  C5  UNL     1      -4.334   1.703  12.326  1.00  0.00     0.252 C
HETATM    6  C6  UNL     1      -4.387   3.154  11.859  1.00  0.00     0.142 C
HETATM    7  N2  UNL     1      -3.353   3.864  12.513  1.00  0.00    -0.411 N
ATOM      8  H2  UNL     1      -2.415   3.899  12.114  1.00  0.00     0.154 HD
HETATM    9  C7  UNL     1      -3.643   4.520  13.724  1.00  0.00     0.030 C
HETATM   10  C8  UNL     1      -4.094   5.939  13.358  1.00  0.00     0.031 C
HETATM   11  C9  UNL     1      -2.841   6.755  13.202  1.00  0.00     0.002 C
HETATM   12  C10 UNL     1      -1.704   5.764  13.345  1.00  0.00     0.002 C
HETATM   13  C11 UNL     1      -2.288   4.833  14.385  1.00  0.00     0.031 C
HETATM   14  C12 UNL     1      -4.529   3.867  14.700  1.00  0.00     0.040 C
HETATM   15  C13 UNL     1      -5.913   4.493  14.719  1.00  0.00     0.014 C
ENDROOT
BRANCH   1  16
HETATM   16  C3  UNL     1      -4.490   1.708  15.956  1.00  0.00     0.144 C
BRANCH  16  17
HETATM   17  C2  UNL     1      -5.183   0.424  16.053  1.00  0.00     0.260 C
HETATM   18  O2  UNL     1      -4.656  -0.615  15.541  1.00  0.00    -0.265 OA
BRANCH  17  19
HETATM   19  O1  UNL     1      -6.407   0.239  16.681  1.00  0.00    -0.326 OA
HETATM   20  C1  UNL     1      -7.236   1.320  16.982  1.00  0.00     0.213 C
ENDBRANCH  17  19
ENDBRANCH  16  17
ENDBRANCH   1  16
TORSDOF 3
ENDMDL