MODEL 5
REMARK VINA RESULT: -5.840313114      1.104      2.449
REMARK  4 active torsions:
REMARK  status: ('A' for Active; 'I' for Inactive)
REMARK    1  A    between atoms: C2_2  and  N1_3
REMARK    2  A    between atoms: C6_7  and  C7_8
REMARK    3  A    between atoms: C7_8  and  O1_10
REMARK    4  A    between atoms: C7_8  and  C9_12
ROOT
HETATM    1  C7  UNL     1      -4.475   3.072  14.539  1.00  0.00     0.065 C
HETATM    2  C8  UNL     1      -5.271   4.351  14.932  1.00  0.00     0.047 C
ENDROOT
BRANCH   1   3
HETATM    3  C6  UNL     1      -4.157   3.139  13.142  1.00  0.00     0.048 C
HETATM    4  C5  UNL     1      -3.983   1.925  12.316  1.00  0.00     0.011 C
HETATM    5  C4  UNL     1      -4.193   2.319  10.861  1.00  0.00     0.031 C
HETATM    6  C3  UNL     1      -3.148   3.313  10.487  1.00  0.00     0.272 C
HETATM    7  N1  UNL     1      -3.005   4.410  11.394  1.00  0.00     0.088 N
HETATM    8  C14 UNL     1      -2.973   4.022  12.784  1.00  0.00     0.280 C
BRANCH   7   9
HETATM    9  C2  UNL     1      -3.896   5.512  11.142  1.00  0.00     0.268 C
HETATM   10  C1  UNL     1      -3.771   6.640  12.118  1.00  0.00     0.037 C
ENDBRANCH   7   9
ENDBRANCH   1   3
BRANCH   1  11
HETATM   11  O1  UNL     1      -3.265   3.238  15.270  1.00  0.00    -0.389 OA
ATOM     12  H1  UNL     1      -3.379   3.975  15.859  1.00  0.00     0.210 HD
ENDBRANCH   1  11
BRANCH   1  13
HETATM   13  C9  UNL     1      -5.242   2.005  15.197  1.00  0.00     0.046 C
HETATM   14  C10 UNL     1      -6.468   2.327  15.947  1.00  0.00     0.011 C
HETATM   15  C11 UNL     1      -6.420   2.058  17.428  1.00  0.00     0.028 C
HETATM   16  C12 UNL     1      -5.648   0.822  17.791  1.00  0.00     0.232 C
HETATM   17  N2  UNL     1      -5.292   0.079  16.596  1.00  0.00    -0.075 N
HETATM   18  C13 UNL     1      -4.357   0.964  15.887  1.00  0.00     0.239 C
ATOM     19  H22 UNL     1      -4.926  -0.856  16.777  1.00  0.00     0.277 HD
ATOM     20  H21 UNL     1      -6.090  -0.220  16.036  1.00  0.00     0.277 HD
ENDBRANCH   1  13
TORSDOF 4
ENDMDL