MODEL 1
REMARK VINA RESULT: -6.380906210      0.000      0.000
REMARK  3 active torsions:
REMARK  status: ('A' for Active; 'I' for Inactive)
REMARK    1  A    between atoms: N1_2  and  N2_3
REMARK    2  A    between atoms: C4_6  and  C5_7
REMARK       I    between atoms: C5_7  and  N3_9
REMARK    3  A    between atoms: N3_9  and  C6_11
ROOT
HETATM    1  C5  UNL     1      -4.044   2.470  12.363  1.00  0.00     0.223 C
HETATM    2  O1  UNL     1      -5.207   2.208  11.965  1.00  0.00    -0.273 OA
HETATM    3  N3  UNL     1      -3.809   2.406  13.768  1.00  0.00    -0.356 N
ATOM      4  H3  UNL     1      -2.875   2.614  14.121  1.00  0.00     0.162 HD
ENDROOT
BRANCH   1   5
HETATM    5  C4  UNL     1      -3.017   2.818  11.382  1.00  0.00     0.093 C
HETATM    6  C3  UNL     1      -1.908   3.669  11.982  1.00  0.00     0.031 C
HETATM    7  C2  UNL     1      -0.618   3.185  11.370  1.00  0.00     0.110 C
HETATM    8  N2  UNL     1      -0.989   2.178  10.406  1.00  0.00    -0.234 NA
HETATM    9  C13 UNL     1      -2.251   1.618  10.874  1.00  0.00     0.123 C
BRANCH   8  10
HETATM   10  N1  UNL     1      -1.216   2.711   9.135  1.00  0.00    -0.170 NA
HETATM   11  C1  UNL     1      -0.133   3.582   8.705  1.00  0.00     0.152 C
ENDBRANCH   8  10
ENDBRANCH   1   5
BRANCH   3  12
HETATM   12  C6  UNL     1      -4.853   2.056  14.709  1.00  0.00     0.084 C
HETATM   13  C7  UNL     1      -5.437   3.377  15.202  1.00  0.00     0.025 C
HETATM   14  C8  UNL     1      -6.760   3.124  15.877  1.00  0.00     0.002 C
HETATM   15  C9  UNL     1      -6.438   2.386  17.183  1.00  0.00     0.000 C
HETATM   16  C10 UNL     1      -6.513   0.894  16.862  1.00  0.00     0.000 C
HETATM   17  C11 UNL     1      -5.191   0.313  16.494  1.00  0.00     0.002 C
HETATM   18  C12 UNL     1      -4.249   1.290  15.839  1.00  0.00     0.025 C
ENDBRANCH   3  12
TORSDOF 3
ENDMDL