MODEL 4
REMARK VINA RESULT: -6.327027385      1.489      2.130
REMARK  5 active torsions:
REMARK  status: ('A' for Active; 'I' for Inactive)
REMARK    1  A    between atoms: O1_1  and  C1_3
REMARK    2  A    between atoms: C6_9  and  C7_10
REMARK    3  A    between atoms: C7_10  and  O2_11
REMARK    4  A    between atoms: C7_10  and  C8_13
REMARK    5  A    between atoms: C8_13  and  C9_14
ROOT
HETATM    1  C1  UNL     1      -2.851   1.289  11.471  1.00  0.00     0.151 C
HETATM    2  C2  UNL     1      -1.728   2.149  10.956  1.00  0.00     0.304 C
HETATM    3  N1  UNL     1      -2.076   3.568  11.104  1.00  0.00     0.091 N
HETATM    4  C3  UNL     1      -3.198   3.837  10.253  1.00  0.00     0.273 C
HETATM    5  C4  UNL     1      -4.374   2.909  10.499  1.00  0.00     0.038 C
HETATM    6  C5  UNL     1      -4.053   2.168  11.806  1.00  0.00     0.026 C
HETATM    7  C6  UNL     1      -3.744   3.212  12.827  1.00  0.00     0.049 C
HETATM    8  C14 UNL     1      -2.428   3.845  12.499  1.00  0.00     0.280 C
ENDROOT
BRANCH   7   9
HETATM    9  C7  UNL     1      -3.834   2.667  14.219  1.00  0.00     0.124 C
BRANCH   9  10
HETATM   10  O2  UNL     1      -3.132   3.376  15.159  1.00  0.00    -0.395 OA
ATOM     11  H2  UNL     1      -3.593   3.515  15.979  1.00  0.00     0.210 HD
ENDBRANCH   9  10
BRANCH   9  12
HETATM   12  C8  UNL     1      -5.267   2.556  14.691  1.00  0.00     0.037 C
BRANCH  12  13
HETATM   13  C9  UNL     1      -5.280   2.284  16.173  1.00  0.00    -0.012 C
HETATM   14  C10 UNL     1      -6.636   2.604  16.763  1.00  0.00     0.005 C
HETATM   15  C11 UNL     1      -7.290   1.237  16.789  1.00  0.00     0.000 C
HETATM   16  C12 UNL     1      -6.149   0.410  17.396  1.00  0.00     0.000 C
HETATM   17  C13 UNL     1      -5.004   0.830  16.490  1.00  0.00     0.005 C
ENDBRANCH  12  13
ENDBRANCH   9  12
ENDBRANCH   7   9
BRANCH   1  18
HETATM   18  O1  UNL     1      -3.270   0.494  10.379  1.00  0.00    -0.393 OA
ATOM     19  H1  UNL     1      -2.632   0.636   9.688  1.00  0.00     0.210 HD
ENDBRANCH   1  18
TORSDOF 5
ENDMDL