MODEL 1
REMARK VINA RESULT: -6.894374569      0.000      0.000
REMARK  3 active torsions:
REMARK  status: ('A' for Active; 'I' for Inactive)
REMARK    1  A    between atoms: N1_2  and  C3_4
REMARK    2  A    between atoms: C3_4  and  C4_5
REMARK    3  A    between atoms: C9_12  and  C10_13
ROOT
HETATM    1  C4  UNL     1      -3.746   2.069  12.053  1.00  0.00     0.122 C
HETATM    2  C5  UNL     1      -3.295   3.128  11.134  1.00  0.00     0.145 C
HETATM    3  N2  UNL     1      -2.472   4.238  11.697  1.00  0.00    -0.400 N
ATOM      4  H2  UNL     1      -1.820   4.849  11.207  1.00  0.00     0.158 HD
HETATM    5  C6  UNL     1      -2.791   4.243  13.006  1.00  0.00     0.055 C
HETATM    6  C7  UNL     1      -2.758   4.638  14.351  1.00  0.00     0.046 C
HETATM    7  C8  UNL     1      -3.614   3.531  15.052  1.00  0.00     0.030 C
HETATM    8  C9  UNL     1      -4.627   2.877  14.260  1.00  0.00     0.081 C
HETATM    9  N3  UNL     1      -4.546   2.092  13.129  1.00  0.00    -0.409 N
ATOM     10  H3  UNL     1      -5.258   1.363  13.105  1.00  0.00     0.154 HD
ENDROOT
BRANCH   8  11
HETATM   11  C10 UNL     1      -5.421   1.998  15.223  1.00  0.00     0.008 C
HETATM   12  C11 UNL     1      -4.539   1.341  16.274  1.00  0.00     0.007 C
HETATM   13  C12 UNL     1      -5.605   0.668  17.135  1.00  0.00     0.000 C
HETATM   14  C13 UNL     1      -6.875   1.496  16.955  1.00  0.00     0.000 C
HETATM   15  C14 UNL     1      -6.411   2.678  16.077  1.00  0.00     0.007 C
ENDBRANCH   8  11
BRANCH   1  16
HETATM   16  C3  UNL     1      -4.407   1.090  11.027  1.00  0.00     0.297 C
BRANCH  16  17
HETATM   17  N1  UNL     1      -3.605  -0.046  10.805  1.00  0.00     0.082 N
HETATM   18  C1  UNL     1      -3.988  -1.171  11.623  1.00  0.00     0.309 C
HETATM   19  C2  UNL     1      -2.186   0.169  10.970  1.00  0.00     0.309 C
ENDBRANCH  16  17
ENDBRANCH   1  16
TORSDOF 3
ENDMDL