MODEL 4
REMARK VINA RESULT: -6.095862135      3.146      6.690
REMARK  3 active torsions:
REMARK  status: ('A' for Active; 'I' for Inactive)
REMARK    1  A    between atoms: C4_4  and  N1_5
REMARK    2  A    between atoms: C7_8  and  N2_9
REMARK    3  A    between atoms: N2_9  and  C8_11
ROOT
HETATM    1  N1  UNL     1      -5.250   5.587  13.525  1.00  0.00     0.093 N
HETATM    2  C5  UNL     1      -6.342   4.654  13.710  1.00  0.00     0.275 C
HETATM    3  C6  UNL     1      -5.747   3.233  13.728  1.00  0.00     0.055 C
HETATM    4  C7  UNL     1      -4.787   3.292  14.953  1.00  0.00     0.080 C
HETATM    5  C11 UNL     1      -3.595   4.015  14.441  1.00  0.00     0.055 C
HETATM    6  C12 UNL     1      -3.969   5.022  13.347  1.00  0.00     0.275 C
ENDROOT
BRANCH   4   7
HETATM    7  N2  UNL     1      -4.679   2.063  15.589  1.00  0.00    -0.410 N
ATOM      8  H2  UNL     1      -4.130   1.339  15.126  1.00  0.00     0.154 HD
BRANCH   7   9
HETATM    9  C8  UNL     1      -5.263   1.745  16.812  1.00  0.00     0.128 C
HETATM   10  C9  UNL     1      -6.627   2.294  17.039  1.00  0.00     0.258 C
HETATM   11  N3  UNL     1      -7.179   0.928  17.085  1.00  0.00    -0.071 N
HETATM   12  C10 UNL     1      -5.866   0.393  17.028  1.00  0.00     0.258 C
ATOM     13  H32 UNL     1      -7.807   0.657  17.842  1.00  0.00     0.277 HD
ATOM     14  H31 UNL     1      -7.877   0.637  16.400  1.00  0.00     0.277 HD
ENDBRANCH   7   9
ENDBRANCH   4   7
BRANCH   1  15
HETATM   15  C4  UNL     1      -5.559   6.559  12.492  1.00  0.00     0.223 C
HETATM   16  C3  UNL     1      -5.095   6.152  11.140  1.00  0.00     0.036 C
HETATM   17  C2  UNL     1      -5.270   7.311  10.190  1.00  0.00     0.002 C
HETATM   18  C1  UNL     1      -6.684   7.813  10.208  1.00  0.00     0.000 C
HETATM   19  C14 UNL     1      -7.211   8.068  11.580  1.00  0.00     0.002 C
HETATM   20  C13 UNL     1      -7.036   6.828  12.461  1.00  0.00     0.036 C
ENDBRANCH   1  15
TORSDOF 3
ENDMDL