MODEL 5
REMARK VINA RESULT: -6.152414090      1.505      2.203
REMARK  5 active torsions:
REMARK  status: ('A' for Active; 'I' for Inactive)
REMARK    1  A    between atoms: C5_5  and  O1_6
REMARK    2  A    between atoms: C10_12  and  C11_13
REMARK    3  A    between atoms: C12_14  and  C13_15
REMARK    4  A    between atoms: C13_15  and  C14_17
REMARK    5  A    between atoms: C14_17  and  O3_18
ROOT
HETATM    1  C1  UNL     1      -6.178   4.458  13.649  1.00  0.00     0.016 C
HETATM    2  C2  UNL     1      -4.685   4.381  13.864  1.00  0.00    -0.033 C
HETATM    3  C3  UNL     1      -4.179   5.548  14.634  1.00  0.00     0.012 C
HETATM    4  C4  UNL     1      -3.305   6.470  13.799  1.00  0.00     0.032 C
HETATM    5  C5  UNL     1      -4.038   6.838  12.515  1.00  0.00     0.118 C
HETATM    6  C6  UNL     1      -4.290   5.609  11.687  1.00  0.00     0.037 C
HETATM    7  C7  UNL     1      -3.985   4.400  12.480  1.00  0.00    -0.003 C
HETATM    8  C8  UNL     1      -4.488   3.118  11.910  1.00  0.00     0.006 C
HETATM    9  C9  UNL     1      -4.343   2.155  13.069  1.00  0.00     0.010 C
HETATM   10  C10 UNL     1      -4.185   3.050  14.314  1.00  0.00     0.017 C
ENDROOT
BRANCH  10  11
HETATM   11  C11 UNL     1      -4.830   2.398  15.427  1.00  0.00    -0.018 C
HETATM   12  C12 UNL     1      -4.869   1.150  15.785  1.00  0.00     0.049 C
BRANCH  12  13
HETATM   13  C13 UNL     1      -5.623   0.776  16.995  1.00  0.00     0.172 C
HETATM   14  O2  UNL     1      -5.605  -0.422  17.420  1.00  0.00    -0.291 OA
BRANCH  13  15
HETATM   15  C14 UNL     1      -6.422   1.745  17.767  1.00  0.00     0.246 C
BRANCH  15  16
HETATM   16  O3  UNL     1      -5.978   1.903  19.055  1.00  0.00    -0.393 OA
ATOM     17  H3  UNL     1      -5.335   2.596  19.144  1.00  0.00     0.209 HD
ENDBRANCH  15  16
ENDBRANCH  13  15
ENDBRANCH  12  13
ENDBRANCH  10  11
BRANCH   5  18
HETATM   18  O1  UNL     1      -3.281   7.799  11.841  1.00  0.00    -0.396 OA
ATOM     19  H1  UNL     1      -3.554   7.807  10.931  1.00  0.00     0.210 HD
ENDBRANCH   5  18
TORSDOF 5
ENDMDL