MODEL 5
REMARK VINA RESULT: -6.057869075      2.751      4.903
REMARK  3 active torsions:
REMARK  status: ('A' for Active; 'I' for Inactive)
REMARK    1  A    between atoms: C1_2  and  C2_4
REMARK    2  A    between atoms: C7_12  and  C8_13
REMARK    3  A    between atoms: C8_13  and  N2_14
ROOT
HETATM    1  C2  UNL     1      -3.770   3.791  13.988  1.00  0.00     0.125 C
HETATM    2  C3  UNL     1      -4.044   5.225  14.433  1.00  0.00     0.201 C
HETATM    3  C4  UNL     1      -5.487   5.287  14.873  1.00  0.00     0.036 C
HETATM    4  C5  UNL     1      -6.211   5.087  13.543  1.00  0.00     0.035 C
HETATM    5  C6  UNL     1      -5.121   5.043  12.535  1.00  0.00     0.193 C
HETATM    6  N1  UNL     1      -4.144   5.961  13.159  1.00  0.00    -0.065 N
ATOM      7  H11 UNL     1      -3.278   6.146  12.651  1.00  0.00     0.278 HD
ATOM      8  H12 UNL     1      -4.387   6.950  13.203  1.00  0.00     0.278 HD
HETATM    9  C7  UNL     1      -4.267   3.776  12.606  1.00  0.00     0.061 C
ENDROOT
BRANCH   9  10
HETATM   10  C8  UNL     1      -4.919   2.579  12.085  1.00  0.00     0.280 C
BRANCH  10  11
HETATM   11  N2  UNL     1      -4.131   1.967  11.031  1.00  0.00     0.088 N
HETATM   12  C9  UNL     1      -2.765   1.698  11.509  1.00  0.00     0.272 C
HETATM   13  C10 UNL     1      -2.144   0.683  10.596  1.00  0.00     0.030 C
HETATM   14  C11 UNL     1      -2.650  -0.674  11.115  1.00  0.00     0.003 C
HETATM   15  C12 UNL     1      -4.065  -0.428  11.615  1.00  0.00     0.030 C
HETATM   16  C13 UNL     1      -4.668   0.640  10.696  1.00  0.00     0.272 C
ENDBRANCH  10  11
ENDBRANCH   9  10
BRANCH   1  17
HETATM   17  C1  UNL     1      -4.365   2.921  14.975  1.00  0.00     0.179 C
HETATM   18  O1  UNL     1      -5.573   2.635  15.156  1.00  0.00    -0.648 OA
HETATM   19  O2  UNL     1      -3.512   2.294  15.870  1.00  0.00    -0.648 OA
ENDBRANCH   1  17
TORSDOF 3
ENDMDL