MODEL 4
REMARK VINA RESULT: -6.127955293      1.238      2.122
REMARK  3 active torsions:
REMARK  status: ('A' for Active; 'I' for Inactive)
REMARK    1  A    between atoms: C6_6  and  N1_7
REMARK    2  A    between atoms: C9_11  and  C10_12
REMARK    3  A    between atoms: C14_16  and  O1_17
ROOT
HETATM    1  N1  UNL     1      -4.937   3.739  12.542  1.00  0.00    -0.380 N
HETATM    2  C7  UNL     1      -5.903   3.861  13.567  1.00  0.00     0.139 C
HETATM    3  C8  UNL     1      -5.175   3.440  14.870  1.00  0.00     0.141 C
HETATM    4  N2  UNL     1      -5.097   2.081  14.827  1.00  0.00    -0.387 N
HETATM    5  C9  UNL     1      -4.993   1.131  15.786  1.00  0.00     0.063 C
HETATM    6  C13 UNL     1      -4.110   1.744  13.772  1.00  0.00     0.175 C
HETATM    7  C14 UNL     1      -4.081   2.647  12.614  1.00  0.00     0.234 C
ENDROOT
BRANCH   1   8
HETATM    8  C6  UNL     1      -4.611   4.925  11.916  1.00  0.00     0.085 C
HETATM    9  C2  UNL     1      -3.206   5.344  12.308  1.00  0.00     0.004 C
HETATM   10  C1  UNL     1      -2.277   5.502  11.138  1.00  0.00     0.012 C
HETATM   11  C3  UNL     1      -3.434   6.724  12.939  1.00  0.00     0.006 C
HETATM   12  C4  UNL     1      -4.505   7.265  11.979  1.00  0.00     0.002 C
HETATM   13  C5  UNL     1      -5.501   6.103  12.062  1.00  0.00     0.025 C
ENDBRANCH   1   8
BRANCH   7  14
HETATM   14  O1  UNL     1      -4.340   1.849  11.462  1.00  0.00    -0.375 OA
ATOM     15  H1  UNL     1      -3.503   1.706  11.037  1.00  0.00     0.212 HD
ENDBRANCH   7  14
BRANCH   5  16
HETATM   16  C10 UNL     1      -5.943   0.702  16.791  1.00  0.00     0.024 A
HETATM   17  C11 UNL     1      -6.133   1.690  17.957  1.00  0.00     0.010 A
HETATM   18  C12 UNL     1      -7.265   1.124  17.148  1.00  0.00     0.010 A
ENDBRANCH   5  16
TORSDOF 3
ENDMDL