MODEL 4
REMARK VINA RESULT: -5.549287696      2.229      4.136
REMARK  4 active torsions:
REMARK  status: ('A' for Active; 'I' for Inactive)
REMARK    1  A    between atoms: N1_2  and  C3_4
REMARK    2  A    between atoms: C3_4  and  C4_5
REMARK    3  A    between atoms: C5_6  and  C6_7
REMARK    4  A    between atoms: C6_7  and  O1_8
ROOT
HETATM    1  C4  UNL     1      -3.820   3.615  12.957  1.00  0.00     0.072 C
HETATM    2  C5  UNL     1      -2.577   4.376  13.145  1.00  0.00     0.037 C
HETATM    3  C7  UNL     1      -2.005   4.986  11.853  1.00  0.00     0.134 C
HETATM    4  N2  UNL     1      -1.167   3.926  11.342  1.00  0.00    -0.338 N
HETATM    5  C8  UNL     1       0.229   4.249  11.239  1.00  0.00     0.154 C
HETATM    6  C9  UNL     1      -1.545   2.631  10.941  1.00  0.00     0.321 C
HETATM    7  O2  UNL     1      -0.774   1.977  10.188  1.00  0.00    -0.247 OA
HETATM    8  N3  UNL     1      -2.780   2.002  11.349  1.00  0.00    -0.305 N
HETATM    9  C10 UNL     1      -2.955   0.768  10.567  1.00  0.00     0.131 C
HETATM   10  C11 UNL     1      -4.054  -0.070  11.122  1.00  0.00     0.047 C
HETATM   11  C12 UNL     1      -4.164  -0.057  12.607  1.00  0.00     0.236 C
HETATM   12  N4  UNL     1      -3.812   1.180  13.240  1.00  0.00    -0.053 N
ATOM     13  H41 UNL     1      -2.926   1.099  13.739  1.00  0.00     0.279 HD
ATOM     14  H42 UNL     1      -4.425   1.377  14.031  1.00  0.00     0.279 HD
HETATM   15  C13 UNL     1      -3.789   2.307  12.289  1.00  0.00     0.296 C
ENDROOT
BRANCH   1  16
HETATM   16  C3  UNL     1      -4.426   3.371  14.343  1.00  0.00     0.280 C
BRANCH  16  17
HETATM   17  N1  UNL     1      -5.881   3.417  14.321  1.00  0.00     0.080 N
HETATM   18  C1  UNL     1      -6.297   4.744  14.016  1.00  0.00     0.309 C
HETATM   19  C2  UNL     1      -6.285   3.049  15.679  1.00  0.00     0.309 C
ENDBRANCH  16  17
ENDBRANCH   1  16
BRANCH   2  20
HETATM   20  C6  UNL     1      -2.796   5.560  14.057  1.00  0.00     0.170 C
BRANCH  20  21
HETATM   21  O1  UNL     1      -3.252   6.676  13.292  1.00  0.00    -0.400 OA
ATOM     22  H1  UNL     1      -4.118   6.931  13.584  1.00  0.00     0.209 HD
ENDBRANCH  20  21
ENDBRANCH   2  20
TORSDOF 4
ENDMDL