MODEL 1
REMARK VINA RESULT: -6.553999259      0.000      0.000
REMARK  5 active torsions:
REMARK  status: ('A' for Active; 'I' for Inactive)
REMARK    1  A    between atoms: O1_2  and  C2_3
REMARK    2  A    between atoms: C11_14  and  O2_15
REMARK    3  A    between atoms: C11_14  and  C12_17
REMARK    4  A    between atoms: C12_17  and  C14_19
REMARK    5  A    between atoms: C14_19  and  O3_20
ROOT
HETATM    1  C2  UNL     1      -3.941   3.527  10.597  1.00  0.00     0.200 C
HETATM    2  C3  UNL     1      -4.010   4.845  11.413  1.00  0.00     0.295 C
HETATM    3  N1  UNL     1      -3.842   4.349  12.726  1.00  0.00     0.006 N
HETATM    4  C4  UNL     1      -3.626   5.328  13.750  1.00  0.00     0.264 C
HETATM    5  C5  UNL     1      -4.402   4.876  14.985  1.00  0.00     0.015 C
HETATM    6  C6  UNL     1      -5.796   5.416  14.803  1.00  0.00     0.008 C
HETATM    7  C7  UNL     1      -6.134   4.774  13.449  1.00  0.00     0.036 C
HETATM    8  C8  UNL     1      -5.089   3.745  13.169  1.00  0.00     0.210 C
HETATM    9  C9  UNL     1      -4.655   3.406  14.610  1.00  0.00     0.041 C
HETATM   10  N2  UNL     1      -2.796   3.469  12.616  1.00  0.00    -0.110 NA
HETATM   11  C10 UNL     1      -1.518   4.116  12.753  1.00  0.00     0.147 C
HETATM   12  C11 UNL     1      -2.885   2.776  11.345  1.00  0.00     0.171 C
ENDROOT
BRANCH  12  13
HETATM   13  O2  UNL     1      -1.713   2.934  10.591  1.00  0.00    -0.371 OA
ATOM     14  H2  UNL     1      -1.707   2.204   9.983  1.00  0.00     0.212 HD
ENDBRANCH  12  13
BRANCH  12  15
HETATM   15  C12 UNL     1      -3.099   1.310  11.504  1.00  0.00     0.059 C
HETATM   16  C13 UNL     1      -2.086   0.502  10.673  1.00  0.00     0.017 C
BRANCH  15  17
HETATM   17  C14 UNL     1      -4.443   0.820  11.015  1.00  0.00     0.172 C
BRANCH  17  18
HETATM   18  O3  UNL     1      -4.229   0.257   9.731  1.00  0.00    -0.400 OA
ATOM     19  H3  UNL     1      -3.773  -0.566   9.866  1.00  0.00     0.209 HD
ENDBRANCH  17  18
ENDBRANCH  15  17
ENDBRANCH  12  15
BRANCH   1  20
HETATM   20  O1  UNL     1      -3.602   3.840   9.282  1.00  0.00    -0.384 OA
HETATM   21  C1  UNL     1      -3.520   5.182   9.012  1.00  0.00     0.202 C
ENDBRANCH   1  20
TORSDOF 5
ENDMDL