MODEL 3
REMARK VINA RESULT: -6.333604692      2.470      4.728
REMARK  6 active torsions:
REMARK  status: ('A' for Active; 'I' for Inactive)
REMARK    1  A    between atoms: C3_3  and  O1_4
REMARK    2  A    between atoms: C3_3  and  C4_6
REMARK    3  A    between atoms: C5_7  and  C6_8
REMARK    4  A    between atoms: C6_8  and  C7_9
REMARK    5  A    between atoms: C6_8  and  C11_16
REMARK       I    between atoms: C7_9  and  N1_11
REMARK    6  A    between atoms: N1_11  and  C8_13
ROOT
HETATM    1  C1  UNL     1      -7.015   7.688  11.624  1.00  0.00     0.015 C
HETATM    2  C2  UNL     1      -6.385   7.201  10.714  1.00  0.00    -0.073 C
HETATM    3  C3  UNL     1      -5.615   6.595   9.625  1.00  0.00     0.276 C
ENDROOT
BRANCH   3   4
HETATM    4  O1  UNL     1      -6.437   5.881   8.765  1.00  0.00    -0.372 OA
ATOM      5  H1  UNL     1      -5.972   5.629   7.976  1.00  0.00     0.212 HD
ENDBRANCH   3   4
BRANCH   3   6
HETATM    6  C4  UNL     1      -4.620   5.716  10.266  1.00  0.00    -0.061 C
HETATM    7  C5  UNL     1      -3.806   4.999  10.803  1.00  0.00    -0.086 C
BRANCH   7   8
HETATM    8  C6  UNL     1      -2.829   4.135  11.471  1.00  0.00     0.187 C
BRANCH   8   9
HETATM    9  C7  UNL     1      -3.206   4.099  12.911  1.00  0.00     0.236 C
HETATM   10  O2  UNL     1      -2.266   3.979  13.758  1.00  0.00    -0.272 OA
HETATM   11  N1  UNL     1      -4.564   4.195  13.324  1.00  0.00    -0.356 N
ATOM     12  H1  UNL     1      -5.313   4.291  12.638  1.00  0.00     0.162 HD
BRANCH  11  13
HETATM   13  C8  UNL     1      -4.855   4.153  14.735  1.00  0.00     0.076 C
HETATM   14  C9  UNL     1      -5.455   2.828  15.153  1.00  0.00     0.032 C
HETATM   15  C10 UNL     1      -5.865   5.240  15.032  1.00  0.00     0.032 C
ENDBRANCH  11  13
ENDBRANCH   8   9
BRANCH   8  16
HETATM   16  C11 UNL     1      -2.842   2.778  10.871  1.00  0.00     0.174 C
HETATM   17  C12 UNL     1      -4.164   2.114  10.807  1.00  0.00     0.305 C
HETATM   18  N2  UNL     1      -4.105   0.708  11.155  1.00  0.00     0.088 N
HETATM   19  C13 UNL     1      -4.185   0.460  12.559  1.00  0.00     0.310 C
HETATM   20  C14 UNL     1      -2.962   0.124  10.514  1.00  0.00     0.298 C
HETATM   21  C15 UNL     1      -1.678   0.777  10.961  1.00  0.00     0.198 C
HETATM   22  O3  UNL     1      -1.864   2.009  11.537  1.00  0.00    -0.381 OA
ENDBRANCH   8  16
ENDBRANCH   7   8
ENDBRANCH   3   6
TORSDOF 6
ENDMDL