MODEL 3
REMARK VINA RESULT: -6.515566494      1.294      2.561
REMARK  5 active torsions:
REMARK  status: ('A' for Active; 'I' for Inactive)
REMARK    1  A    between atoms: C2_2  and  C3_3
REMARK    2  A    between atoms: C3_3  and  C4_4
REMARK    3  A    between atoms: C3_3  and  N2_15
REMARK       I    between atoms: C4_4  and  N1_6
REMARK    4  A    between atoms: C6_8  and  O2_9
REMARK    5  A    between atoms: C7_11  and  O3_12
ROOT
HETATM    1  C4  UNL     1      -5.101   2.832  13.399  1.00  0.00     0.242 C
HETATM    2  O1  UNL     1      -6.053   3.626  13.035  1.00  0.00    -0.271 OA
HETATM    3  N1  UNL     1      -5.086   2.478  14.760  1.00  0.00    -0.345 N
HETATM    4  C5  UNL     1      -4.246   1.620  15.556  1.00  0.00     0.160 C
HETATM    5  C6  UNL     1      -5.181   1.042  16.625  1.00  0.00     0.166 C
HETATM    6  C7  UNL     1      -6.515   1.718  16.382  1.00  0.00     0.166 C
HETATM    7  C8  UNL     1      -6.052   3.005  15.738  1.00  0.00     0.160 C
ENDROOT
BRANCH   1   8
HETATM    8  C3  UNL     1      -4.205   2.439  12.329  1.00  0.00     0.171 C
BRANCH   8   9
HETATM    9  C2  UNL     1      -4.910   1.456  11.404  1.00  0.00     0.030 C
HETATM   10  C1  UNL     1      -4.216   0.141  11.298  1.00  0.00     0.007 C
ENDBRANCH   8   9
BRANCH   8  11
HETATM   11  N2  UNL     1      -3.450   3.348  11.622  1.00  0.00    -0.400 N
HETATM   12  C9  UNL     1      -3.859   3.928  10.423  1.00  0.00     0.118 C
HETATM   13  C10 UNL     1      -2.961   5.151  10.164  1.00  0.00     0.020 C
HETATM   14  C11 UNL     1      -1.576   4.636   9.809  1.00  0.00     0.007 C
HETATM   15  C12 UNL     1      -1.160   3.599  10.831  1.00  0.00    -0.001 C
HETATM   16  C13 UNL     1      -0.894   2.267  10.198  1.00  0.00     0.011 C
HETATM   17  C14 UNL     1      -2.091   3.548  12.004  1.00  0.00     0.122 C
ENDBRANCH   8  11
ENDBRANCH   1   8
BRANCH   5  18
HETATM   18  O2  UNL     1      -5.259  -0.331  16.418  1.00  0.00    -0.391 OA
ATOM     19  H2  UNL     1      -5.034  -0.499  15.511  1.00  0.00     0.210 HD
ENDBRANCH   5  18
BRANCH   6  20
HETATM   20  O3  UNL     1      -7.198   1.946  17.572  1.00  0.00    -0.391 OA
ATOM     21  H3  UNL     1      -8.139   1.901  17.449  1.00  0.00     0.210 HD
ENDBRANCH   6  20
TORSDOF 5
ENDMDL