MODEL 1
REMARK VINA RESULT: -6.131611875      0.000      0.000
REMARK  5 active torsions:
REMARK  status: ('A' for Active; 'I' for Inactive)
REMARK       I    between atoms: N1_5  and  C5_6
REMARK       I    between atoms: C5_6  and  N2_8
REMARK    1  A    between atoms: N3_11  and  C8_12
REMARK    2  A    between atoms: C8_12  and  C9_13
REMARK    3  A    between atoms: C9_13  and  O2_14
REMARK    4  A    between atoms: C12_18  and  C13_19
REMARK    5  A    between atoms: C13_19  and  O3_20
ROOT
HETATM    1  C1  UNL     1      -3.721   6.763  10.489  1.00  0.00     0.018 C
HETATM    2  C2  UNL     1      -3.246   6.656  11.901  1.00  0.00    -0.009 C
HETATM    3  C3  UNL     1      -2.597   7.919  12.405  1.00  0.00     0.018 C
HETATM    4  C4  UNL     1      -4.213   6.072  12.883  1.00  0.00     0.139 C
HETATM    5  N1  UNL     1      -3.765   4.740  12.420  1.00  0.00    -0.326 N
HETATM    6  C5  UNL     1      -4.465   3.521  12.303  1.00  0.00     0.321 C
HETATM    7  O1  UNL     1      -5.691   3.506  12.654  1.00  0.00    -0.247 OA
HETATM    8  N2  UNL     1      -3.914   2.310  11.822  1.00  0.00    -0.331 N
HETATM    9  C6  UNL     1      -4.809   1.158  11.783  1.00  0.00     0.158 C
HETATM   10  C7  UNL     1      -4.259   0.209  10.739  1.00  0.00     0.292 C
HETATM   11  N3  UNL     1      -2.960  -0.182  11.192  1.00  0.00     0.093 N
HETATM   12  C10 UNL     1      -2.001   0.873  11.172  1.00  0.00     0.292 C
HETATM   13  C11 UNL     1      -2.549   2.248  11.396  1.00  0.00     0.158 C
HETATM   14  C12 UNL     1      -2.477   5.366  12.230  1.00  0.00     0.121 C
ENDROOT
BRANCH  14  15
HETATM   15  C13 UNL     1      -1.603   5.506  13.453  1.00  0.00     0.190 C
BRANCH  15  16
HETATM   16  O3  UNL     1      -1.127   4.204  13.744  1.00  0.00    -0.399 OA
ATOM     17  H3  UNL     1      -0.428   4.317  14.377  1.00  0.00     0.209 HD
ENDBRANCH  15  16
ENDBRANCH  14  15
BRANCH  11  18
HETATM   18  C8  UNL     1      -2.463  -1.410  10.672  1.00  0.00     0.298 C
BRANCH  18  19
HETATM   19  C9  UNL     1      -3.131  -2.556  11.399  1.00  0.00     0.194 C
BRANCH  19  20
HETATM   20  O2  UNL     1      -2.488  -3.757  11.029  1.00  0.00    -0.399 OA
ATOM     21  H2  UNL     1      -2.680  -4.417  11.685  1.00  0.00     0.209 HD
ENDBRANCH  19  20
ENDBRANCH  18  19
ENDBRANCH  11  18
TORSDOF 5
ENDMDL