MODEL 5
REMARK VINA RESULT: -6.300184827      1.286      1.647
REMARK  4 active torsions:
REMARK  status: ('A' for Active; 'I' for Inactive)
REMARK    1  A    between atoms: N1_2  and  C2_3
REMARK    2  A    between atoms: N1_2  and  C10_16
REMARK    3  A    between atoms: C2_3  and  C3_4
REMARK       I    between atoms: C3_4  and  N2_6
REMARK    4  A    between atoms: C13_19  and  O2_20
ROOT
HETATM    1  C3  UNL     1      -4.115   3.724  12.328  1.00  0.00     0.248 C
HETATM    2  O1  UNL     1      -4.834   3.925  11.317  1.00  0.00    -0.271 OA
HETATM    3  N2  UNL     1      -2.946   4.498  12.471  1.00  0.00    -0.344 N
HETATM    4  C4  UNL     1      -1.899   4.534  13.488  1.00  0.00     0.133 C
HETATM    5  C5  UNL     1      -0.971   5.160  12.502  1.00  0.00     0.030 C
HETATM    6  C6  UNL     1      -0.229   4.223  11.578  1.00  0.00     0.036 C
HETATM    7  C7  UNL     1       0.244   5.079  10.401  1.00  0.00     0.233 C
HETATM    8  N3  UNL     1      -0.863   5.745   9.752  1.00  0.00    -0.073 N
ATOM      9  H31 UNL     1      -0.841   5.589   8.744  1.00  0.00     0.277 HD
ATOM     10  H32 UNL     1      -0.737   6.757   9.766  1.00  0.00     0.277 HD
HETATM   11  C8  UNL     1      -2.145   5.379  10.301  1.00  0.00     0.257 C
HETATM   12  C9  UNL     1      -2.241   5.551  11.775  1.00  0.00     0.118 C
ENDROOT
BRANCH   1  13
HETATM   13  C2  UNL     1      -4.524   2.694  13.316  1.00  0.00     0.374 C
BRANCH  13  14
HETATM   14  N1  UNL     1      -4.975   3.234  14.560  1.00  0.00     0.097 N
HETATM   15  C1  UNL     1      -5.894   4.340  14.389  1.00  0.00     0.310 C
BRANCH  14  16
HETATM   16  C10 UNL     1      -5.647   2.196  15.309  1.00  0.00     0.225 C
HETATM   17  C11 UNL     1      -6.642   2.777  16.314  1.00  0.00     0.038 C
HETATM   18  C12 UNL     1      -6.961   1.493  17.099  1.00  0.00     0.034 C
HETATM   19  C13 UNL     1      -5.577   0.981  17.389  1.00  0.00     0.120 C
HETATM   20  C14 UNL     1      -4.684   1.515  16.282  1.00  0.00     0.067 C
BRANCH  19  21
HETATM   21  O2  UNL     1      -5.610  -0.407  17.376  1.00  0.00    -0.396 OA
ATOM     22  H2  UNL     1      -5.503  -0.718  18.267  1.00  0.00     0.210 HD
ENDBRANCH  19  21
ENDBRANCH  14  16
ENDBRANCH  13  14
ENDBRANCH   1  13
TORSDOF 4
ENDMDL