MODEL 2
REMARK VINA RESULT: -5.905870444      2.305      6.880
REMARK  5 active torsions:
REMARK  status: ('A' for Active; 'I' for Inactive)
REMARK    1  A    between atoms: O1_2  and  C2_3
REMARK       I    between atoms: C2_3  and  N1_5
REMARK    2  A    between atoms: C5_8  and  N2_9
REMARK       I    between atoms: N2_9  and  C6_11
REMARK       I    between atoms: C6_11  and  N4_18
REMARK    3  A    between atoms: N3_12  and  C7_14
REMARK    4  A    between atoms: C7_14  and  C8_15
REMARK    5  A    between atoms: C8_15  and  O3_16
ROOT
HETATM    1  N2  UNL     1      -4.376   2.399  12.346  1.00  0.00    -0.222 N
ATOM      2  H2  UNL     1      -5.216   2.059  11.878  1.00  0.00     0.178 HD
HETATM    3  C6  UNL     1      -4.513   2.679  13.721  1.00  0.00     0.671 C
HETATM    4  N3  UNL     1      -4.116   1.828  14.574  1.00  0.00    -0.224 N
ATOM      5  H3  UNL     1      -3.718   0.980  14.172  1.00  0.00     0.177 HD
HETATM    6  N4  UNL     1      -5.131   3.860  14.135  1.00  0.00    -0.227 N
HETATM    7  C9  UNL     1      -6.556   4.071  13.905  1.00  0.00     0.168 C
HETATM    8  C10 UNL     1      -4.414   4.914  14.803  1.00  0.00     0.168 C
ENDROOT
BRANCH   1   9
HETATM    9  C5  UNL     1      -3.221   2.527  11.524  1.00  0.00     0.102 C
HETATM   10  C4  UNL     1      -2.301   3.576  12.115  1.00  0.00     0.045 C
HETATM   11  C3  UNL     1      -0.874   3.363  11.683  1.00  0.00     0.130 C
HETATM   12  N1  UNL     1      -0.844   2.769  10.366  1.00  0.00    -0.328 N
HETATM   13  C2  UNL     1      -0.280   3.448   9.246  1.00  0.00     0.362 C
HETATM   14  C12 UNL     1      -1.413   1.447  10.239  1.00  0.00     0.130 C
HETATM   15  O2  UNL     1      -0.271   2.897   8.109  1.00  0.00    -0.238 OA
HETATM   16  C11 UNL     1      -2.396   1.271  11.383  1.00  0.00     0.045 C
BRANCH  13  17
HETATM   17  O1  UNL     1       0.257   4.701   9.375  1.00  0.00    -0.309 OA
HETATM   18  C1  UNL     1       1.675   4.919   9.396  1.00  0.00     0.215 C
ENDBRANCH  13  17
ENDBRANCH   1   9
BRANCH   4  19
HETATM   19  C7  UNL     1      -4.132   1.853  15.987  1.00  0.00     0.164 C
BRANCH  19  20
HETATM   20  C8  UNL     1      -5.373   1.228  16.585  1.00  0.00     0.184 C
BRANCH  20  21
HETATM   21  O3  UNL     1      -5.445  -0.125  16.372  1.00  0.00    -0.399 OA
ATOM     22  H3  UNL     1      -4.700  -0.595  16.727  1.00  0.00     0.209 HD
ENDBRANCH  20  21
ENDBRANCH  19  20
ENDBRANCH   4  19
TORSDOF 5
ENDMDL