MODEL 1
REMARK VINA RESULT: -6.536969831      0.000      0.000
REMARK  4 active torsions:
REMARK  status: ('A' for Active; 'I' for Inactive)
REMARK    1  A    between atoms: C5_5  and  C6_6
REMARK       I    between atoms: C6_6  and  N1_8
REMARK    2  A    between atoms: N2_11  and  C9_12
REMARK    3  A    between atoms: C9_12  and  C10_13
REMARK    4  A    between atoms: C10_13  and  O2_14
ROOT
HETATM    1  C6  UNL     1      -1.841   3.362  11.633  1.00  0.00     0.251 C
HETATM    2  O1  UNL     1      -0.654   3.482  11.353  1.00  0.00    -0.271 OA
HETATM    3  N1  UNL     1      -2.465   2.078  11.524  1.00  0.00    -0.344 N
HETATM    4  C7  UNL     1      -1.618   1.017  10.964  1.00  0.00     0.146 C
HETATM    5  C8  UNL     1      -2.470  -0.107  10.506  1.00  0.00     0.141 C
HETATM    6  N2  UNL     1      -3.281  -0.542  11.611  1.00  0.00    -0.388 N
HETATM    7  C11 UNL     1      -4.212   0.411  12.032  1.00  0.00     0.078 C
HETATM    8  C12 UNL     1      -3.795   1.839  11.928  1.00  0.00     0.170 C
ENDROOT
BRANCH   1   9
HETATM    9  C5  UNL     1      -2.560   4.599  12.046  1.00  0.00     0.278 C
HETATM   10  C4  UNL     1      -2.183   4.636  13.595  1.00  0.00     0.048 C
HETATM   11  C3  UNL     1      -2.443   5.971  14.173  1.00  0.00    -0.005 C
HETATM   12  C2  UNL     1      -1.415   6.960  13.636  1.00  0.00     0.016 C
HETATM   13  C14 UNL     1      -3.462   6.740  13.338  1.00  0.00     0.038 C
HETATM   14  C1  UNL     1      -1.548   8.287  14.329  1.00  0.00     0.012 C
HETATM   15  C13 UNL     1      -2.284   6.972  12.394  1.00  0.00     0.191 C
HETATM   16  N3  UNL     1      -1.991   5.832  11.573  1.00  0.00    -0.058 N
ATOM     17  H32 UNL     1      -0.983   5.734  11.446  1.00  0.00     0.278 HD
ATOM     18  H31 UNL     1      -2.271   6.007  10.608  1.00  0.00     0.278 HD
ENDBRANCH   1   9
BRANCH   6  19
HETATM   19  C9  UNL     1      -3.743  -1.876  11.533  1.00  0.00     0.148 C
BRANCH  19  20
HETATM   20  C10 UNL     1      -2.678  -2.841  11.154  1.00  0.00     0.183 C
BRANCH  20  21
HETATM   21  O2  UNL     1      -2.986  -4.151  11.483  1.00  0.00    -0.399 OA
ATOM     22  H2  UNL     1      -2.796  -4.768  10.786  1.00  0.00     0.209 HD
ENDBRANCH  20  21
ENDBRANCH  19  20
ENDBRANCH   6  19
TORSDOF 4
ENDMDL