MODEL 5
REMARK VINA RESULT: -6.327887574      1.887      5.812
REMARK  7 active torsions:
REMARK  status: ('A' for Active; 'I' for Inactive)
REMARK    1  A    between atoms: C2_2  and  C3_3
REMARK    2  A    between atoms: C3_3  and  O1_4
REMARK    3  A    between atoms: N1_7  and  C5_8
REMARK    4  A    between atoms: C5_8  and  O2_9
REMARK    5  A    between atoms: C5_8  and  C6_11
REMARK    6  A    between atoms: C6_11  and  N2_12
REMARK    7  A    between atoms: C14_20  and  O3_21
ROOT
HETATM    1  C3  UNL     1      -4.298   1.397  11.111  1.00  0.00     0.101 C
HETATM    2  C4  UNL     1      -3.900   1.259  12.592  1.00  0.00     0.165 C
HETATM    3  N1  UNL     1      -3.696   2.625  12.979  1.00  0.00    -0.356 N
HETATM    4  C13 UNL     1      -3.038   3.292  11.858  1.00  0.00     0.159 C
HETATM    5  C14 UNL     1      -3.433   2.503  10.644  1.00  0.00     0.172 C
ENDROOT
BRANCH   3   6
HETATM    6  C5  UNL     1      -3.996   3.279  14.176  1.00  0.00     0.148 C
BRANCH   6   7
HETATM    7  O2  UNL     1      -3.010   3.971  14.670  1.00  0.00    -0.345 OA
ATOM      8  H2  UNL     1      -2.809   3.772  15.577  1.00  0.00     0.219 HD
ENDBRANCH   6   7
BRANCH   6   9
HETATM    9  C6  UNL     1      -5.211   3.324  14.963  1.00  0.00     0.116 C
BRANCH   9  10
HETATM   10  N2  UNL     1      -5.828   2.164  15.444  1.00  0.00    -0.284 NA
HETATM   11  C7  UNL     1      -4.943   1.166  16.043  1.00  0.00     0.100 C
HETATM   12  C8  UNL     1      -5.361   1.085  17.510  1.00  0.00     0.001 C
HETATM   13  C9  UNL     1      -6.661   0.321  17.539  1.00  0.00     0.007 C
HETATM   14  C12 UNL     1      -5.873   2.497  17.711  1.00  0.00     0.025 C
HETATM   15  C10 UNL     1      -7.582   1.246  16.750  1.00  0.00     0.020 C
HETATM   16  C11 UNL     1      -6.778   2.497  16.467  1.00  0.00     0.063 C
ENDBRANCH   9  10
ENDBRANCH   6   9
ENDBRANCH   3   6
BRANCH   1  17
HETATM   17  C2  UNL     1      -4.211   0.115  10.363  1.00  0.00     0.037 C
HETATM   18  C1  UNL     1      -3.364  -0.944  10.979  1.00  0.00     0.008 C
ENDBRANCH   1  17
BRANCH   1  19
HETATM   19  O1  UNL     1      -5.645   1.823  11.138  1.00  0.00    -0.385 OA
ATOM     20  H1  UNL     1      -5.669   2.773  11.129  1.00  0.00     0.210 HD
ENDBRANCH   1  19
BRANCH   5  21
HETATM   21  O3  UNL     1      -4.088   3.366   9.746  1.00  0.00    -0.391 OA
ATOM     22  H3  UNL     1      -3.996   3.093   8.840  1.00  0.00     0.210 HD
ENDBRANCH   5  21
TORSDOF 7
ENDMDL