MODEL 5
REMARK VINA RESULT: -6.804319408      5.051     11.122
REMARK  9 active torsions:
REMARK  status: ('A' for Active; 'I' for Inactive)
REMARK    1  A    between atoms: C2_2  and  C3_3
REMARK    2  A    between atoms: C3_3  and  C4_4
REMARK    3  A    between atoms: C4_4  and  C5_5
REMARK    4  A    between atoms: C8_11  and  S1_12
REMARK    5  A    between atoms: S1_12  and  C9_13
REMARK    6  A    between atoms: C9_13  and  C10_14
REMARK       I    between atoms: C10_14  and  N2_16
REMARK    7  A    between atoms: N2_16  and  C11_18
REMARK    8  A    between atoms: C13_20  and  C14_21
REMARK    9  A    between atoms: N5_29  and  C18_30
ROOT
HETATM    1  C9  UNL     1      -0.567   9.795  76.849  1.00  0.00     0.185 C
ENDROOT
BRANCH   1   2
HETATM    2  S1  UNL     1      -1.332   9.185  75.359  1.00  0.00    -0.084 SA
BRANCH   2   3
HETATM    3  C8  UNL     1      -0.932  10.132  73.919  1.00  0.00     0.150 A
HETATM    4  N1  UNL     1      -1.472  11.296  73.597  1.00  0.00    -0.304 N
HETATM    5  C7  UNL     1      -1.156  11.994  72.506  1.00  0.00     0.249 A
ATOM      6  H1  UNL     1      -2.176  11.685  74.225  1.00  0.00     0.171 HD
HETATM    7  C6  UNL     1      -0.215  11.497  71.647  1.00  0.00     0.099 A
HETATM    8  O1  UNL     1      -1.719  13.110  72.259  1.00  0.00    -0.268 OA
HETATM    9  C5  UNL     1       0.383  10.261  71.956  1.00  0.00     0.019 A
HETATM   10  N5  UNL     1       0.014   9.621  73.068  1.00  0.00    -0.331 N
BRANCH   9  11
HETATM   11  C4  UNL     1       1.410   9.829  71.000  1.00  0.00     0.057 C
BRANCH  11  12
HETATM   12  C3  UNL     1       0.747   9.182  69.812  1.00  0.00     0.006 C
BRANCH  12  13
HETATM   13  C2  UNL     1       1.396   7.851  69.466  1.00  0.00    -0.004 C
HETATM   14  C1  UNL     1       0.381   6.808  69.096  1.00  0.00     0.005 C
ENDBRANCH  12  13
ENDBRANCH  11  12
ENDBRANCH   9  11
BRANCH  10  15
HETATM   15  C18 UNL     1       0.626   8.377  73.403  1.00  0.00     0.126 C
HETATM   16  C19 UNL     1      -0.035   7.177  72.823  1.00  0.00     0.027 C
ENDBRANCH  10  15
ENDBRANCH   2   3
ENDBRANCH   1   2
BRANCH   1  17
HETATM   17  C10 UNL     1      -1.492   9.929  77.983  1.00  0.00     0.233 C
HETATM   18  O2  UNL     1      -1.485  10.935  78.729  1.00  0.00    -0.272 OA
HETATM   19  N2  UNL     1      -2.407   8.893  78.227  1.00  0.00    -0.311 N
ATOM     20  H2  UNL     1      -2.341   8.096  77.594  1.00  0.00     0.170 HD
BRANCH  19  21
HETATM   21  C11 UNL     1      -3.298   8.803  79.112  1.00  0.00     0.124 A
HETATM   22  C12 UNL     1      -3.033   8.935  80.479  1.00  0.00     0.077 A
HETATM   23  C13 UNL     1      -4.213   8.785  81.174  1.00  0.00     0.037 A
HETATM   24  N3  UNL     1      -5.159   8.567  80.253  1.00  0.00    -0.302 N
HETATM   25  N4  UNL     1      -4.618   8.578  79.039  1.00  0.00    -0.285 N
ATOM     26  H3  UNL     1      -6.148   8.415  80.452  1.00  0.00     0.186 HD
ATOM     27  H4  UNL     1      -5.136   8.435  78.172  1.00  0.00     0.188 HD
BRANCH  23  28
HETATM   28  C14 UNL     1      -4.415   8.848  82.647  1.00  0.00    -0.007 C
HETATM   29  C15 UNL     1      -5.608   9.722  82.991  1.00  0.00     0.021 C
HETATM   30  C16 UNL     1      -4.683   7.487  83.249  1.00  0.00     0.021 C
HETATM   31  C17 UNL     1      -3.169   9.425  83.288  1.00  0.00     0.021 C
ENDBRANCH  23  28
ENDBRANCH  19  21
ENDBRANCH   1  17
TORSDOF 9
ENDMDL