MODEL 4
REMARK VINA RESULT: -7.137276301      0.922      1.100
REMARK  8 active torsions:
REMARK  status: ('A' for Active; 'I' for Inactive)
REMARK    1  A    between atoms: C2_2  and  O1_3
REMARK    2  A    between atoms: O1_3  and  C3_4
REMARK    3  A    between atoms: C3_4  and  C4_5
REMARK    4  A    between atoms: C4_5  and  N1_6
REMARK    5  A    between atoms: C7_10  and  S1_11
REMARK    6  A    between atoms: S1_11  and  C8_12
REMARK    7  A    between atoms: C8_12  and  C9_13
REMARK    8  A    between atoms: C12_18  and  O3_19
ROOT
HETATM    1  N1  UNL     1      -3.445   8.542  80.037  1.00  0.00    -0.282 N
HETATM    2  C5  UNL     1      -2.380   9.375  79.571  1.00  0.00     0.231 A
HETATM    3  O2  UNL     1      -1.932  10.230  80.429  1.00  0.00    -0.273 OA
HETATM    4  C6  UNL     1      -1.786   9.347  78.279  1.00  0.00     0.150 A
HETATM    5  C7  UNL     1      -2.339   8.329  77.279  1.00  0.00    -0.002 A
HETATM    6  C17 UNL     1      -3.353   7.569  77.788  1.00  0.00     0.019 A
HETATM    7  C18 UNL     1      -3.875   6.573  76.767  1.00  0.00     0.055 C
HETATM    8  C19 UNL     1      -3.925   7.614  79.083  1.00  0.00     0.257 A
HETATM    9  O4  UNL     1      -4.886   6.838  79.448  1.00  0.00    -0.267 OA
ENDROOT
BRANCH   5  10
HETATM   10  S1  UNL     1      -1.761   8.183  75.751  1.00  0.00    -0.127 SA
BRANCH  10  11
HETATM   11  C8  UNL     1      -1.196   8.033  74.283  1.00  0.00     0.139 C
BRANCH  11  12
HETATM   12  C9  UNL     1      -0.911   9.365  73.570  1.00  0.00     0.053 A
HETATM   13  N2  UNL     1      -1.644  10.473  73.629  1.00  0.00    -0.359 N
HETATM   14  C10 UNL     1      -1.040  11.428  72.849  1.00  0.00     0.018 A
ATOM     15  H2  UNL     1      -2.506  10.592  74.161  1.00  0.00     0.165 HD
HETATM   16  C11 UNL     1       0.105  10.877  72.296  1.00  0.00    -0.000 A
HETATM   17  C16 UNL     1      -1.465  12.824  72.585  1.00  0.00     0.057 C
HETATM   18  C12 UNL     1       0.173   9.590  72.754  1.00  0.00     0.097 A
HETATM   19  C13 UNL     1       0.949  11.736  71.399  1.00  0.00     0.043 C
HETATM   20  C14 UNL     1       0.996  13.097  72.069  1.00  0.00     0.005 C
HETATM   21  C15 UNL     1      -0.380  13.678  72.042  1.00  0.00     0.006 C
BRANCH  18  22
HETATM   22  O3  UNL     1       1.153   8.659  72.460  1.00  0.00    -0.358 OA
ATOM     23  H3  UNL     1       1.095   8.004  71.775  1.00  0.00     0.217 HD
ENDBRANCH  18  22
ENDBRANCH  11  12
ENDBRANCH  10  11
ENDBRANCH   5  10
BRANCH   1  24
HETATM   24  C4  UNL     1      -3.969   8.667  81.391  1.00  0.00     0.161 C
BRANCH  24  25
HETATM   25  C3  UNL     1      -5.210   9.490  81.358  1.00  0.00     0.188 C
BRANCH  25  26
HETATM   26  O1  UNL     1      -6.218   8.913  82.073  1.00  0.00    -0.390 OA
BRANCH  26  27
HETATM   27  C2  UNL     1      -7.464   9.219  81.581  1.00  0.00     0.163 C
HETATM   28  C1  UNL     1      -7.849  10.630  82.050  1.00  0.00     0.033 C
ENDBRANCH  26  27
ENDBRANCH  25  26
ENDBRANCH  24  25
ENDBRANCH   1  24
TORSDOF 8
ENDMDL