MODEL 4
REMARK VINA RESULT: -7.567071888      4.994      7.819
REMARK  7 active torsions:
REMARK  status: ('A' for Active; 'I' for Inactive)
REMARK    1  A    between atoms: C2_2  and  C4_4
REMARK    2  A    between atoms: C4_4  and  C5_5
REMARK    3  A    between atoms: N2_8  and  C6_9
REMARK    4  A    between atoms: C6_9  and  C7_10
REMARK    5  A    between atoms: C7_10  and  C8_11
REMARK    6  A    between atoms: C13_16  and  N3_17
REMARK       I    between atoms: N3_17  and  C14_19
REMARK    7  A    between atoms: C14_19  and  C15_21
ROOT
HETATM    1  C15 UNL     1      -5.941   7.536  79.575  1.00  0.00     0.129 A
HETATM    2  C16 UNL     1      -5.843   8.705  80.483  1.00  0.00     0.079 C
HETATM    3  N4  UNL     1      -5.749   9.610  81.200  1.00  0.00    -0.196 NA
HETATM    4  C17 UNL     1      -7.284   7.483  78.877  1.00  0.00     0.037 A
HETATM    5  C18 UNL     1      -6.931   6.519  79.989  1.00  0.00     0.037 A
ENDROOT
BRANCH   1   6
HETATM    6  C14 UNL     1      -4.738   7.191  78.784  1.00  0.00     0.240 C
HETATM    7  N3  UNL     1      -3.884   8.156  78.214  1.00  0.00    -0.355 N
ATOM      8  H3  UNL     1      -4.129   9.133  78.370  1.00  0.00     0.162 HD
HETATM    9  O1  UNL     1      -4.478   5.975  78.619  1.00  0.00    -0.272 OA
BRANCH   7  10
HETATM   10  C13 UNL     1      -2.707   7.905  77.439  1.00  0.00     0.088 C
HETATM   11  C8  UNL     1      -2.295   9.079  76.587  1.00  0.00     0.010 C
HETATM   12  C9  UNL     1      -0.944   9.543  77.006  1.00  0.00     0.007 C
HETATM   13  C10 UNL     1      -1.028   9.897  78.499  1.00  0.00     0.001 C
HETATM   14  C11 UNL     1      -1.128   8.593  79.255  1.00  0.00     0.002 C
HETATM   15  C12 UNL     1      -1.558   7.481  78.326  1.00  0.00     0.025 C
BRANCH  11  16
HETATM   16  C7  UNL     1      -2.536   8.907  75.140  1.00  0.00     0.028 C
BRANCH  16  17
HETATM   17  C6  UNL     1      -1.367   8.857  74.235  1.00  0.00     0.142 C
BRANCH  17  18
HETATM   18  N2  UNL     1      -0.688  10.064  73.962  1.00  0.00    -0.331 N
HETATM   19  N1  UNL     1       0.562   9.874  73.508  1.00  0.00    -0.327 N
HETATM   20  C5  UNL     1       0.858  10.237  72.135  1.00  0.00     0.169 C
ATOM     21  H1  UNL     1       1.285   9.484  74.114  1.00  0.00     0.180 HD
HETATM   22  C22 UNL     1       0.529  11.659  71.993  1.00  0.00     0.156 C
HETATM   23  C20 UNL     1      -0.631  12.185  72.764  1.00  0.00     0.073 C
HETATM   24  O2  UNL     1       1.144  12.449  71.285  1.00  0.00    -0.295 OA
HETATM   25  C19 UNL     1      -1.476  11.070  73.328  1.00  0.00     0.153 C
HETATM   26  C21 UNL     1      -1.394  13.155  71.925  1.00  0.00     0.020 C
BRANCH  20  27
HETATM   27  C4  UNL     1       0.340   9.272  71.157  1.00  0.00     0.038 C
BRANCH  27  28
HETATM   28  C2  UNL     1       1.079   7.995  70.922  1.00  0.00    -0.020 C
HETATM   29  C1  UNL     1       0.221   6.902  71.622  1.00  0.00     0.009 C
HETATM   30  C3  UNL     1       1.182   7.544  69.500  1.00  0.00     0.009 C
ENDBRANCH  27  28
ENDBRANCH  20  27
ENDBRANCH  17  18
ENDBRANCH  16  17
ENDBRANCH  11  16
ENDBRANCH   7  10
ENDBRANCH   1   6
TORSDOF 7
ENDMDL