MODEL 2
REMARK VINA RESULT: -6.952965502      2.394      5.406
REMARK  9 active torsions:
REMARK  status: ('A' for Active; 'I' for Inactive)
REMARK    1  A    between atoms: C3_3  and  N1_4
REMARK    2  A    between atoms: N1_4  and  C4_5
REMARK    3  A    between atoms: N1_4  and  C15_25
REMARK    4  A    between atoms: C4_5  and  O1_6
REMARK    5  A    between atoms: C4_5  and  C5_8
REMARK    6  A    between atoms: C7_10  and  N2_11
REMARK    7  A    between atoms: N2_11  and  C8_12
REMARK    8  A    between atoms: N2_11  and  C10_14
REMARK    9  A    between atoms: N4_19  and  C13_21
ROOT
HETATM    1  C1  UNL     1       1.111  12.284  71.756  1.00  0.00     0.014 C
HETATM    2  C2  UNL     1       0.152  11.652  72.134  1.00  0.00    -0.097 C
HETATM    3  C3  UNL     1      -1.049  10.866  72.564  1.00  0.00     0.224 C
ENDROOT
BRANCH   3   4
HETATM    4  N1  UNL     1      -0.551   9.645  73.144  1.00  0.00    -0.314 N
BRANCH   4   5
HETATM    5  C4  UNL     1       0.388   8.860  72.530  1.00  0.00     0.185 C
BRANCH   5   6
HETATM    6  O1  UNL     1       1.496   8.710  73.235  1.00  0.00    -0.343 OA
ATOM      7  H1  UNL     1       1.831   7.821  73.233  1.00  0.00     0.219 HD
ENDBRANCH   5   6
BRANCH   5   8
HETATM    8  C5  UNL     1       0.459   8.156  71.245  1.00  0.00     0.165 A
HETATM    9  C6  UNL     1      -0.068   6.715  72.046  1.00  0.00     0.097 A
HETATM   10  C7  UNL     1      -0.204   5.644  71.308  1.00  0.00     0.110 A
HETATM   11  N3  UNL     1       0.014   5.492  70.005  1.00  0.00    -0.302 N
HETATM   12  C12 UNL     1       0.442   6.652  69.358  1.00  0.00     0.261 A
ATOM     13  H3  UNL     1      -0.121   4.604  69.521  1.00  0.00     0.171 HD
HETATM   14  N4  UNL     1       0.673   6.581  68.139  1.00  0.00    -0.317 N
HETATM   15  N6  UNL     1       0.515   7.600  70.229  1.00  0.00    -0.366 NA
ATOM     16  H4  UNL     1       0.511   5.645  67.768  1.00  0.00     0.170 HD
BRANCH  10  17
HETATM   17  N2  UNL     1      -0.674   4.412  71.983  1.00  0.00    -0.368 N
BRANCH  17  18
HETATM   18  C8  UNL     1      -1.190   4.513  73.316  1.00  0.00     0.120 C
HETATM   19  C9  UNL     1      -2.617   4.073  73.460  1.00  0.00     0.026 C
ENDBRANCH  17  18
BRANCH  17  20
HETATM   20  C10 UNL     1      -0.564   3.181  71.285  1.00  0.00     0.120 C
HETATM   21  C11 UNL     1       0.433   2.248  71.880  1.00  0.00     0.026 C
ENDBRANCH  17  20
ENDBRANCH  10  17
BRANCH  14  22
HETATM   22  C13 UNL     1       1.102   7.478  67.151  1.00  0.00     0.186 C
HETATM   23  C14 UNL     1       2.354   7.067  66.540  1.00  0.00     0.105 C
HETATM   24  N5  UNL     1       3.371   6.753  66.036  1.00  0.00    -0.191 NA
ENDBRANCH  14  22
ENDBRANCH   5   8
ENDBRANCH   4   5
BRANCH   4  25
HETATM   25  C15 UNL     1      -0.974   9.260  74.473  1.00  0.00     0.038 A
HETATM   26  C16 UNL     1      -0.413   9.707  75.634  1.00  0.00     0.036 A
HETATM   27  C17 UNL     1      -0.863   9.285  76.889  1.00  0.00    -0.059 A
HETATM   28  C18 UNL     1      -0.197   9.811  78.104  1.00  0.00     0.048 C
HETATM   29  C19 UNL     1      -1.913   8.386  76.958  1.00  0.00     0.013 A
HETATM   30  C20 UNL     1      -2.510   7.908  75.807  1.00  0.00    -0.059 A
HETATM   31  C21 UNL     1      -3.629   6.934  75.847  1.00  0.00     0.048 C
HETATM   32  C22 UNL     1      -2.031   8.353  74.599  1.00  0.00     0.036 A
ENDBRANCH   4  25
ENDBRANCH   3   4
TORSDOF 9
ENDMDL