MODEL 4
REMARK VINA RESULT: -7.639413572      1.143      1.475
REMARK  9 active torsions:
REMARK  status: ('A' for Active; 'I' for Inactive)
REMARK    1  A    between atoms: C3_3  and  C4_4
REMARK    2  A    between atoms: C4_4  and  O1_5
REMARK    3  A    between atoms: C4_4  and  C5_7
REMARK    4  A    between atoms: C7_11  and  C8_12
REMARK    5  A    between atoms: C12_19  and  C13_20
REMARK    6  A    between atoms: C13_20  and  C14_21
REMARK    7  A    between atoms: C15_22  and  C17_24
REMARK    8  A    between atoms: C17_24  and  C18_25
REMARK    9  A    between atoms: C18_25  and  C19_26
ROOT
HETATM    1  C8  UNL     1      -0.509   9.003  73.492  1.00  0.00     0.015 C
HETATM    2  C9  UNL     1      -0.165   7.934  72.519  1.00  0.00     0.021 C
HETATM    3  C10 UNL     1       0.556   9.185  74.566  1.00  0.00     0.116 C
HETATM    4  C11 UNL     1      -0.230   9.798  75.667  1.00  0.00     0.218 C
HETATM    5  O4  UNL     1       0.217  10.259  76.761  1.00  0.00    -0.274 OA
HETATM    6  N1  UNL     1      -1.613   9.805  75.323  1.00  0.00    -0.355 N
ATOM      7  H1  UNL     1      -2.349  10.415  75.680  1.00  0.00     0.162 HD
HETATM    8  C12 UNL     1      -1.729   8.722  74.329  1.00  0.00     0.099 C
ENDROOT
BRANCH   1   9
HETATM    9  C7  UNL     1      -0.608  10.315  72.777  1.00  0.00     0.164 C
HETATM   10  C2  UNL     1       0.646  10.736  72.141  1.00  0.00    -0.028 C
HETATM   11  C1  UNL     1       1.623  10.345  71.346  1.00  0.00     0.020 C
HETATM   12  C3  UNL     1       0.429  12.068  72.833  1.00  0.00     0.189 C
HETATM   13  O3  UNL     1      -0.533  11.443  73.591  1.00  0.00    -0.368 OA
BRANCH  12  14
HETATM   14  C4  UNL     1      -0.076  13.124  71.876  1.00  0.00     0.220 C
BRANCH  14  15
HETATM   15  O1  UNL     1      -1.360  13.571  72.255  1.00  0.00    -0.385 OA
ATOM     16  H1  UNL     1      -1.724  14.149  71.594  1.00  0.00     0.210 HD
ENDBRANCH  14  15
BRANCH  14  17
HETATM   17  C5  UNL     1       0.868  14.253  71.747  1.00  0.00     0.154 C
HETATM   18  C6  UNL     1       0.898  15.286  72.802  1.00  0.00     0.094 C
HETATM   19  O2  UNL     1       1.597  14.320  70.791  1.00  0.00    -0.295 OA
ENDBRANCH  14  17
ENDBRANCH  12  14
ENDBRANCH   1   9
BRANCH   8  20
HETATM   20  C13 UNL     1      -1.563   7.453  75.123  1.00  0.00     0.053 C
BRANCH  20  21
HETATM   21  C14 UNL     1      -2.784   6.620  75.073  1.00  0.00    -0.022 C
HETATM   22  C15 UNL     1      -3.836   6.722  75.856  1.00  0.00    -0.087 C
HETATM   23  C16 UNL     1      -4.977   5.756  75.619  1.00  0.00     0.043 C
BRANCH  22  24
HETATM   24  C17 UNL     1      -4.023   7.691  76.955  1.00  0.00     0.037 C
BRANCH  24  25
HETATM   25  C18 UNL     1      -3.416   7.153  78.260  1.00  0.00     0.031 C
BRANCH  25  26
HETATM   26  C19 UNL     1      -2.330   8.087  78.720  1.00  0.00    -0.024 C
HETATM   27  C20 UNL     1      -1.176   7.605  79.129  1.00  0.00    -0.091 C
HETATM   28  C21 UNL     1      -0.109   8.525  79.581  1.00  0.00     0.042 C
HETATM   29  C22 UNL     1      -0.938   6.145  79.138  1.00  0.00     0.042 C
ENDBRANCH  25  26
ENDBRANCH  24  25
ENDBRANCH  22  24
ENDBRANCH  20  21
ENDBRANCH   8  20
TORSDOF 9
ENDMDL