MODEL 3
REMARK VINA RESULT: -5.739506360      1.435      1.955
REMARK  6 active torsions:
REMARK  status: ('A' for Active; 'I' for Inactive)
REMARK    1  A    between atoms: C3_3  and  C4_4
REMARK    2  A    between atoms: C4_4  and  O1_5
REMARK    3  A    between atoms: O1_5  and  C5_6
REMARK    4  A    between atoms: C5_6  and  C6_7
REMARK    5  A    between atoms: C17_22  and  C18_23
REMARK    6  A    between atoms: C20_27  and  O4_28
ROOT
HETATM    1  C1  UNL     1       0.353   7.819  72.500  1.00  0.00     0.012 C
HETATM    2  C2  UNL     1      -0.007   6.695  72.257  1.00  0.00    -0.115 C
HETATM    3  C3  UNL     1      -0.466   5.337  71.974  1.00  0.00     0.119 C
ENDROOT
BRANCH   3   4
HETATM    4  C4  UNL     1      -1.118   4.761  73.284  1.00  0.00     0.179 C
BRANCH   4   5
HETATM    5  O1  UNL     1      -2.031   5.566  73.753  1.00  0.00    -0.388 OA
BRANCH   5   6
HETATM    6  C5  UNL     1      -2.954   5.425  74.635  1.00  0.00     0.199 C
BRANCH   6   7
HETATM    7  C6  UNL     1      -3.312   6.500  75.651  1.00  0.00     0.148 C
HETATM    8  C7  UNL     1      -4.416   5.967  76.501  1.00  0.00     0.039 C
HETATM    9  C8  UNL     1      -4.865   6.755  77.691  1.00  0.00    -0.007 C
HETATM   10  C9  UNL     1      -4.718   6.336  79.080  1.00  0.00     0.035 C
HETATM   11  C19 UNL     1      -4.020   7.959  77.593  1.00  0.00     0.052 C
HETATM   12  C10 UNL     1      -4.143   7.404  80.031  1.00  0.00     0.032 C
HETATM   13  C11 UNL     1      -5.260   8.407  80.376  1.00  0.00     0.039 C
HETATM   14  C12 UNL     1      -3.797   6.819  81.347  1.00  0.00     0.031 C
HETATM   15  N2  UNL     1      -2.964   8.092  79.448  1.00  0.00    -0.338 N
HETATM   16  C13 UNL     1      -3.063   7.609  82.326  1.00  0.00     0.003 C
HETATM   17  C14 UNL     1      -3.149   9.069  82.373  1.00  0.00     0.007 C
HETATM   18  C15 UNL     1      -2.441   9.819  81.286  1.00  0.00     0.076 C
HETATM   19  C16 UNL     1      -2.202   9.066  80.045  1.00  0.00     0.074 C
HETATM   20  N1  UNL     1      -1.126   9.347  79.397  1.00  0.00    -0.389 N
ATOM     21  H12 UNL     1      -0.560  10.070  79.839  1.00  0.00     0.157 HD
ATOM     22  H11 UNL     1      -0.961   8.824  78.536  1.00  0.00     0.157 HD
HETATM   23  C17 UNL     1      -2.713   7.621  78.153  1.00  0.00     0.173 C
HETATM   24  C20 UNL     1      -1.923   7.978  76.990  1.00  0.00     0.298 C
HETATM   25  O5  UNL     1      -2.118   6.824  76.174  1.00  0.00    -0.351 OA
BRANCH  23  26
HETATM   26  C18 UNL     1      -2.023   6.441  78.480  1.00  0.00     0.208 C
HETATM   27  O2  UNL     1      -0.833   6.527  78.886  1.00  0.00    -0.646 OA
HETATM   28  O3  UNL     1      -2.232   5.077  78.509  1.00  0.00    -0.646 OA
ENDBRANCH  23  26
BRANCH  24  29
HETATM   29  O4  UNL     1      -2.319   9.029  76.192  1.00  0.00    -0.363 OA
HETATM   30  C21 UNL     1      -1.370   9.442  75.290  1.00  0.00     0.204 C
ENDBRANCH  24  29
ENDBRANCH   6   7
ENDBRANCH   5   6
ENDBRANCH   4   5
ENDBRANCH   3   4
TORSDOF 6
ENDMDL