MODEL 5
REMARK VINA RESULT: -7.497784801      4.815      7.900
REMARK  8 active torsions:
REMARK  status: ('A' for Active; 'I' for Inactive)
REMARK    1  A    between atoms: C9_10  and  C10_11
REMARK    2  A    between atoms: C10_11  and  C11_12
REMARK    3  A    between atoms: C11_12  and  N1_13
REMARK    4  A    between atoms: N1_13  and  C12_16
REMARK    5  A    between atoms: C12_16  and  C13_17
REMARK    6  A    between atoms: C13_17  and  C14_18
REMARK    7  A    between atoms: C14_18  and  N2_19
REMARK    8  A    between atoms: C20_26  and  O2_27
ROOT
HETATM    1  C1  UNL     1       0.008   9.835  75.000  1.00  0.00     0.020 C
HETATM    2  C2  UNL     1      -0.178  10.317  73.826  1.00  0.00    -0.051 C
HETATM    3  C3  UNL     1      -0.826  11.675  73.622  1.00  0.00     0.076 C
HETATM    4  C4  UNL     1      -0.098  12.431  72.545  1.00  0.00     0.064 C
HETATM    5  C5  UNL     1      -1.100  12.839  71.490  1.00  0.00     0.046 C
HETATM    6  C6  UNL     1       0.520  13.667  73.210  1.00  0.00     0.046 C
HETATM    7  O1  UNL     1       0.918  11.684  71.901  1.00  0.00    -0.340 OA
HETATM    8  C7  UNL     1       0.814  10.335  71.622  1.00  0.00     0.081 A
HETATM    9  C8  UNL     1       1.224   9.711  70.479  1.00  0.00     0.047 A
HETATM   10  C9  UNL     1       1.048   8.355  70.360  1.00  0.00    -0.020 A
HETATM   11  C20 UNL     1       0.458   7.617  71.386  1.00  0.00     0.079 A
HETATM   12  C21 UNL     1       0.023   8.226  72.575  1.00  0.00    -0.015 A
HETATM   13  C22 UNL     1      -0.646   7.489  73.659  1.00  0.00     0.052 C
HETATM   14  C23 UNL     1       0.226   9.581  72.642  1.00  0.00     0.012 A
ENDROOT
BRANCH  10  15
HETATM   15  C10 UNL     1       1.491   7.602  69.132  1.00  0.00     0.069 C
BRANCH  15  16
HETATM   16  C11 UNL     1       0.349   7.583  68.136  1.00  0.00     0.237 C
BRANCH  16  17
HETATM   17  N1  UNL     1       0.706   8.317  66.915  1.00  0.00    -0.075 N
ATOM     18  H12 UNL     1       0.697   9.326  67.065  1.00  0.00     0.277 HD
ATOM     19  H11 UNL     1       1.693   8.206  66.683  1.00  0.00     0.277 HD
BRANCH  17  20
HETATM   20  C12 UNL     1      -0.143   7.935  65.821  1.00  0.00     0.234 C
BRANCH  20  21
HETATM   21  C13 UNL     1      -1.218   7.009  66.274  1.00  0.00     0.057 C
BRANCH  21  22
HETATM   22  C14 UNL     1      -2.571   7.557  65.970  1.00  0.00     0.274 C
BRANCH  22  23
HETATM   23  N2  UNL     1      -3.544   7.290  66.993  1.00  0.00     0.091 N
HETATM   24  C15 UNL     1      -3.680   5.906  67.341  1.00  0.00     0.302 C
HETATM   25  C16 UNL     1      -4.611   5.812  68.533  1.00  0.00     0.302 C
HETATM   26  N3  UNL     1      -5.804   6.586  68.395  1.00  0.00     0.087 N
HETATM   27  C17 UNL     1      -6.847   5.926  67.674  1.00  0.00     0.310 C
HETATM   28  C18 UNL     1      -5.617   7.931  67.950  1.00  0.00     0.302 C
HETATM   29  C19 UNL     1      -4.796   7.899  66.664  1.00  0.00     0.302 C
ENDBRANCH  22  23
ENDBRANCH  21  22
ENDBRANCH  20  21
ENDBRANCH  17  20
ENDBRANCH  16  17
ENDBRANCH  15  16
ENDBRANCH  10  15
BRANCH  11  30
HETATM   30  O2  UNL     1       0.300   6.254  71.223  1.00  0.00    -0.360 OA
ATOM     31  H2  UNL     1       0.976   5.764  70.770  1.00  0.00     0.217 HD
ENDBRANCH  11  30
TORSDOF 8
ENDMDL