MODEL 3
REMARK VINA RESULT: -7.344991315      0.835      1.202
REMARK  8 active torsions:
REMARK  status: ('A' for Active; 'I' for Inactive)
REMARK    1  A    between atoms: C2_2  and  C3_3
REMARK    2  A    between atoms: C5_5  and  C6_6
REMARK    3  A    between atoms: C6_6  and  N1_7
REMARK    4  A    between atoms: N1_7  and  S1_9
REMARK    5  A    between atoms: S1_9  and  C7_12
REMARK    6  A    between atoms: C8_15  and  C9_16
REMARK    7  A    between atoms: C10_17  and  C11_18
REMARK    8  A    between atoms: C16_23  and  O3_24
ROOT
HETATM    1  C7  UNL     1      -0.795   8.980  76.121  1.00  0.00     0.267 A
HETATM    2  N2  UNL     1      -1.317   8.025  76.906  1.00  0.00    -0.324 N
ATOM      3  H2  UNL     1      -1.760   7.166  76.580  1.00  0.00     0.169 HD
HETATM    4  C8  UNL     1      -1.163   8.381  78.182  1.00  0.00     0.057 A
HETATM    5  C19 UNL     1      -0.509   9.619  78.119  1.00  0.00     0.174 A
HETATM    6  O4  UNL     1      -0.307   9.939  76.868  1.00  0.00    -0.293 OA
ENDROOT
BRANCH   4   7
HETATM    7  C9  UNL     1      -1.529   7.747  79.430  1.00  0.00     0.028 C
HETATM    8  C10 UNL     1      -2.722   7.462  79.845  1.00  0.00    -0.015 C
BRANCH   8   9
HETATM    9  C11 UNL     1      -4.031   7.667  79.242  1.00  0.00     0.042 C
HETATM   10  C12 UNL     1      -5.014   8.316  80.125  1.00  0.00    -0.079 C
HETATM   11  C13 UNL     1      -4.610   9.260  81.219  1.00  0.00     0.044 C
HETATM   12  C14 UNL     1      -6.299   8.061  79.951  1.00  0.00    -0.021 C
HETATM   13  C15 UNL     1      -6.897   7.171  78.943  1.00  0.00     0.059 C
HETATM   14  C16 UNL     1      -5.849   6.637  78.037  1.00  0.00     0.126 C
HETATM   15  C17 UNL     1      -4.621   6.305  78.896  1.00  0.00     0.022 C
HETATM   16  C18 UNL     1      -3.717   5.474  78.055  1.00  0.00     0.014 C
BRANCH  14  17
HETATM   17  O3  UNL     1      -6.310   5.464  77.456  1.00  0.00    -0.395 OA
ATOM     18  H3  UNL     1      -7.073   5.160  77.936  1.00  0.00     0.210 HD
ENDBRANCH  14  17
ENDBRANCH   8   9
ENDBRANCH   4   7
BRANCH   1  19
HETATM   19  S1  UNL     1      -0.733   9.009  74.368  1.00  0.00     0.298 S
HETATM   20  O1  UNL     1       0.705   8.783  73.982  1.00  0.00    -0.197 OA
HETATM   21  O2  UNL     1      -1.592   7.899  73.847  1.00  0.00    -0.197 OA
BRANCH  19  22
HETATM   22  N1  UNL     1      -1.305  10.535  73.850  1.00  0.00    -0.312 N
ATOM     23  H1  UNL     1      -2.278  10.829  73.928  1.00  0.00     0.172 HD
BRANCH  22  24
HETATM   24  C6  UNL     1      -0.272  11.358  73.295  1.00  0.00     0.137 C
BRANCH  24  25
HETATM   25  C5  UNL     1      -0.763  12.226  72.169  1.00  0.00     0.012 A
HETATM   26  C3  UNL     1      -0.502  13.706  72.184  1.00  0.00     0.013 A
HETATM   27  C4  UNL     1      -1.871  13.171  72.404  1.00  0.00     0.015 A
BRANCH  26  28
HETATM   28  C2  UNL     1       0.145  14.334  73.371  1.00  0.00    -0.032 C
HETATM   29  C1  UNL     1       0.743  15.518  73.291  1.00  0.00     0.007 C
ENDBRANCH  26  28
ENDBRANCH  24  25
ENDBRANCH  22  24
ENDBRANCH  19  22
ENDBRANCH   1  19
TORSDOF 8
ENDMDL