MODEL 5
REMARK VINA RESULT: -7.577691175      0.755      1.723
REMARK  8 active torsions:
REMARK  status: ('A' for Active; 'I' for Inactive)
REMARK    1  A    between atoms: N1_2  and  C3_4
REMARK    2  A    between atoms: C3_4  and  C4_5
REMARK    3  A    between atoms: C4_5  and  C5_6
REMARK    4  A    between atoms: C5_6  and  N2_7
REMARK       I    between atoms: N2_7  and  C6_9
REMARK    5  A    between atoms: C6_9  and  C7_11
REMARK    6  A    between atoms: C7_11  and  C8_12
REMARK    7  A    between atoms: C11_15  and  O2_16
REMARK    8  A    between atoms: C11_15  and  C12_18
ROOT
HETATM    1  C8  UNL     1      -0.283   9.323  73.148  1.00  0.00     0.169 C
HETATM    2  C9  UNL     1      -1.261  10.299  73.712  1.00  0.00     0.041 C
HETATM    3  C10 UNL     1      -2.310   9.465  74.469  1.00  0.00     0.075 C
HETATM    4  C11 UNL     1      -1.553   8.437  75.261  1.00  0.00     0.203 C
HETATM    5  O3  UNL     1      -0.950   7.547  74.370  1.00  0.00    -0.200 OA
HETATM    6  O4  UNL     1      -0.892   8.071  73.170  1.00  0.00    -0.232 OA
ENDROOT
BRANCH   4   7
HETATM    7  O2  UNL     1      -0.469   9.039  75.951  1.00  0.00    -0.363 OA
ATOM      8  H2  UNL     1      -0.584   8.953  76.890  1.00  0.00     0.213 HD
ENDBRANCH   4   7
BRANCH   4   9
HETATM    9  C12 UNL     1      -2.365   7.745  76.298  1.00  0.00     0.020 C
HETATM   10  C13 UNL     1      -3.597   8.549  76.610  1.00  0.00     0.019 C
HETATM   11  C14 UNL     1      -4.389   7.953  77.772  1.00  0.00    -0.013 C
HETATM   12  C15 UNL     1      -4.782   6.558  77.311  1.00  0.00     0.009 C
HETATM   13  C19 UNL     1      -3.500   7.943  78.980  1.00  0.00     0.009 C
HETATM   14  C16 UNL     1      -3.554   5.749  77.037  1.00  0.00    -0.013 C
HETATM   15  C17 UNL     1      -2.713   5.653  78.300  1.00  0.00     0.009 C
HETATM   16  C21 UNL     1      -2.734   6.328  75.921  1.00  0.00     0.019 C
HETATM   17  C18 UNL     1      -2.311   7.047  78.689  1.00  0.00    -0.013 C
HETATM   18  C20 UNL     1      -1.523   7.641  77.563  1.00  0.00     0.019 C
ENDBRANCH   4   9
BRANCH   1  19
HETATM   19  C7  UNL     1       0.076   9.617  71.708  1.00  0.00     0.137 C
BRANCH  19  20
HETATM   20  C6  UNL     1       0.888  10.850  71.593  1.00  0.00     0.220 C
HETATM   21  N2  UNL     1       0.287  12.102  71.770  1.00  0.00    -0.361 N
ATOM     22  H2  UNL     1      -0.710  12.124  71.980  1.00  0.00     0.162 HD
HETATM   23  O1  UNL     1       2.100  10.745  71.339  1.00  0.00    -0.274 OA
BRANCH  21  24
HETATM   24  C5  UNL     1       0.983  13.370  71.675  1.00  0.00     0.127 C
BRANCH  24  25
HETATM   25  C4  UNL     1       0.318  14.443  72.456  1.00  0.00     0.064 C
BRANCH  25  26
HETATM   26  C3  UNL     1       0.219  14.276  73.921  1.00  0.00     0.058 C
BRANCH  26  27
HETATM   27  N1  UNL     1       0.539  15.335  74.781  1.00  0.00    -0.402 N
HETATM   28  C1  UNL     1       1.413  16.357  74.346  1.00  0.00     0.148 C
HETATM   29  C2  UNL     1       0.734  14.966  76.166  1.00  0.00     0.148 C
ENDBRANCH  26  27
ENDBRANCH  25  26
ENDBRANCH  24  25
ENDBRANCH  21  24
ENDBRANCH  19  20
ENDBRANCH   1  19
TORSDOF 8
ENDMDL