MODEL 4
REMARK VINA RESULT: -6.306750433      3.723      7.000
REMARK  8 active torsions:
REMARK  status: ('A' for Active; 'I' for Inactive)
REMARK    1  A    between atoms: C2_2  and  C3_3
REMARK    2  A    between atoms: C4_4  and  N1_5
REMARK    3  A    between atoms: C10_13  and  C11_14
REMARK    4  A    between atoms: C13_16  and  N3_17
REMARK    5  A    between atoms: N4_20  and  C16_21
REMARK    6  A    between atoms: C16_21  and  C17_22
REMARK    7  A    between atoms: C17_22  and  C18_23
REMARK    8  A    between atoms: C18_23  and  O1_24
ROOT
HETATM    1  C3  UNL     1      -0.767   4.593  72.271  1.00  0.00     0.015 A
HETATM    2  C4  UNL     1      -1.427   4.520  73.468  1.00  0.00     0.112 A
HETATM    3  N2  UNL     1      -1.379   5.775  74.041  1.00  0.00    -0.340 N
ATOM      4  H2  UNL     1      -1.794   6.015  74.942  1.00  0.00     0.167 HD
HETATM    5  C9  UNL     1      -0.727   6.621  73.269  1.00  0.00     0.070 A
HETATM    6  C10 UNL     1      -0.436   7.977  73.440  1.00  0.00    -0.002 A
HETATM    7  C13 UNL     1       0.271   8.593  72.443  1.00  0.00     0.054 A
HETATM    8  C21 UNL     1       0.667   7.857  71.315  1.00  0.00     0.118 A
HETATM    9  N5  UNL     1       0.352   6.559  71.219  1.00  0.00    -0.361 N
ATOM     10  H5  UNL     1       0.647   6.040  70.392  1.00  0.00     0.165 HD
HETATM   11  C22 UNL     1      -0.334   5.923  72.165  1.00  0.00     0.069 A
ENDROOT
BRANCH   7  12
HETATM   12  N3  UNL     1       0.589   9.966  72.554  1.00  0.00    -0.373 N
HETATM   13  C14 UNL     1      -0.161  10.890  73.347  1.00  0.00     0.143 C
HETATM   14  C15 UNL     1      -0.590  12.043  72.455  1.00  0.00     0.146 C
HETATM   15  N4  UNL     1       0.458  12.606  71.675  1.00  0.00    -0.371 N
HETATM   16  C19 UNL     1       1.275  11.696  70.984  1.00  0.00     0.083 C
HETATM   17  C20 UNL     1       1.741  10.528  71.835  1.00  0.00     0.167 C
BRANCH  15  18
HETATM   18  C16 UNL     1       0.972  13.835  72.124  1.00  0.00     0.065 C
BRANCH  18  19
HETATM   19  C17 UNL     1       0.065  14.629  73.002  1.00  0.00     0.070 C
BRANCH  19  20
HETATM   20  C18 UNL     1       0.882  15.711  73.708  1.00  0.00     0.169 C
BRANCH  20  21
HETATM   21  O1  UNL     1       1.530  16.511  72.790  1.00  0.00    -0.401 OA
ATOM     22  H1  UNL     1       1.988  17.220  73.226  1.00  0.00     0.209 HD
ENDBRANCH  20  21
ENDBRANCH  19  20
ENDBRANCH  18  19
ENDBRANCH  15  18
ENDBRANCH   7  12
BRANCH   6  23
HETATM   23  C11 UNL     1      -0.885   8.655  74.677  1.00  0.00     0.039 C
HETATM   24  C12 UNL     1      -2.400   8.747  74.701  1.00  0.00     0.010 C
ENDBRANCH   6  23
BRANCH   2  25
HETATM   25  N1  UNL     1      -2.029   3.392  74.042  1.00  0.00    -0.367 N
HETATM   26  C5  UNL     1      -3.341   2.886  73.556  1.00  0.00     0.124 C
HETATM   27  C6  UNL     1      -3.216   1.376  73.633  1.00  0.00     0.021 C
HETATM   28  C7  UNL     1      -1.868   1.142  74.307  1.00  0.00     0.021 C
HETATM   29  C8  UNL     1      -1.744   2.467  75.093  1.00  0.00     0.124 C
ENDBRANCH   2  25
BRANCH   1  30
HETATM   30  C2  UNL     1      -0.505   3.602  71.219  1.00  0.00     0.040 C
HETATM   31  C1  UNL     1       0.421   2.531  71.722  1.00  0.00     0.010 C
ENDBRANCH   1  30
TORSDOF 8
ENDMDL