MODEL 3
REMARK VINA RESULT: -3.891542157      2.373      3.519
REMARK  1 active torsions:
REMARK  status: ('A' for Active; 'I' for Inactive)
REMARK    1  A    between atoms: C2_2  and  C3_3
ROOT
HETATM    1  C3  UNL     1       0.228  10.469  33.913  1.00  0.00     0.215 C
HETATM    2  C4  UNL     1      -0.533  10.770  32.662  1.00  0.00     0.058 C
HETATM    3  C5  UNL     1       0.065  11.663  34.841  1.00  0.00     0.262 C
HETATM    4  O1  UNL     1      -0.307  12.821  34.568  1.00  0.00    -0.270 OA
HETATM    5  N1  UNL     1       0.447  11.129  36.114  1.00  0.00    -0.271 N
ATOM      6  H1  UNL     1       0.656  11.658  36.962  1.00  0.00     0.173 HD
HETATM    7  C6  UNL     1       0.477   9.695  35.960  1.00  0.00     0.422 C
HETATM    8  O2  UNL     1       1.035   8.912  36.737  1.00  0.00    -0.239 OA
HETATM    9  N2  UNL     1      -0.263   9.441  34.743  1.00  0.00     0.024 N
HETATM   10  C7  UNL     1      -1.650   9.587  35.120  1.00  0.00     0.286 C
HETATM   11  C8  UNL     1      -0.028   8.093  34.359  1.00  0.00     0.286 C
ENDROOT
BRANCH   1  12
HETATM   12  C2  UNL     1       1.685  10.380  33.644  1.00  0.00     0.045 C
HETATM   13  C1  UNL     1       2.102  10.163  32.236  1.00  0.00     0.008 C
ENDBRANCH   1  12
TORSDOF 1
ENDMDL