MODEL 1
REMARK VINA RESULT: -4.924187057      0.000      0.000
REMARK  3 active torsions:
REMARK  status: ('A' for Active; 'I' for Inactive)
REMARK    1  A    between atoms: C2_2  and  C3_3
REMARK    2  A    between atoms: C4_4  and  C5_5
REMARK    3  A    between atoms: C5_5  and  N1_6
ROOT
HETATM    1  C3  UNL     1       0.633  14.198  34.944  1.00  0.00    -0.063 C
HETATM    2  C4  UNL     1       0.237  13.457  34.073  1.00  0.00    -0.075 C
ENDROOT
BRANCH   1   3
HETATM    3  C2  UNL     1       1.136  15.087  36.012  1.00  0.00     0.174 A
HETATM    4  C1  UNL     1       0.915  14.627  37.456  1.00  0.00     0.064 C
HETATM    5  N2  UNL     1       0.926  16.524  35.763  1.00  0.00    -0.330 N
HETATM    6  C9  UNL     1       2.268  15.880  35.688  1.00  0.00     0.260 A
ATOM      7  H2  UNL     1       0.320  17.342  35.694  1.00  0.00     0.164 HD
HETATM    8  O1  UNL     1       3.463  16.158  35.455  1.00  0.00    -0.270 OA
ENDBRANCH   1   3
BRANCH   2   9
HETATM    9  C5  UNL     1      -0.224  12.543  33.026  1.00  0.00     0.329 C
BRANCH   9  10
HETATM   10  N1  UNL     1       0.384  11.271  33.246  1.00  0.00    -0.069 N
HETATM   11  C6  UNL     1      -0.032  10.395  32.143  1.00  0.00     0.272 C
HETATM   12  C7  UNL     1       0.058  10.650  34.489  1.00  0.00     0.272 C
HETATM   13  C8  UNL     1       1.846  11.362  33.128  1.00  0.00     0.272 C
ENDBRANCH   9  10
ENDBRANCH   2   9
TORSDOF 3
ENDMDL