MODEL 2
REMARK VINA RESULT: -6.056471440      0.781      1.041
REMARK  3 active torsions:
REMARK  status: ('A' for Active; 'I' for Inactive)
REMARK    1  A    between atoms: C6_6  and  C7_7
REMARK    2  A    between atoms: C7_7  and  C8_8
REMARK    3  A    between atoms: C8_8  and  O1_11
ROOT
HETATM    1  C1  UNL     1       0.804  14.928  34.383  1.00  0.00     0.043 C
HETATM    2  C2  UNL     1       0.561  13.642  34.079  1.00  0.00     0.023 A
HETATM    3  C3  UNL     1       1.174  12.933  33.080  1.00  0.00     0.037 A
HETATM    4  C4  UNL     1       0.651  11.634  33.081  1.00  0.00    -0.033 A
HETATM    5  C5  UNL     1       1.123  10.641  32.111  1.00  0.00     0.050 C
HETATM    6  C6  UNL     1      -0.270  11.602  34.090  1.00  0.00     0.037 A
HETATM    7  N1  UNL     1      -0.310  12.842  34.689  1.00  0.00    -0.357 N
ATOM      8  H1  UNL     1      -0.909  13.104  35.473  1.00  0.00     0.166 HD
ENDROOT
BRANCH   6   9
HETATM    9  C7  UNL     1      -1.020  10.626  34.503  1.00  0.00     0.039 C
BRANCH   9  10
HETATM   10  C8  UNL     1      -0.809   9.584  35.480  1.00  0.00     0.070 C
HETATM   11  C9  UNL     1       0.468   9.793  36.267  1.00  0.00     0.050 C
HETATM   12  C10 UNL     1      -0.520   8.221  34.732  1.00  0.00     0.050 C
BRANCH  10  13
HETATM   13  O1  UNL     1      -1.913   9.259  36.235  1.00  0.00    -0.387 OA
ATOM     14  H1  UNL     1      -1.860   8.426  36.689  1.00  0.00     0.211 HD
ENDBRANCH  10  13
ENDBRANCH   9  10
ENDBRANCH   6   9
TORSDOF 3
ENDMDL