MODEL 2
REMARK VINA RESULT: -5.453629737      1.390      3.815
REMARK  2 active torsions:
REMARK  status: ('A' for Active; 'I' for Inactive)
REMARK    1  A    between atoms: C2_2  and  C3_3
REMARK    2  A    between atoms: N2_11  and  N3_12
ROOT
HETATM    1  C3  UNL     1       0.082  10.863  33.809  1.00  0.00     0.058 A
HETATM    2  C4  UNL     1       0.942  10.691  32.763  1.00  0.00    -0.034 A
HETATM    3  C5  UNL     1       1.594  11.755  31.987  1.00  0.00     0.050 C
HETATM    4  C6  UNL     1       1.228   9.367  32.409  1.00  0.00     0.035 A
HETATM    5  C7  UNL     1       0.648   8.348  33.110  1.00  0.00     0.026 A
HETATM    6  C8  UNL     1       0.930   6.917  32.748  1.00  0.00     0.070 C
HETATM    7  N1  UNL     1      -0.195   8.598  34.137  1.00  0.00    -0.281 N
HETATM    8  C9  UNL     1      -0.817   7.509  34.903  1.00  0.00     0.179 C
HETATM    9  N2  UNL     1      -0.481   9.836  34.490  1.00  0.00    -0.205 N
ENDROOT
BRANCH   9  10
HETATM   10  N3  UNL     1      -1.365  10.109  35.558  1.00  0.00    -0.324 N
ATOM     11  H32 UNL     1      -1.080  10.692  36.344  1.00  0.00     0.178 HD
ATOM     12  H31 UNL     1      -2.305   9.714  35.547  1.00  0.00     0.178 HD
ENDBRANCH   9  10
BRANCH   1  13
HETATM   13  C2  UNL     1      -0.266  12.246  34.238  1.00  0.00     0.057 C
HETATM   14  C1  UNL     1      -1.421  12.806  33.455  1.00  0.00     0.011 C
ENDBRANCH   1  13
TORSDOF 2
ENDMDL