MODEL 3
REMARK VINA RESULT: -5.751821803      3.672      5.757
REMARK  3 active torsions:
REMARK  status: ('A' for Active; 'I' for Inactive)
REMARK    1  A    between atoms: C4_4  and  C5_5
REMARK    2  A    between atoms: C5_5  and  N1_6
REMARK    3  A    between atoms: N3_10  and  O1_11
ROOT
HETATM    1  C1  UNL     1       1.655  16.113  35.117  1.00  0.00     0.027 C
HETATM    2  C2  UNL     1       1.094  15.197  34.567  1.00  0.00    -0.026 C
HETATM    3  C3  UNL     1       0.450  14.107  33.934  1.00  0.00    -0.014 C
HETATM    4  C4  UNL     1      -0.087  13.169  33.410  1.00  0.00    -0.072 C
ENDROOT
BRANCH   4   5
HETATM    5  C5  UNL     1      -0.728  12.011  32.784  1.00  0.00     0.225 C
BRANCH   5   6
HETATM    6  N1  UNL     1      -0.303  10.795  33.452  1.00  0.00    -0.317 N
HETATM    7  C6  UNL     1      -0.793  10.381  34.641  1.00  0.00     0.204 A
HETATM    8  N2  UNL     1      -0.147   9.227  34.906  1.00  0.00    -0.269 N
HETATM    9  N3  UNL     1       0.691   8.963  33.920  1.00  0.00    -0.150 N
ATOM     10  H2  UNL     1      -0.284   8.650  35.736  1.00  0.00     0.190 HD
HETATM   11  C7  UNL     1       0.614   9.935  32.991  1.00  0.00     0.128 A
HETATM   12  C8  UNL     1       1.366  10.050  31.727  1.00  0.00     0.093 C
BRANCH   9  13
HETATM   13  O1  UNL     1       1.533   7.891  33.803  1.00  0.00    -0.267 OA
ATOM     14  H1  UNL     1       2.358   7.849  33.334  1.00  0.00     0.247 HD
ENDBRANCH   9  13
ENDBRANCH   5   6
ENDBRANCH   4   5
TORSDOF 3
ENDMDL