MODEL 2
REMARK VINA RESULT: -3.597408386      1.496      2.050
REMARK  1 active torsions:
REMARK  status: ('A' for Active; 'I' for Inactive)
REMARK    1  A    between atoms: C5_8  and  N2_10
ROOT
HETATM    1  C1  UNL     1       0.710   9.344  36.869  1.00  0.00     0.041 C
HETATM    2  C2  UNL     1       0.128  10.012  35.689  1.00  0.00     0.068 C
HETATM    3  C3  UNL     1       0.465  11.464  35.599  1.00  0.00     0.041 C
HETATM    4  N1  UNL     1      -1.325   9.744  35.735  1.00  0.00    -0.347 N
ATOM      5  H1  UNL     1      -2.160  10.204  36.098  1.00  0.00     0.163 HD
HETATM    6  C4  UNL     1      -1.013   8.541  35.034  1.00  0.00     0.257 C
HETATM    7  O1  UNL     1      -1.473   7.375  35.029  1.00  0.00    -0.271 OA
HETATM    8  C5  UNL     1       0.052   9.349  34.379  1.00  0.00     0.228 C
HETATM    9  C6  UNL     1      -0.655  10.289  33.383  1.00  0.00     0.060 C
ENDROOT
BRANCH   8  10
HETATM   10  N2  UNL     1       1.112   8.692  33.774  1.00  0.00    -0.059 N
HETATM   11  C7  UNL     1       1.911   7.810  34.549  1.00  0.00     0.273 C
HETATM   12  C8  UNL     1       0.610   7.934  32.616  1.00  0.00     0.273 C
HETATM   13  C9  UNL     1       2.071   9.654  33.194  1.00  0.00     0.273 C
ENDBRANCH   8  10
TORSDOF 1
ENDMDL