MODEL 3
REMARK VINA RESULT: -5.268693496      6.552      9.072
REMARK  5 active torsions:
REMARK  status: ('A' for Active; 'I' for Inactive)
REMARK    1  A    between atoms: C3_3  and  C4_4
REMARK    2  A    between atoms: C5_5  and  C6_6
REMARK    3  A    between atoms: C7_7  and  C8_8
REMARK    4  A    between atoms: C9_9  and  C10_10
REMARK    5  A    between atoms: C10_10  and  N1_11
ROOT
HETATM    1  C1  UNL     1      -3.742   4.257  37.056  1.00  0.00     0.113 C
HETATM    2  C2  UNL     1      -3.151   5.514  36.614  1.00  0.00    -0.097 C
HETATM    3  C3  UNL     1      -2.659   6.563  36.267  1.00  0.00    -0.015 C
ENDROOT
BRANCH   3   4
HETATM    4  C4  UNL     1      -2.070   7.792  35.852  1.00  0.00    -0.001 C
HETATM    5  C5  UNL     1      -1.576   8.828  35.481  1.00  0.00    -0.000 C
BRANCH   5   6
HETATM    6  C6  UNL     1      -1.006  10.049  35.021  1.00  0.00    -0.000 C
HETATM    7  C7  UNL     1      -0.517  11.078  34.626  1.00  0.00    -0.001 C
BRANCH   7   8
HETATM    8  C8  UNL     1       0.059  12.293  34.169  1.00  0.00    -0.013 C
HETATM    9  C9  UNL     1       0.568  13.321  33.790  1.00  0.00    -0.073 C
BRANCH   9  10
HETATM   10  C10 UNL     1       1.201  14.562  33.346  1.00  0.00     0.215 C
BRANCH  10  11
HETATM   11  N1  UNL     1       0.770  15.625  34.207  1.00  0.00    -0.378 N
HETATM   12  C11 UNL     1       1.409  15.970  35.253  1.00  0.00     0.185 C
HETATM   13  N2  UNL     1       2.611  15.357  35.694  1.00  0.00    -0.097 NA
ATOM     14  H1  UNL     1      -0.086  16.127  33.971  1.00  0.00     0.160 HD
ENDBRANCH  10  11
ENDBRANCH   9  10
ENDBRANCH   7   8
ENDBRANCH   5   6
ENDBRANCH   3   4
TORSDOF 5
ENDMDL