MODEL 5
REMARK VINA RESULT: -6.480726449      0.861      1.071
REMARK  3 active torsions:
REMARK  status: ('A' for Active; 'I' for Inactive)
REMARK    1  A    between atoms: C1_1  and  C7_13
REMARK    2  A    between atoms: N1_2  and  N2_4
REMARK    3  A    between atoms: N2_4  and  C2_6
ROOT
HETATM    1  N2  UNL     1      -8.162  37.638  22.177  1.00  0.00    -0.286 N
ATOM      2  H2  UNL     1      -9.008  37.113  22.398  1.00  0.00     0.188 HD
ENDROOT
BRANCH   1   3
HETATM    3  N1  UNL     1      -8.231  38.792  21.466  1.00  0.00    -0.308 N
HETATM    4  C1  UNL     1      -8.897  39.836  21.694  1.00  0.00     0.144 C
ATOM      5  H1  UNL     1      -7.657  38.818  20.623  1.00  0.00     0.186 HD
BRANCH   4   6
HETATM    6  C7  UNL     1      -9.792  40.081  22.812  1.00  0.00     0.091 A
HETATM    7  C8  UNL     1     -10.609  41.161  23.027  1.00  0.00     0.040 A
HETATM    8  C9  UNL     1     -11.298  40.977  24.237  1.00  0.00     0.027 A
HETATM    9  C10 UNL     1     -10.841  39.762  24.688  1.00  0.00     0.142 A
HETATM   10  O1  UNL     1      -9.983  39.274  23.856  1.00  0.00    -0.321 OA
ENDBRANCH   4   6
ENDBRANCH   1   3
BRANCH   1  11
HETATM   11  C2  UNL     1      -6.993  37.213  22.572  1.00  0.00     0.119 A
HETATM   12  C3  UNL     1      -6.829  36.511  23.742  1.00  0.00     0.050 A
HETATM   13  C4  UNL     1      -5.607  36.047  24.190  1.00  0.00     0.005 A
HETATM   14  C5  UNL     1      -4.503  36.310  23.409  1.00  0.00     0.017 A
HETATM   15  C6  UNL     1      -4.672  37.013  22.237  1.00  0.00     0.089 A
HETATM   16  N3  UNL     1      -5.873  37.446  21.837  1.00  0.00    -0.351 N
ATOM     17  H3  UNL     1      -5.949  37.964  20.961  1.00  0.00     0.166 HD
ENDBRANCH   1  11
TORSDOF 3
ENDMDL