MODEL 4
REMARK VINA RESULT: -6.504859565      1.189      1.958
REMARK  3 active torsions:
REMARK  status: ('A' for Active; 'I' for Inactive)
REMARK    1  A    between atoms: C1_1  and  C6_14
REMARK    2  A    between atoms: N1_2  and  N2_4
REMARK    3  A    between atoms: N2_4  and  C2_6
ROOT
HETATM    1  C1  UNL     1      -9.404  38.542  25.299  1.00  0.00     0.119 C
HETATM    2  N1  UNL     1      -9.239  37.523  24.538  1.00  0.00    -0.309 N
ATOM      3  H1  UNL     1      -9.915  37.347  23.795  1.00  0.00     0.186 HD
ENDROOT
BRANCH   2   4
HETATM    4  N2  UNL     1      -8.177  36.658  24.691  1.00  0.00    -0.285 N
ATOM      5  H2  UNL     1      -8.276  35.895  25.360  1.00  0.00     0.188 HD
BRANCH   4   6
HETATM    6  C2  UNL     1      -7.066  36.751  24.042  1.00  0.00     0.135 A
HETATM    7  C3  UNL     1      -7.097  37.085  22.704  1.00  0.00     0.137 A
HETATM    8  N3  UNL     1      -5.963  37.194  21.987  1.00  0.00    -0.371 N
HETATM    9  C4  UNL     1      -4.752  36.985  22.538  1.00  0.00     0.104 A
ATOM     10  H3  UNL     1      -6.022  37.442  21.000  1.00  0.00     0.164 HD
HETATM   11  C5  UNL     1      -4.721  36.652  23.876  1.00  0.00     0.106 A
HETATM   12  N4  UNL     1      -5.859  36.541  24.599  1.00  0.00    -0.349 N
ATOM     13  H4  UNL     1      -5.801  36.293  25.587  1.00  0.00     0.167 HD
ENDBRANCH   4   6
ENDBRANCH   2   4
BRANCH   1  14
HETATM   14  C6  UNL     1     -10.568  39.423  25.070  1.00  0.00    -0.004 A
HETATM   15  C7  UNL     1     -11.565  39.513  26.017  1.00  0.00     0.015 A
HETATM   16  C8  UNL     1     -12.655  40.341  25.798  1.00  0.00     0.018 A
HETATM   17  C9  UNL     1     -12.676  41.046  24.610  1.00  0.00     0.087 A
HETATM   18  N5  UNL     1     -11.717  40.963  23.694  1.00  0.00    -0.374 N
HETATM   19  C10 UNL     1     -10.664  40.161  23.910  1.00  0.00     0.100 A
ATOM     20  H5  UNL     1     -11.782  41.506  22.833  1.00  0.00     0.164 HD
ENDBRANCH   1  14
TORSDOF 3
ENDMDL