MODEL 3
REMARK VINA RESULT: -7.092893949      0.120      1.271
REMARK  2 active torsions:
REMARK  status: ('A' for Active; 'I' for Inactive)
REMARK    1  A    between atoms: C2_3  and  C3_4
REMARK    2  A    between atoms: C2_3  and  C9_10
ROOT
HETATM    1  N1  UNL     1     -12.025  41.030  21.748  1.00  0.00    -0.196 NA
HETATM    2  C1  UNL     1     -10.913  40.732  21.869  1.00  0.00     0.076 C
HETATM    3  C2  UNL     1      -9.491  40.339  22.003  1.00  0.00     0.195 C
ENDROOT
BRANCH   3   4
HETATM    4  C3  UNL     1      -9.413  39.029  22.664  1.00  0.00    -0.033 A
HETATM    5  C4  UNL     1      -9.427  38.830  24.029  1.00  0.00     0.009 A
HETATM    6  C5  UNL     1      -9.351  37.571  24.587  1.00  0.00     0.001 A
HETATM    7  C6  UNL     1      -9.255  36.464  23.762  1.00  0.00     0.000 A
HETATM    8  C7  UNL     1      -9.238  36.630  22.396  1.00  0.00     0.001 A
HETATM    9  C8  UNL     1      -9.317  37.912  21.858  1.00  0.00     0.009 A
ENDBRANCH   3   4
BRANCH   3  10
HETATM   10  C9  UNL     1      -8.907  40.326  20.631  1.00  0.00     0.132 A
HETATM   11  N2  UNL     1      -7.594  40.226  20.348  1.00  0.00    -0.274 N
HETATM   12  N3  UNL     1      -7.432  40.245  19.048  1.00  0.00    -0.225 N
ATOM     13  H2  UNL     1      -6.844  40.148  21.036  1.00  0.00     0.189 HD
HETATM   14  N4  UNL     1      -8.611  40.356  18.466  1.00  0.00    -0.005 NA
ATOM     15  H3  UNL     1      -6.537  40.183  18.564  1.00  0.00     0.205 HD
HETATM   16  N5  UNL     1      -9.518  40.404  19.445  1.00  0.00    -0.269 N
ATOM     17  H5  UNL     1     -10.525  40.489  19.309  1.00  0.00     0.185 HD
ENDBRANCH   3  10
TORSDOF 2
ENDMDL