MODEL 5
REMARK VINA RESULT: -6.973130336      0.929      1.916
REMARK  3 active torsions:
REMARK  status: ('A' for Active; 'I' for Inactive)
REMARK    1  A    between atoms: C1_1  and  C5_15
REMARK    2  A    between atoms: N1_2  and  N2_4
REMARK    3  A    between atoms: N2_4  and  C2_6
ROOT
HETATM    1  N2  UNL     1      -7.545  36.522  24.937  1.00  0.00    -0.131 N
ATOM      2  H2  UNL     1      -7.634  35.878  25.723  1.00  0.00     0.205 HD
ENDROOT
BRANCH   1   3
HETATM    3  N1  UNL     1      -8.597  37.353  24.666  1.00  0.00    -0.297 N
HETATM    4  C1  UNL     1      -8.988  38.330  25.408  1.00  0.00     0.119 C
ATOM      5  H1  UNL     1      -9.116  37.186  23.804  1.00  0.00     0.186 HD
BRANCH   4   6
HETATM    6  C5  UNL     1     -10.118  39.169  25.049  1.00  0.00    -0.019 A
HETATM    7  C6  UNL     1     -11.135  39.358  25.962  1.00  0.00     0.013 A
HETATM    8  C7  UNL     1     -12.194  40.157  25.600  1.00  0.00     0.001 A
HETATM    9  C8  UNL     1     -12.243  40.752  24.362  1.00  0.00     0.000 A
HETATM   10  C9  UNL     1     -11.219  40.552  23.463  1.00  0.00     0.001 A
HETATM   11  C10 UNL     1     -10.150  39.760  23.802  1.00  0.00     0.013 A
ENDBRANCH   4   6
ENDBRANCH   1   3
BRANCH   1  12
HETATM   12  C2  UNL     1      -6.444  36.502  24.256  1.00  0.00     0.711 A
HETATM   13  N3  UNL     1      -6.449  36.985  22.997  1.00  0.00    -0.198 N
HETATM   14  C3  UNL     1      -5.316  36.979  22.260  1.00  0.00     0.124 A
ATOM     15  H3  UNL     1      -7.312  37.355  22.599  1.00  0.00     0.183 HD
HETATM   16  C4  UNL     1      -4.145  36.478  22.793  1.00  0.00     0.125 A
HETATM   17  N4  UNL     1      -4.177  36.005  24.052  1.00  0.00    -0.296 N
HETATM   18  N5  UNL     1      -5.293  36.015  24.766  1.00  0.00    -0.131 N
ATOM     19  H4  UNL     1      -3.323  35.630  24.466  1.00  0.00     0.186 HD
ATOM     20  H5  UNL     1      -5.282  35.649  25.718  1.00  0.00     0.205 HD
ENDBRANCH   1  12
TORSDOF 3
ENDMDL