MODEL 4
REMARK VINA RESULT: -7.275232120      1.198      2.019
REMARK  3 active torsions:
REMARK  status: ('A' for Active; 'I' for Inactive)
REMARK    1  A    between atoms: C1_1  and  C5_15
REMARK    2  A    between atoms: N1_2  and  N2_4
REMARK    3  A    between atoms: N2_4  and  C2_6
ROOT
HETATM    1  N2  UNL     1      -8.333  37.226  22.220  1.00  0.00    -0.131 N
ATOM      2  H2  UNL     1      -9.039  36.490  22.243  1.00  0.00     0.205 HD
ENDROOT
BRANCH   1   3
HETATM    3  N1  UNL     1      -8.646  38.450  21.755  1.00  0.00    -0.297 N
HETATM    4  C1  UNL     1      -9.305  39.374  22.265  1.00  0.00     0.119 C
ATOM      5  H1  UNL     1      -8.279  38.655  20.825  1.00  0.00     0.186 HD
BRANCH   4   6
HETATM    6  C5  UNL     1      -9.961  39.447  23.534  1.00  0.00    -0.019 A
HETATM    7  C6  UNL     1     -11.105  40.258  23.661  1.00  0.00     0.013 A
HETATM    8  C7  UNL     1     -11.778  40.368  24.857  1.00  0.00     0.001 A
HETATM    9  C8  UNL     1     -11.354  39.690  25.967  1.00  0.00     0.000 A
HETATM   10  C9  UNL     1     -10.251  38.900  25.873  1.00  0.00     0.001 A
HETATM   11  C10 UNL     1      -9.558  38.786  24.644  1.00  0.00     0.013 A
ENDBRANCH   4   6
ENDBRANCH   1   3
BRANCH   1  12
HETATM   12  C2  UNL     1      -7.122  36.986  22.641  1.00  0.00     0.711 A
HETATM   13  N3  UNL     1      -6.979  36.320  23.797  1.00  0.00    -0.131 N
HETATM   14  N4  UNL     1      -5.765  36.075  24.230  1.00  0.00    -0.296 N
ATOM     15  H3  UNL     1      -7.794  36.011  24.327  1.00  0.00     0.205 HD
HETATM   16  C3  UNL     1      -4.663  36.455  23.577  1.00  0.00     0.125 A
ATOM     17  H4  UNL     1      -5.657  35.568  25.109  1.00  0.00     0.186 HD
HETATM   18  C4  UNL     1      -4.813  37.137  22.393  1.00  0.00     0.124 A
HETATM   19  N5  UNL     1      -6.047  37.395  21.938  1.00  0.00    -0.198 N
ATOM     20  H5  UNL     1      -6.173  37.901  21.062  1.00  0.00     0.183 HD
ENDBRANCH   1  12
TORSDOF 3
ENDMDL