MODEL 2
REMARK VINA RESULT: -6.773087259      0.155      1.211
REMARK  3 active torsions:
REMARK  status: ('A' for Active; 'I' for Inactive)
REMARK    1  A    between atoms: C1_1  and  C6_14
REMARK    2  A    between atoms: N1_2  and  N2_4
REMARK    3  A    between atoms: N2_4  and  C2_6
ROOT
HETATM    1  C1  UNL     1      -9.406  38.795  23.198  1.00  0.00     0.120 C
HETATM    2  N1  UNL     1      -9.326  37.534  23.059  1.00  0.00    -0.297 N
ATOM      3  H1  UNL     1      -9.969  36.921  23.561  1.00  0.00     0.186 HD
ENDROOT
BRANCH   2   4
HETATM    4  N2  UNL     1      -8.360  36.996  22.223  1.00  0.00    -0.132 N
ATOM      5  H2  UNL     1      -8.607  36.692  21.281  1.00  0.00     0.205 HD
BRANCH   4   6
HETATM    6  C2  UNL     1      -7.137  36.881  22.647  1.00  0.00     0.696 A
HETATM    7  N3  UNL     1      -6.105  37.356  21.926  1.00  0.00    -0.200 N
HETATM    8  C3  UNL     1      -4.830  37.251  22.339  1.00  0.00     0.107 A
ATOM      9  H3  UNL     1      -6.298  37.811  21.034  1.00  0.00     0.183 HD
HETATM   10  C4  UNL     1      -4.528  36.642  23.541  1.00  0.00     0.035 A
HETATM   11  C5  UNL     1      -5.592  36.159  24.274  1.00  0.00     0.107 A
HETATM   12  N4  UNL     1      -6.862  36.285  23.820  1.00  0.00    -0.200 N
ATOM     13  H4  UNL     1      -7.629  35.918  24.383  1.00  0.00     0.183 HD
ENDBRANCH   4   6
ENDBRANCH   2   4
BRANCH   1  14
HETATM   14  C6  UNL     1     -10.450  39.331  24.099  1.00  0.00    -0.004 A
HETATM   15  C7  UNL     1     -11.148  40.452  23.704  1.00  0.00     0.015 A
HETATM   16  C8  UNL     1     -12.131  40.952  24.559  1.00  0.00     0.018 A
HETATM   17  C9  UNL     1     -12.373  40.318  25.764  1.00  0.00     0.087 A
HETATM   18  N5  UNL     1     -11.673  39.212  26.136  1.00  0.00    -0.374 N
HETATM   19  C10 UNL     1     -10.722  38.728  25.308  1.00  0.00     0.100 A
ATOM     20  H5  UNL     1     -11.864  38.756  27.028  1.00  0.00     0.164 HD
ENDBRANCH   1  14
TORSDOF 3
ENDMDL