MODEL 3
REMARK VINA RESULT: -6.618122015      3.805      6.315
REMARK  3 active torsions:
REMARK  status: ('A' for Active; 'I' for Inactive)
REMARK    1  A    between atoms: C1_1  and  C6_14
REMARK    2  A    between atoms: N1_2  and  N2_4
REMARK    3  A    between atoms: N2_4  and  C2_6
ROOT
HETATM    1  C1  UNL     1      -9.443  37.338  22.230  1.00  0.00     0.118 C
HETATM    2  N1  UNL     1      -9.261  38.236  21.323  1.00  0.00    -0.309 N
ATOM      3  H1  UNL     1      -8.391  38.767  21.337  1.00  0.00     0.186 HD
ENDROOT
BRANCH   2   4
HETATM    4  N2  UNL     1     -10.179  38.517  20.336  1.00  0.00    -0.285 N
ATOM      5  H2  UNL     1     -10.897  37.817  20.145  1.00  0.00     0.188 HD
BRANCH   4   6
HETATM    6  C2  UNL     1     -10.197  39.598  19.638  1.00  0.00     0.135 A
HETATM    7  C3  UNL     1     -11.022  40.634  20.004  1.00  0.00     0.137 A
HETATM    8  N3  UNL     1     -11.060  41.790  19.283  1.00  0.00    -0.371 N
HETATM    9  C4  UNL     1     -10.292  41.951  18.191  1.00  0.00     0.104 A
ATOM     10  H3  UNL     1     -11.681  42.544  19.576  1.00  0.00     0.164 HD
HETATM   11  C5  UNL     1      -9.470  40.903  17.836  1.00  0.00     0.106 A
HETATM   12  N4  UNL     1      -9.422  39.741  18.550  1.00  0.00    -0.349 N
ATOM     13  H4  UNL     1      -8.802  38.985  18.260  1.00  0.00     0.167 HD
ENDBRANCH   4   6
ENDBRANCH   2   4
BRANCH   1  14
HETATM   14  C6  UNL     1      -8.425  37.100  23.239  1.00  0.00    -0.017 A
HETATM   15  C7  UNL     1      -8.682  37.163  24.578  1.00  0.00     0.030 A
HETATM   16  C8  UNL     1      -7.640  36.919  25.450  1.00  0.00     0.088 A
HETATM   17  N5  UNL     1      -6.397  36.625  25.069  1.00  0.00    -0.375 N
HETATM   18  C9  UNL     1      -6.135  36.561  23.753  1.00  0.00     0.088 A
ATOM     19  H5  UNL     1      -5.664  36.453  25.758  1.00  0.00     0.164 HD
HETATM   20  C10 UNL     1      -7.130  36.793  22.855  1.00  0.00     0.030 A
ENDBRANCH   1  14
TORSDOF 3
ENDMDL