MODEL 2
REMARK VINA RESULT: -4.623370756      3.012      4.118
REMARK  2 active torsions:
REMARK  status: ('A' for Active; 'I' for Inactive)
REMARK    1  A    between atoms: S1_2  and  C2_3
REMARK    2  A    between atoms: C2_3  and  C3_4
ROOT
HETATM    1  C3  UNL     1      -9.161  38.790  21.961  1.00  0.00     0.167 C
HETATM    2  O1  UNL     1      -9.956  38.727  20.822  1.00  0.00    -0.349 OA
HETATM    3  C4  UNL     1     -10.544  39.987  20.672  1.00  0.00     0.307 C
HETATM    4  O2  UNL     1     -11.311  40.214  21.796  1.00  0.00    -0.207 OA
HETATM    5  O3  UNL     1     -10.517  40.455  22.804  1.00  0.00    -0.229 OA
HETATM    6  C5  UNL     1      -9.212  40.232  22.368  1.00  0.00     0.203 C
HETATM    7  C6  UNL     1      -9.344  40.875  20.990  1.00  0.00     0.037 C
HETATM    8  C7  UNL     1      -9.721  42.315  21.153  1.00  0.00     0.023 C
HETATM    9  C8  UNL     1      -8.173  40.632  20.108  1.00  0.00     0.023 C
ENDROOT
BRANCH   1  10
HETATM   10  C2  UNL     1      -9.706  37.990  23.112  1.00  0.00     0.108 C
BRANCH  10  11
HETATM   11  S1  UNL     1      -8.747  36.519  23.490  1.00  0.00    -0.171 SA
HETATM   12  C1  UNL     1      -7.776  36.839  24.984  1.00  0.00     0.089 C
ENDBRANCH  10  11
ENDBRANCH   1  10
TORSDOF 2
ENDMDL