MODEL 1
REMARK VINA RESULT: -7.236508964      0.000      0.000
REMARK  3 active torsions:
REMARK  status: ('A' for Active; 'I' for Inactive)
REMARK    1  A    between atoms: C1_1  and  C6_14
REMARK    2  A    between atoms: N1_2  and  N2_4
REMARK    3  A    between atoms: N2_4  and  C2_6
ROOT
HETATM    1  C1  UNL     1      -9.288  39.597  22.306  1.00  0.00     0.119 C
HETATM    2  N1  UNL     1      -8.644  38.679  21.790  1.00  0.00    -0.309 N
ATOM      3  H1  UNL     1      -8.221  38.933  20.898  1.00  0.00     0.186 HD
ENDROOT
BRANCH   2   4
HETATM    4  N2  UNL     1      -8.386  37.410  22.164  1.00  0.00    -0.285 N
ATOM      5  H2  UNL     1      -9.113  36.696  22.103  1.00  0.00     0.188 HD
BRANCH   4   6
HETATM    6  C2  UNL     1      -7.192  37.100  22.607  1.00  0.00     0.134 A
HETATM    7  C3  UNL     1      -7.027  36.450  23.813  1.00  0.00     0.052 A
HETATM    8  C4  UNL     1      -5.774  36.124  24.279  1.00  0.00     0.022 A
HETATM    9  C5  UNL     1      -4.675  36.462  23.512  1.00  0.00     0.107 A
HETATM   10  N3  UNL     1      -4.897  37.092  22.348  1.00  0.00    -0.310 N
HETATM   11  N4  UNL     1      -6.087  37.409  21.890  1.00  0.00    -0.285 N
ATOM     12  H3  UNL     1      -4.087  37.343  21.781  1.00  0.00     0.186 HD
ATOM     13  H4  UNL     1      -6.178  37.888  20.995  1.00  0.00     0.188 HD
ENDBRANCH   4   6
ENDBRANCH   2   4
BRANCH   1  14
HETATM   14  C6  UNL     1     -10.015  39.602  23.555  1.00  0.00    -0.004 A
HETATM   15  C7  UNL     1      -9.618  38.937  24.694  1.00  0.00     0.015 A
HETATM   16  C8  UNL     1     -10.403  39.011  25.855  1.00  0.00     0.018 A
HETATM   17  C9  UNL     1     -11.566  39.746  25.854  1.00  0.00     0.087 A
HETATM   18  N5  UNL     1     -11.943  40.386  24.749  1.00  0.00    -0.374 N
HETATM   19  C10 UNL     1     -11.216  40.329  23.642  1.00  0.00     0.100 A
ATOM     20  H5  UNL     1     -12.807  40.930  24.755  1.00  0.00     0.164 HD
ENDBRANCH   1  14
TORSDOF 3
ENDMDL