MODEL 3
REMARK VINA RESULT: -5.243177456      0.815      1.722
REMARK  3 active torsions:
REMARK  status: ('A' for Active; 'I' for Inactive)
REMARK       I    between atoms: C2_2  and  N1_4
REMARK    1  A    between atoms: C3_6  and  S1_8
REMARK    2  A    between atoms: S1_8  and  C4_9
REMARK    3  A    between atoms: C4_9  and  C6_11
ROOT
HETATM    1  C1  UNL     1      -4.136  37.930  22.236  1.00  0.00     0.117 C
HETATM    2  C2  UNL     1      -4.847  36.772  22.837  1.00  0.00     0.219 C
HETATM    3  O1  UNL     1      -4.223  35.743  23.138  1.00  0.00    -0.274 OA
HETATM    4  N1  UNL     1      -6.248  36.890  23.049  1.00  0.00    -0.310 N
ATOM      5  H1  UNL     1      -6.856  37.078  22.252  1.00  0.00     0.170 HD
HETATM    6  C3  UNL     1      -6.775  36.764  24.238  1.00  0.00     0.157 C
HETATM    7  N2  UNL     1      -6.005  36.505  25.388  1.00  0.00    -0.075 NA
ENDROOT
BRANCH   6   8
HETATM    8  S1  UNL     1      -8.553  36.941  24.313  1.00  0.00    -0.085 SA
BRANCH   8   9
HETATM    9  C4  UNL     1      -9.151  38.283  23.298  1.00  0.00     0.120 C
HETATM   10  C5  UNL     1      -9.810  37.699  22.047  1.00  0.00     0.030 C
BRANCH   9  11
HETATM   11  C6  UNL     1     -10.188  39.024  24.067  1.00  0.00     0.136 C
HETATM   12  C7  UNL     1     -10.424  38.787  25.520  1.00  0.00     0.092 C
HETATM   13  O2  UNL     1     -10.891  39.862  23.531  1.00  0.00    -0.297 OA
ENDBRANCH   9  11
ENDBRANCH   8   9
ENDBRANCH   6   8
TORSDOF 3
ENDMDL