MODEL 1
REMARK VINA RESULT: -7.285185143      0.000      0.000
REMARK  2 active torsions:
REMARK  status: ('A' for Active; 'I' for Inactive)
REMARK       I    between atoms: N2_3  and  C2_4
REMARK       I    between atoms: C2_4  and  N3_6
REMARK    1  A    between atoms: N4_12  and  C8_13
REMARK    2  A    between atoms: C8_13  and  C9_14
ROOT
HETATM    1  N1  UNL     1      -6.799  18.421  84.744  1.00  0.00    -0.156 NA
HETATM    2  C1  UNL     1      -7.348  17.727  84.013  1.00  0.00     0.273 C
HETATM    3  N2  UNL     1      -7.930  16.945  83.124  1.00  0.00    -0.272 NA
HETATM    4  C2  UNL     1      -8.541  16.115  82.190  1.00  0.00     0.406 C
HETATM    5  O1  UNL     1      -8.555  14.866  82.207  1.00  0.00    -0.229 OA
HETATM    6  N3  UNL     1      -9.237  16.806  81.129  1.00  0.00    -0.321 N
HETATM    7  C3  UNL     1      -9.786  18.130  81.469  1.00  0.00     0.129 C
HETATM    8  C4  UNL     1      -9.840  18.833  80.176  1.00  0.00     0.031 C
HETATM    9  C5  UNL     1     -10.200  17.691  79.184  1.00  0.00    -0.019 C
HETATM   10  C6  UNL     1      -9.794  18.167  77.803  1.00  0.00     0.041 C
HETATM   11  C7  UNL     1     -10.947  19.008  77.253  1.00  0.00     0.273 C
HETATM   12  N4  UNL     1     -12.145  18.260  77.081  1.00  0.00     0.088 N
HETATM   13  C12 UNL     1     -12.042  16.996  77.775  1.00  0.00     0.273 C
HETATM   14  C13 UNL     1     -11.661  17.358  79.189  1.00  0.00     0.041 C
HETATM   15  C14 UNL     1      -9.424  16.523  79.744  1.00  0.00     0.138 C
ENDROOT
BRANCH  12  16
HETATM   16  C8  UNL     1     -12.543  18.098  75.675  1.00  0.00     0.277 C
BRANCH  16  17
HETATM   17  C9  UNL     1     -13.811  17.297  75.676  1.00  0.00     0.014 A
HETATM   18  C10 UNL     1     -14.299  16.538  74.536  1.00  0.00     0.007 A
HETATM   19  C11 UNL     1     -14.917  17.863  74.847  1.00  0.00     0.007 A
ENDBRANCH  16  17
ENDBRANCH  12  16
TORSDOF 2
ENDMDL