MODEL 1
REMARK VINA RESULT: -7.165861089      0.000      0.000
REMARK  3 active torsions:
REMARK  status: ('A' for Active; 'I' for Inactive)
REMARK    1  A    between atoms: C1_2  and  C2_3
REMARK       I    between atoms: C1_2  and  N1_8
REMARK    2  A    between atoms: C2_3  and  C3_4
REMARK    3  A    between atoms: C14_17  and  O3_18
ROOT
HETATM    1  O1  UNL     1     -10.924  19.766  77.397  1.00  0.00    -0.273 OA
HETATM    2  C1  UNL     1      -9.983  19.924  78.195  1.00  0.00     0.220 C
HETATM    3  N1  UNL     1      -9.439  18.822  78.868  1.00  0.00    -0.352 N
HETATM    4  C7  UNL     1      -8.351  18.950  79.800  1.00  0.00     0.126 C
HETATM    5  C8  UNL     1      -8.069  17.670  80.518  1.00  0.00     0.031 C
HETATM    6  C9  UNL     1      -9.282  16.915  80.944  1.00  0.00    -0.013 C
HETATM    7  C10 UNL     1     -10.384  16.888  79.936  1.00  0.00     0.031 C
HETATM    8  C11 UNL     1      -9.984  17.509  78.619  1.00  0.00     0.126 C
HETATM    9  C12 UNL     1      -9.787  17.484  82.262  1.00  0.00     0.177 C
HETATM   10  O2  UNL     1     -10.413  16.459  82.994  1.00  0.00    -0.388 OA
HETATM   11  C13 UNL     1      -9.414  15.756  83.667  1.00  0.00     0.199 C
HETATM   12  C14 UNL     1      -8.410  15.301  82.651  1.00  0.00     0.142 C
HETATM   13  C15 UNL     1      -8.877  15.476  81.227  1.00  0.00     0.045 C
ENDROOT
BRANCH   2  14
HETATM   14  C2  UNL     1      -9.424  21.265  78.451  1.00  0.00     0.107 C
BRANCH  14  15
HETATM   15  C3  UNL     1      -8.380  21.667  77.445  1.00  0.00    -0.006 C
HETATM   16  C4  UNL     1      -8.209  20.671  76.321  1.00  0.00     0.005 C
HETATM   17  C5  UNL     1      -6.709  20.894  76.424  1.00  0.00     0.001 C
HETATM   18  C6  UNL     1      -6.959  21.422  77.836  1.00  0.00     0.005 C
ENDBRANCH  14  15
ENDBRANCH   2  14
BRANCH  12  19
HETATM   19  O3  UNL     1      -7.174  15.922  82.837  1.00  0.00    -0.393 OA
ATOM     20  H3  UNL     1      -6.997  16.079  83.757  1.00  0.00     0.210 HD
ENDBRANCH  12  19
TORSDOF 3
ENDMDL