MODEL 5
REMARK VINA RESULT: -6.733644496      1.858      3.958
REMARK  3 active torsions:
REMARK  status: ('A' for Active; 'I' for Inactive)
REMARK    1  A    between atoms: N1_1  and  C1_5
REMARK       I    between atoms: N2_8  and  C4_9
REMARK    2  A    between atoms: C4_9  and  C5_11
REMARK    3  A    between atoms: N3_15  and  C9_16
ROOT
HETATM    1  C5  UNL     1     -10.177  19.067  79.445  1.00  0.00     0.314 C
HETATM    2  C6  UNL     1      -9.234  20.223  79.437  1.00  0.00     0.047 C
HETATM    3  C7  UNL     1      -9.034  20.625  78.013  1.00  0.00     0.033 C
HETATM    4  C8  UNL     1      -9.522  19.428  77.231  1.00  0.00     0.274 C
HETATM    5  N3  UNL     1     -10.338  18.655  78.101  1.00  0.00     0.106 N
ENDROOT
BRANCH   1   6
HETATM    6  C4  UNL     1      -9.559  17.984  80.282  1.00  0.00     0.253 C
HETATM    7  N2  UNL     1      -9.782  17.901  81.677  1.00  0.00    -0.348 N
HETATM    8  C3  UNL     1      -9.221  16.889  82.540  1.00  0.00     0.128 C
HETATM    9  C15 UNL     1     -10.606  18.827  82.421  1.00  0.00     0.158 C
HETATM   10  C2  UNL     1     -10.120  16.863  83.758  1.00  0.00     0.054 C
HETATM   11  C1  UNL     1     -10.837  18.194  83.775  1.00  0.00     0.203 C
HETATM   12  O1  UNL     1      -8.823  17.138  79.681  1.00  0.00    -0.271 OA
BRANCH  11  13
HETATM   13  N1  UNL     1     -10.287  18.985  84.853  1.00  0.00    -0.073 N
ATOM     14  H13 UNL     1     -10.937  19.691  85.197  1.00  0.00     0.274 HD
ATOM     15  H12 UNL     1     -10.188  18.456  85.720  1.00  0.00     0.274 HD
ATOM     16  H11 UNL     1      -9.405  19.385  84.532  1.00  0.00     0.274 HD
ENDBRANCH  11  13
ENDBRANCH   1   6
BRANCH   5  17
HETATM   17  C9  UNL     1     -11.709  18.529  77.668  1.00  0.00     0.224 C
HETATM   18  C10 UNL     1     -12.339  17.233  78.106  1.00  0.00     0.036 C
HETATM   19  C11 UNL     1     -13.725  17.141  77.531  1.00  0.00     0.002 C
HETATM   20  C12 UNL     1     -13.576  17.050  76.018  1.00  0.00     0.000 C
HETATM   21  C13 UNL     1     -13.072  18.409  75.564  1.00  0.00     0.002 C
HETATM   22  C14 UNL     1     -11.747  18.744  76.196  1.00  0.00     0.036 C
ENDBRANCH   5  17
TORSDOF 3
ENDMDL