MODEL 1
REMARK VINA RESULT: -7.038756485      0.000      0.000
REMARK  2 active torsions:
REMARK  status: ('A' for Active; 'I' for Inactive)
REMARK    1  A    between atoms: C1_2  and  C2_4
REMARK    2  A    between atoms: C2_4  and  C3_5
ROOT
HETATM    1  C3  UNL     1      -9.876  18.933  80.071  1.00  0.00    -0.032 C
HETATM    2  C4  UNL     1     -10.781  18.073  79.256  1.00  0.00     0.014 C
HETATM    3  C5  UNL     1     -10.884  16.750  79.978  1.00  0.00    -0.013 C
HETATM    4  C6  UNL     1     -11.555  16.929  81.290  1.00  0.00     0.010 C
HETATM    5  C7  UNL     1     -11.096  18.058  82.120  1.00  0.00     0.001 C
HETATM    6  C8  UNL     1     -10.323  19.151  81.470  1.00  0.00     0.015 C
HETATM    7  C9  UNL     1     -10.428  17.586  83.397  1.00  0.00     0.145 C
HETATM    8  S1  UNL     1      -9.070  16.545  83.211  1.00  0.00     0.145 S
HETATM    9  O2  UNL     1      -8.231  16.755  84.486  1.00  0.00    -0.228 OA
HETATM   10  O3  UNL     1      -9.484  15.084  83.366  1.00  0.00    -0.228 OA
HETATM   11  C10 UNL     1      -7.967  16.821  81.924  1.00  0.00     0.145 C
HETATM   12  C11 UNL     1      -8.430  16.887  80.513  1.00  0.00     0.001 C
HETATM   13  C12 UNL     1      -9.596  16.035  80.151  1.00  0.00     0.010 C
HETATM   14  C13 UNL     1      -8.499  18.301  80.010  1.00  0.00     0.015 C
ENDROOT
BRANCH   1  15
HETATM   15  C2  UNL     1      -9.710  20.256  79.349  1.00  0.00     0.109 C
BRANCH  15  16
HETATM   16  C1  UNL     1      -9.540  20.130  77.908  1.00  0.00     0.231 C
HETATM   17  N1  UNL     1     -10.648  20.212  77.030  1.00  0.00    -0.062 NA
HETATM   18  O1  UNL     1      -8.389  19.945  77.410  1.00  0.00    -0.277 OA
ENDBRANCH  15  16
ENDBRANCH   1  15
TORSDOF 2
ENDMDL