MODEL 3
REMARK VINA RESULT: -6.815131172      2.316      5.682
REMARK  5 active torsions:
REMARK  status: ('A' for Active; 'I' for Inactive)
REMARK    1  A    between atoms: O1_1  and  C1_3
REMARK    2  A    between atoms: C1_3  and  N1_4
REMARK    3  A    between atoms: C1_3  and  C8_13
REMARK    4  A    between atoms: C5_8  and  O2_9
REMARK    5  A    between atoms: C8_13  and  N2_14
ROOT
HETATM    1  C1  UNL     1     -10.866  17.969  80.225  1.00  0.00     0.142 C
ENDROOT
BRANCH   1   2
HETATM    2  O1  UNL     1     -12.015  17.351  79.987  1.00  0.00    -0.348 OA
ATOM      3  H1  UNL     1     -12.643  17.466  80.690  1.00  0.00     0.219 HD
ENDBRANCH   1   2
BRANCH   1   4
HETATM    4  N1  UNL     1     -10.359  18.606  79.098  1.00  0.00    -0.363 N
HETATM    5  C2  UNL     1     -10.249  17.709  77.923  1.00  0.00     0.124 C
HETATM    6  C3  UNL     1     -11.038  18.327  76.787  1.00  0.00     0.022 C
HETATM    7  C4  UNL     1     -10.350  19.477  76.145  1.00  0.00     0.033 C
HETATM    8  C5  UNL     1      -9.049  19.842  76.803  1.00  0.00     0.119 C
HETATM    9  C6  UNL     1      -9.180  20.571  78.084  1.00  0.00     0.051 C
HETATM   10  C7  UNL     1      -9.967  19.964  79.189  1.00  0.00     0.127 C
BRANCH   8  11
HETATM   11  O2  UNL     1      -8.465  20.782  75.903  1.00  0.00    -0.396 OA
ATOM     12  H2  UNL     1      -8.081  21.435  76.477  1.00  0.00     0.210 HD
ENDBRANCH   8  11
ENDBRANCH   1   4
BRANCH   1  13
HETATM   13  C8  UNL     1     -10.428  17.822  81.604  1.00  0.00     0.093 C
HETATM   14  C13 UNL     1     -11.571  17.157  82.476  1.00  0.00     0.040 C
HETATM   15  C14 UNL     1     -11.909  18.532  82.923  1.00  0.00     0.006 C
HETATM   16  C15 UNL     1     -10.457  18.877  82.625  1.00  0.00     0.040 C
BRANCH  13  17
HETATM   17  N2  UNL     1      -9.343  16.933  81.736  1.00  0.00    -0.397 N
HETATM   18  C9  UNL     1      -9.231  15.770  80.999  1.00  0.00     0.118 C
HETATM   19  C10 UNL     1      -8.415  14.869  81.942  1.00  0.00     0.021 C
HETATM   20  C11 UNL     1      -7.776  15.810  82.945  1.00  0.00     0.021 C
HETATM   21  C12 UNL     1      -8.208  17.209  82.471  1.00  0.00     0.118 C
ENDBRANCH  13  17
ENDBRANCH   1  13
TORSDOF 5
ENDMDL