MODEL 1
REMARK VINA RESULT: -7.306986894      0.000      0.000
REMARK  3 active torsions:
REMARK  status: ('A' for Active; 'I' for Inactive)
REMARK    1  A    between atoms: O1_1  and  C1_3
REMARK    2  A    between atoms: C1_3  and  N1_4
REMARK    3  A    between atoms: C1_3  and  C6_12
ROOT
HETATM    1  C6  UNL     1      -9.765  19.259  78.529  1.00  0.00     0.031 C
HETATM    2  C7  UNL     1     -11.062  18.674  78.034  1.00  0.00     0.018 C
HETATM    3  C8  UNL     1     -10.827  18.079  76.675  1.00  0.00     0.002 C
HETATM    4  C9  UNL     1      -9.670  18.900  76.175  1.00  0.00     0.006 C
HETATM    5  C10 UNL     1      -8.796  18.906  77.452  1.00  0.00     0.008 C
HETATM    6  C11 UNL     1      -7.634  19.821  77.286  1.00  0.00     0.017 C
HETATM    7  C12 UNL     1      -7.931  20.919  76.245  1.00  0.00     0.173 C
HETATM    8  O2  UNL     1      -8.786  21.779  76.869  1.00  0.00    -0.385 OA
HETATM    9  C13 UNL     1      -8.750  21.551  78.256  1.00  0.00     0.123 C
HETATM   10  C14 UNL     1      -7.461  20.817  78.443  1.00  0.00     0.039 C
HETATM   11  C15 UNL     1      -9.968  20.772  78.606  1.00  0.00     0.050 C
ENDROOT
BRANCH   1  12
HETATM   12  C1  UNL     1      -9.523  18.695  79.862  1.00  0.00     0.122 C
BRANCH  12  13
HETATM   13  O1  UNL     1      -9.807  19.519  80.843  1.00  0.00    -0.349 OA
ATOM     14  H1  UNL     1     -10.739  19.659  80.966  1.00  0.00     0.219 HD
ENDBRANCH  12  13
BRANCH  12  15
HETATM   15  N1  UNL     1      -9.059  17.473  80.284  1.00  0.00    -0.362 N
HETATM   16  C2  UNL     1      -9.691  16.185  80.183  1.00  0.00     0.152 C
HETATM   17  C3  UNL     1      -8.924  15.228  81.111  1.00  0.00     0.252 C
HETATM   18  N2  UNL     1      -8.678  15.786  82.402  1.00  0.00    -0.072 N
HETATM   19  C4  UNL     1      -7.981  17.045  82.369  1.00  0.00     0.252 C
ATOM     20  H22 UNL     1      -9.548  15.870  82.928  1.00  0.00     0.277 HD
ATOM     21  H21 UNL     1      -8.184  15.118  82.994  1.00  0.00     0.277 HD
HETATM   22  C5  UNL     1      -7.728  17.416  80.938  1.00  0.00     0.152 C
ENDBRANCH  12  15
ENDBRANCH   1  12
TORSDOF 3
ENDMDL