MODEL 3
REMARK VINA RESULT: -7.218058608      1.543      2.108
REMARK  3 active torsions:
REMARK  status: ('A' for Active; 'I' for Inactive)
REMARK    1  A    between atoms: C1_2  and  C2_3
REMARK       I    between atoms: C1_2  and  N1_9
REMARK    2  A    between atoms: C4_5  and  C5_6
REMARK    3  A    between atoms: C5_6  and  O2_7
ROOT
HETATM    1  O1  UNL     1     -11.244  17.395  83.153  1.00  0.00    -0.273 OA
HETATM    2  C1  UNL     1     -10.290  16.834  82.556  1.00  0.00     0.224 C
HETATM    3  N1  UNL     1     -10.142  17.079  81.165  1.00  0.00    -0.351 N
HETATM    4  C6  UNL     1      -9.105  16.512  80.344  1.00  0.00     0.127 C
HETATM    5  C7  UNL     1      -9.879  16.214  79.053  1.00  0.00     0.033 C
HETATM    6  C8  UNL     1     -10.681  17.492  78.895  1.00  0.00     0.004 C
HETATM    7  C9  UNL     1     -11.926  17.149  78.142  1.00  0.00     0.014 C
HETATM    8  C10 UNL     1     -12.460  18.233  77.281  1.00  0.00     0.007 C
HETATM    9  C11 UNL     1     -11.379  19.022  76.586  1.00  0.00     0.012 C
HETATM   10  C12 UNL     1     -10.302  18.132  76.013  1.00  0.00     0.172 C
HETATM   11  O3  UNL     1      -9.373  17.898  76.992  1.00  0.00    -0.385 OA
HETATM   12  C13 UNL     1      -9.788  18.471  78.167  1.00  0.00     0.132 C
HETATM   13  C14 UNL     1     -10.586  19.700  77.714  1.00  0.00     0.039 C
HETATM   14  C15 UNL     1     -10.956  17.910  80.304  1.00  0.00     0.137 C
ENDROOT
BRANCH   2  15
HETATM   15  C2  UNL     1      -9.385  15.959  83.337  1.00  0.00     0.084 A
HETATM   16  C3  UNL     1      -9.410  15.993  84.824  1.00  0.00     0.022 A
HETATM   17  C4  UNL     1      -8.217  16.526  84.052  1.00  0.00     0.023 A
BRANCH  17  18
HETATM   18  C5  UNL     1      -7.991  17.997  84.178  1.00  0.00     0.169 C
BRANCH  18  19
HETATM   19  O2  UNL     1      -6.674  18.296  83.823  1.00  0.00    -0.400 OA
ATOM     20  H2  UNL     1      -6.104  17.590  84.104  1.00  0.00     0.209 HD
ENDBRANCH  18  19
ENDBRANCH  17  18
ENDBRANCH   2  15
TORSDOF 3
ENDMDL