MODEL 4
REMARK VINA RESULT: -7.145697596      1.432      5.476
REMARK  3 active torsions:
REMARK  status: ('A' for Active; 'I' for Inactive)
REMARK    1  A    between atoms: C1_2  and  C2_3
REMARK       I    between atoms: C1_2  and  N2_9
REMARK    2  A    between atoms: C2_3  and  N1_4
REMARK    3  A    between atoms: C9_12  and  O2_13
ROOT
HETATM    1  O1  UNL     1     -10.577  19.533  77.239  1.00  0.00    -0.271 OA
HETATM    2  C1  UNL     1      -9.992  19.523  78.349  1.00  0.00     0.248 C
HETATM    3  N2  UNL     1      -9.806  18.231  78.979  1.00  0.00    -0.350 N
HETATM    4  C7  UNL     1     -10.330  17.116  78.255  1.00  0.00     0.128 C
HETATM    5  C8  UNL     1     -10.742  16.029  79.210  1.00  0.00     0.052 C
HETATM    6  C9  UNL     1      -9.493  15.705  80.020  1.00  0.00     0.130 C
HETATM    7  C10 UNL     1      -9.161  16.842  80.949  1.00  0.00     0.002 C
HETATM    8  C11 UNL     1     -10.057  16.859  82.167  1.00  0.00     0.014 C
HETATM    9  C12 UNL     1      -9.227  17.467  83.258  1.00  0.00     0.001 C
HETATM   10  C13 UNL     1      -7.787  17.265  82.878  1.00  0.00     0.001 C
HETATM   11  C14 UNL     1      -7.814  16.516  81.587  1.00  0.00     0.014 C
HETATM   12  C15 UNL     1      -9.133  18.124  80.228  1.00  0.00     0.137 C
ENDROOT
BRANCH   2  13
HETATM   13  C2  UNL     1      -9.540  20.780  78.932  1.00  0.00     0.374 C
BRANCH  13  14
HETATM   14  N1  UNL     1      -8.347  21.312  78.380  1.00  0.00     0.097 N
HETATM   15  C3  UNL     1      -7.137  20.846  78.988  1.00  0.00     0.273 C
HETATM   16  C4  UNL     1      -6.161  20.521  77.867  1.00  0.00     0.032 C
HETATM   17  C5  UNL     1      -6.741  21.256  76.673  1.00  0.00     0.032 C
HETATM   18  C6  UNL     1      -8.225  21.321  76.972  1.00  0.00     0.273 C
ENDBRANCH  13  14
ENDBRANCH   2  13
BRANCH   6  19
HETATM   19  O2  UNL     1      -9.585  14.483  80.626  1.00  0.00    -0.395 OA
ATOM     20  H2  UNL     1      -8.746  14.195  80.966  1.00  0.00     0.210 HD
ENDBRANCH   6  19
TORSDOF 3
ENDMDL