MODEL 1
REMARK VINA RESULT: -6.604644304      0.000      0.000
REMARK  4 active torsions:
REMARK  status: ('A' for Active; 'I' for Inactive)
REMARK    1  A    between atoms: N1_5  and  C5_6
REMARK    2  A    between atoms: C5_6  and  N2_8
REMARK    3  A    between atoms: N2_8  and  C6_10
REMARK    4  A    between atoms: C6_10  and  C7_11
ROOT
HETATM    1  C5  UNL     1     -10.038  19.610  77.866  1.00  0.00     0.169 C
HETATM    2  S1  UNL     1     -10.623  19.249  76.312  1.00  0.00    -0.041 SA
ENDROOT
BRANCH   1   3
HETATM    3  N1  UNL     1     -10.125  18.524  78.776  1.00  0.00    -0.358 N
HETATM    4  C4  UNL     1      -9.713  18.799  80.145  1.00  0.00     0.125 C
HETATM    5  C3  UNL     1      -9.140  17.674  80.914  1.00  0.00     0.024 C
HETATM    6  C2  UNL     1      -9.154  16.355  80.181  1.00  0.00    -0.015 C
HETATM    7  C1  UNL     1      -9.000  15.272  81.226  1.00  0.00     0.010 C
HETATM    8  C12 UNL     1     -10.519  16.263  79.541  1.00  0.00     0.024 C
HETATM    9  C11 UNL     1     -10.530  17.204  78.350  1.00  0.00     0.125 C
ENDBRANCH   1   3
BRANCH   1  10
HETATM   10  N2  UNL     1      -9.562  20.910  78.005  1.00  0.00    -0.362 N
ATOM     11  H2  UNL     1     -10.309  21.595  78.109  1.00  0.00     0.162 HD
BRANCH  10  12
HETATM   12  C6  UNL     1      -8.267  21.499  78.033  1.00  0.00     0.182 C
BRANCH  12  13
HETATM   13  C7  UNL     1      -7.137  20.489  77.956  1.00  0.00     0.277 C
HETATM   14  O1  UNL     1      -6.321  20.598  79.075  1.00  0.00    -0.360 OA
HETATM   15  C8  UNL     1      -4.981  20.373  78.716  1.00  0.00     0.173 C
HETATM   16  C9  UNL     1      -4.581  21.654  77.970  1.00  0.00     0.053 C
HETATM   17  C10 UNL     1      -5.569  21.754  76.825  1.00  0.00     0.173 C
HETATM   18  O2  UNL     1      -6.409  20.647  76.773  1.00  0.00    -0.360 OA
ENDBRANCH  12  13
ENDBRANCH  10  12
ENDBRANCH   1  10
TORSDOF 4
ENDMDL