MODEL 4
REMARK VINA RESULT: -7.337023095      2.160      5.744
REMARK  2 active torsions:
REMARK  status: ('A' for Active; 'I' for Inactive)
REMARK       I    between atoms: C2_2  and  N1_4
REMARK    1  A    between atoms: C3_6  and  C4_7
REMARK    2  A    between atoms: C3_6  and  N3_18
ROOT
HETATM    1  C4  UNL     1     -10.086  17.908  80.526  1.00  0.00     0.080 C
HETATM    2  C5  UNL     1      -9.405  16.593  80.254  1.00  0.00     0.244 C
HETATM    3  N2  UNL     1      -9.623  15.603  81.254  1.00  0.00    -0.074 N
ATOM      4  H21 UNL     1      -8.765  15.096  81.473  1.00  0.00     0.277 HD
ATOM      5  H22 UNL     1     -10.178  14.825  80.897  1.00  0.00     0.277 HD
HETATM    6  C6  UNL     1     -10.214  16.175  82.436  1.00  0.00     0.241 C
HETATM    7  C7  UNL     1      -9.426  17.389  82.818  1.00  0.00    -0.016 C
HETATM    8  C8  UNL     1      -9.433  17.751  84.272  1.00  0.00     0.011 C
HETATM    9  C9  UNL     1      -7.956  18.039  84.176  1.00  0.00     0.002 C
HETATM   10  C10 UNL     1      -7.933  17.188  82.913  1.00  0.00     0.011 C
HETATM   11  C11 UNL     1      -9.754  18.493  81.860  1.00  0.00     0.025 C
ENDROOT
BRANCH   1  12
HETATM   12  C3  UNL     1      -9.751  18.827  79.395  1.00  0.00     0.087 C
HETATM   13  N1  UNL     1      -9.039  19.843  79.640  1.00  0.00    -0.317 N
HETATM   14  C2  UNL     1      -8.603  20.827  78.765  1.00  0.00     0.218 C
ATOM     15  H1  UNL     1      -8.746  19.953  80.611  1.00  0.00     0.170 HD
HETATM   16  C1  UNL     1      -7.172  20.948  78.396  1.00  0.00     0.117 C
HETATM   17  O1  UNL     1      -9.407  21.645  78.259  1.00  0.00    -0.274 OA
BRANCH  12  18
HETATM   18  N3  UNL     1     -10.273  18.472  78.120  1.00  0.00    -0.370 N
HETATM   19  C12 UNL     1     -11.663  18.117  77.798  1.00  0.00     0.124 C
HETATM   20  C13 UNL     1     -11.910  18.780  76.459  1.00  0.00     0.021 C
HETATM   21  C14 UNL     1     -10.542  19.092  75.925  1.00  0.00     0.021 C
HETATM   22  C15 UNL     1      -9.581  18.373  76.847  1.00  0.00     0.124 C
ENDBRANCH  12  18
ENDBRANCH   1  12
TORSDOF 2
ENDMDL