MODEL 1
REMARK VINA RESULT: -6.161707073      0.000      0.000
REMARK  4 active torsions:
REMARK  status: ('A' for Active; 'I' for Inactive)
REMARK    1  A    between atoms: C1_2  and  C2_3
REMARK       I    between atoms: C1_2  and  N1_10
REMARK    2  A    between atoms: C2_3  and  C3_4
REMARK    3  A    between atoms: C3_4  and  C4_5
REMARK    4  A    between atoms: N1_10  and  C9_12
ROOT
HETATM    1  O1  UNL     1       2.364  29.523   8.948  1.00  0.00    -0.273 OA
HETATM    2  C1  UNL     1       1.579  28.551   8.866  1.00  0.00     0.222 C
HETATM    3  N1  UNL     1       0.625  28.269   9.878  1.00  0.00    -0.321 N
ATOM      4  H1  UNL     1       0.021  27.459   9.740  1.00  0.00     0.169 HD
ENDROOT
BRANCH   2   5
HETATM    5  C2  UNL     1       1.637  27.676   7.705  1.00  0.00     0.103 C
BRANCH   5   6
HETATM    6  C3  UNL     1       1.881  26.254   7.960  1.00  0.00     0.014 C
BRANCH   6   7
HETATM    7  C4  UNL     1       2.998  25.630   7.270  1.00  0.00    -0.014 C
HETATM    8  C5  UNL     1       2.823  24.718   6.125  1.00  0.00     0.004 C
HETATM    9  C6  UNL     1       4.253  24.535   5.573  1.00  0.00     0.000 C
HETATM   10  C7  UNL     1       5.005  25.722   6.052  1.00  0.00     0.000 C
HETATM   11  C8  UNL     1       4.014  26.629   6.698  1.00  0.00     0.004 C
ENDBRANCH   6   7
ENDBRANCH   5   6
ENDBRANCH   2   5
BRANCH   3  12
HETATM   12  C9  UNL     1       0.444  29.021  11.063  1.00  0.00     0.077 A
HETATM   13  C10 UNL     1       0.880  28.843  12.334  1.00  0.00     0.039 A
HETATM   14  C11 UNL     1       0.535  29.749  13.261  1.00  0.00     0.029 A
HETATM   15  C12 UNL     1      -0.240  30.800  12.860  1.00  0.00     0.053 A
HETATM   16 BR1  UNL     1      -0.899  32.256  13.938  1.00  0.00    -0.043 Br
HETATM   17  S1  UNL     1      -0.464  30.493  11.199  1.00  0.00    -0.065 SA
ENDBRANCH   3  12
TORSDOF 4
ENDMDL