MODEL 3
REMARK VINA RESULT: -5.315573735      2.058      4.037
REMARK  4 active torsions:
REMARK  status: ('A' for Active; 'I' for Inactive)
REMARK    1  A    between atoms: C6_6  and  C7_7
REMARK    2  A    between atoms: C8_10  and  C9_11
REMARK    3  A    between atoms: C9_11  and  C10_12
REMARK    4  A    between atoms: C13_18  and  C14_19
ROOT
HETATM    1  C7  UNL     1      -0.081  27.018   8.975  1.00  0.00     0.020 A
HETATM    2  N1  UNL     1       0.857  26.053   8.766  1.00  0.00    -0.360 N
ATOM      3  H1  UNL     1       0.640  25.099   9.053  1.00  0.00     0.165 HD
HETATM    4  C8  UNL     1       2.050  26.292   8.201  1.00  0.00     0.041 A
HETATM    5  C11 UNL     1       2.315  27.604   7.819  1.00  0.00     0.057 A
HETATM    6 CL1  UNL     1       3.863  27.928   7.085  1.00  0.00    -0.082 Cl
HETATM    7  C12 UNL     1       1.371  28.595   8.027  1.00  0.00     0.035 A
HETATM    8  C13 UNL     1       0.150  28.333   8.608  1.00  0.00    -0.029 A
ENDROOT
BRANCH   1   9
HETATM    9  C6  UNL     1      -1.371  26.685   9.648  1.00  0.00     0.040 C
HETATM   10  C2  UNL     1      -1.649  25.219   9.403  1.00  0.00    -0.009 C
HETATM   11  C1  UNL     1      -2.185  24.975   8.011  1.00  0.00     0.011 C
HETATM   12  C3  UNL     1      -2.664  24.873  10.463  1.00  0.00     0.005 C
HETATM   13  C4  UNL     1      -2.349  25.769  11.611  1.00  0.00     0.001 C
HETATM   14  C5  UNL     1      -1.184  26.647  11.161  1.00  0.00     0.011 C
ENDBRANCH   1   9
BRANCH   8  15
HETATM   15  C14 UNL     1      -0.855  29.415   8.799  1.00  0.00     0.021 A
HETATM   16  C15 UNL     1      -1.267  29.875  10.123  1.00  0.00     0.010 A
HETATM   17  C16 UNL     1      -0.369  30.735   9.350  1.00  0.00     0.010 A
ENDBRANCH   8  15
BRANCH   4  18
HETATM   18  C9  UNL     1       3.087  25.239   7.971  1.00  0.00     0.172 C
BRANCH  18  19
HETATM   19  C10 UNL     1       3.002  24.728   6.578  1.00  0.00     0.178 C
HETATM   20  O1  UNL     1       1.894  24.467   6.012  1.00  0.00    -0.648 OA
HETATM   21  O2  UNL     1       4.144  24.515   5.834  1.00  0.00    -0.648 OA
ENDBRANCH  18  19
ENDBRANCH   4  18
TORSDOF 4
ENDMDL