MODEL 4
REMARK VINA RESULT: -5.584166031      1.892      2.674
REMARK  5 active torsions:
REMARK  status: ('A' for Active; 'I' for Inactive)
REMARK    1  A    between atoms: C2_2  and  C3_3
REMARK    2  A    between atoms: C2_2  and  C4_5
REMARK    3  A    between atoms: C4_5  and  C5_6
REMARK    4  A    between atoms: C12_13  and  O1_14
REMARK    5  A    between atoms: O1_14  and  O2_15
ROOT
HETATM    1  C5  UNL     1       0.529  27.284   8.800  1.00  0.00    -0.036 C
HETATM    2  C6  UNL     1      -0.942  27.031   8.927  1.00  0.00     0.014 C
HETATM    3  C7  UNL     1      -1.650  28.111   9.750  1.00  0.00    -0.010 C
HETATM    4  C8  UNL     1      -1.548  29.377   8.892  1.00  0.00     0.009 C
HETATM    5  C9  UNL     1      -0.089  29.660   8.711  1.00  0.00    -0.010 C
HETATM    6  C10 UNL     1       0.678  28.568   8.013  1.00  0.00     0.014 C
HETATM    7  C11 UNL     1       0.486  29.977  10.073  1.00  0.00     0.046 C
HETATM    8  C12 UNL     1       0.411  28.725  10.879  1.00  0.00     0.097 C
HETATM    9  C13 UNL     1      -1.039  28.343  11.087  1.00  0.00     0.046 C
HETATM   10  C14 UNL     1       1.086  27.600  10.206  1.00  0.00     0.050 C
ENDROOT
BRANCH   1  11
HETATM   11  C4  UNL     1       1.338  26.166   8.321  1.00  0.00     0.014 C
BRANCH  11  12
HETATM   12  C2  UNL     1       2.165  26.200   7.122  1.00  0.00    -0.008 C
HETATM   13  C1  UNL     1       3.673  26.292   7.579  1.00  0.00     0.011 C
BRANCH  12  14
HETATM   14  C3  UNL     1       2.209  24.881   6.347  1.00  0.00     0.089 C
HETATM   15 BR1  UNL     1       4.018  24.601   5.681  1.00  0.00    -0.096 Br
ENDBRANCH  12  14
ENDBRANCH  11  12
ENDBRANCH   1  11
BRANCH   8  16
HETATM   16  O1  UNL     1       0.993  28.897  12.124  1.00  0.00    -0.232 OA
BRANCH  16  17
HETATM   17  O2  UNL     1       0.797  30.085  12.627  1.00  0.00    -0.250 OA
ATOM     18  H2  UNL     1       0.331  30.071  13.455  1.00  0.00     0.253 HD
ENDBRANCH  16  17
ENDBRANCH   8  16
TORSDOF 5
ENDMDL