MODEL 1
REMARK VINA RESULT: -6.851424011      0.000      0.000
REMARK  4 active torsions:
REMARK  status: ('A' for Active; 'I' for Inactive)
REMARK    1  A    between atoms: C4_5  and  O1_6
REMARK    2  A    between atoms: O1_6  and  C5_7
REMARK    3  A    between atoms: C10_15  and  C11_16
REMARK    4  A    between atoms: C12_17  and  C13_18
ROOT
HETATM    1 CL1  UNL     1       4.255  24.332   5.588  1.00  0.00    -0.084 Cl
HETATM    2  C1  UNL     1       3.552  25.596   6.553  1.00  0.00     0.035 A
HETATM    3  C2  UNL     1       4.294  26.659   7.037  1.00  0.00     0.026 A
HETATM    4  C3  UNL     1       3.727  27.645   7.794  1.00  0.00     0.039 A
HETATM    5  C4  UNL     1       2.357  27.602   8.102  1.00  0.00     0.079 A
HETATM    6  C10 UNL     1       1.610  26.506   7.596  1.00  0.00    -0.001 A
HETATM    7  C18 UNL     1       2.206  25.531   6.841  1.00  0.00     0.038 A
ENDROOT
BRANCH   5   8
HETATM    8  O1  UNL     1       1.808  28.521   8.811  1.00  0.00    -0.345 OA
BRANCH   8   9
HETATM    9  C5  UNL     1       1.252  29.453   9.532  1.00  0.00     0.132 C
HETATM   10  C6  UNL     1       0.811  28.901  10.875  1.00  0.00     0.060 C
HETATM   11  C7  UNL     1       0.054  29.893  11.689  1.00  0.00     0.235 C
HETATM   12  N1  UNL     1      -1.129  30.268  10.940  1.00  0.00    -0.075 N
HETATM   13  C8  UNL     1      -0.780  30.936   9.728  1.00  0.00     0.235 C
ATOM     14  H12 UNL     1      -1.733  29.465  10.765  1.00  0.00     0.277 HD
ATOM     15  H11 UNL     1      -1.770  30.825  11.505  1.00  0.00     0.277 HD
HETATM   16  C9  UNL     1       0.146  30.202   8.831  1.00  0.00     0.060 C
ENDBRANCH   8   9
ENDBRANCH   5   8
BRANCH   6  17
HETATM   17  C11 UNL     1       0.191  26.423   7.891  1.00  0.00     0.011 C
HETATM   18  C12 UNL     1      -0.326  25.811   8.908  1.00  0.00    -0.021 C
BRANCH  18  19
HETATM   19  C13 UNL     1      -1.800  25.754   9.166  1.00  0.00     0.008 C
HETATM   20  C14 UNL     1      -2.137  25.023  10.429  1.00  0.00     0.008 C
HETATM   21  C15 UNL     1      -2.102  26.078  11.512  1.00  0.00     0.001 C
HETATM   22  C16 UNL     1      -2.743  27.257  10.811  1.00  0.00     0.001 C
HETATM   23  C17 UNL     1      -2.320  27.149   9.383  1.00  0.00     0.008 C
ENDBRANCH  18  19
ENDBRANCH   6  17
TORSDOF 4
ENDMDL