MODEL 3
REMARK VINA RESULT: -6.588814358      2.656      6.092
REMARK  4 active torsions:
REMARK  status: ('A' for Active; 'I' for Inactive)
REMARK    1  A    between atoms: C10_10  and  C11_11
REMARK    2  A    between atoms: C11_11  and  C12_12
REMARK    3  A    between atoms: C12_12  and  C13_13
REMARK    4  A    between atoms: C13_13  and  C14_14
ROOT
HETATM    1  C12 UNL     1      -0.975  27.051  10.395  1.00  0.00    -0.030 C
ENDROOT
BRANCH   1   2
HETATM    2  C11 UNL     1       0.199  27.846  10.048  1.00  0.00    -0.026 C
BRANCH   2   3
HETATM    3  C10 UNL     1       1.300  27.311   9.179  1.00  0.00     0.011 C
HETATM    4  C2  UNL     1       1.746  28.517   8.385  1.00  0.00    -0.011 C
HETATM    5  C1  UNL     1       0.639  28.912   7.447  1.00  0.00     0.010 C
HETATM    6  C3  UNL     1       3.029  28.511   7.713  1.00  0.00     0.005 C
HETATM    7  C4  UNL     1       4.115  27.617   8.180  1.00  0.00     0.000 C
HETATM    8  C5  UNL     1       4.771  26.849   7.049  1.00  0.00     0.000 C
HETATM    9  C6  UNL     1       3.776  26.058   6.237  1.00  0.00     0.000 C
HETATM   10  C7  UNL     1       2.814  25.284   7.103  1.00  0.00     0.000 C
HETATM   11  C8  UNL     1       1.456  25.871   7.063  1.00  0.00     0.001 C
HETATM   12  C9  UNL     1       0.839  26.170   8.394  1.00  0.00     0.009 C
ENDBRANCH   2   3
ENDBRANCH   1   2
BRANCH   1  13
HETATM   13  C13 UNL     1      -2.267  27.193   9.703  1.00  0.00     0.035 C
BRANCH  13  14
HETATM   14  C14 UNL     1      -2.928  25.802   9.603  1.00  0.00     0.052 C
HETATM   15  C15 UNL     1      -2.179  24.699  10.272  1.00  0.00     0.280 C
HETATM   16  N1  UNL     1      -2.099  24.018   9.020  1.00  0.00     0.097 N
HETATM   17  C16 UNL     1      -2.732  22.773   8.864  1.00  0.00     0.300 C
HETATM   18  C19 UNL     1      -2.551  25.128   8.283  1.00  0.00     0.254 C
HETATM   19  C17 UNL     1      -4.010  22.735   8.108  1.00  0.00     0.262 C
HETATM   20  N2  UNL     1      -4.034  23.648   6.983  1.00  0.00    -0.071 N
HETATM   21  C18 UNL     1      -3.757  24.967   7.439  1.00  0.00     0.268 C
ATOM     22  H22 UNL     1      -3.403  23.356   6.236  1.00  0.00     0.277 HD
ATOM     23  H21 UNL     1      -4.909  23.595   6.462  1.00  0.00     0.277 HD
ENDBRANCH  13  14
ENDBRANCH   1  13
TORSDOF 4
ENDMDL