MODEL 4
REMARK VINA RESULT: -6.700255826      1.529      4.048
REMARK  4 active torsions:
REMARK  status: ('A' for Active; 'I' for Inactive)
REMARK       I    between atoms: C1_2  and  N1_3
REMARK    1  A    between atoms: C1_2  and  C13_18
REMARK    2  A    between atoms: N1_3  and  C2_5
REMARK    3  A    between atoms: C7_11  and  O2_12
REMARK    4  A    between atoms: O2_12  and  C8_13
ROOT
HETATM    1  C2  UNL     1       2.451  27.715   8.188  1.00  0.00     0.068 A
HETATM    2  C3  UNL     1       3.644  27.931   7.562  1.00  0.00     0.035 A
HETATM    3  C4  UNL     1       4.361  26.963   6.869  1.00  0.00     0.044 A
HETATM    4  C5  UNL     1       3.839  25.716   6.810  1.00  0.00     0.119 A
HETATM    5  F1  UNL     1       4.504  24.736   6.143  1.00  0.00    -0.206 F
HETATM    6  C6  UNL     1       2.660  25.434   7.407  1.00  0.00     0.081 A
HETATM    7  C7  UNL     1       1.911  26.398   8.117  1.00  0.00     0.099 A
ENDROOT
BRANCH   1   8
HETATM    8  N1  UNL     1       1.680  28.648   8.900  1.00  0.00    -0.324 N
HETATM    9  C1  UNL     1       0.608  29.386   8.384  1.00  0.00     0.226 C
HETATM   10  O1  UNL     1       0.205  29.304   7.218  1.00  0.00    -0.273 OA
ATOM     11  H1  UNL     1       1.922  28.801   9.878  1.00  0.00     0.169 HD
BRANCH   9  12
HETATM   12  C13 UNL     1      -0.148  30.363   9.253  1.00  0.00     0.078 C
HETATM   13  C14 UNL     1       0.278  30.133  10.709  1.00  0.00     0.014 C
HETATM   14  C15 UNL     1      -0.307  31.250  11.540  1.00  0.00     0.001 C
HETATM   15  C16 UNL     1      -1.806  31.342  11.404  1.00  0.00     0.000 C
HETATM   16  C17 UNL     1      -2.295  31.212  10.000  1.00  0.00     0.001 C
HETATM   17  C18 UNL     1      -1.637  30.101   9.223  1.00  0.00     0.014 C
ENDBRANCH   9  12
ENDBRANCH   1   8
BRANCH   7  18
HETATM   18  O2  UNL     1       0.781  26.076   8.675  1.00  0.00    -0.344 OA
BRANCH  18  19
HETATM   19  C8  UNL     1      -0.341  25.756   9.231  1.00  0.00     0.129 C
HETATM   20  C9  UNL     1      -1.566  25.819   8.285  1.00  0.00     0.032 C
HETATM   21  C10 UNL     1      -2.720  26.121   9.183  1.00  0.00     0.002 C
HETATM   22  C11 UNL     1      -2.203  26.185  10.598  1.00  0.00     0.002 C
HETATM   23  C12 UNL     1      -0.794  26.648  10.405  1.00  0.00     0.032 C
ENDBRANCH  18  19
ENDBRANCH   7  18
TORSDOF 4
ENDMDL