MODEL 4
REMARK VINA RESULT: -6.754473944      2.687      6.356
REMARK  4 active torsions:
REMARK  status: ('A' for Active; 'I' for Inactive)
REMARK    1  A    between atoms: C4_5  and  C5_6
REMARK    2  A    between atoms: C6_7  and  C7_8
REMARK    3  A    between atoms: C11_14  and  C12_15
REMARK       I    between atoms: C12_15  and  N2_17
REMARK    4  A    between atoms: N2_17  and  C13_19
ROOT
HETATM    1  C1  UNL     1       0.566  28.475  13.753  1.00  0.00     0.019 C
HETATM    2  C2  UNL     1       0.410  28.841  12.613  1.00  0.00    -0.065 C
HETATM    3  C3  UNL     1       0.228  29.251  11.254  1.00  0.00     0.086 C
HETATM    4 CL1  UNL     1      -1.372  29.698  10.723  1.00  0.00    -0.074 Cl
HETATM    5  C4  UNL     1       1.269  29.293  10.394  1.00  0.00     0.033 C
ENDROOT
BRANCH   5   6
HETATM    6  C5  UNL     1       1.072  29.706   9.035  1.00  0.00     0.005 C
HETATM    7  C6  UNL     1       1.540  29.207   7.931  1.00  0.00     0.030 C
BRANCH   7   8
HETATM    8  C7  UNL     1       2.417  28.065   7.782  1.00  0.00     0.047 A
HETATM    9  N1  UNL     1       3.743  28.233   7.566  1.00  0.00    -0.365 N
HETATM   10  C8  UNL     1       4.583  27.216   7.389  1.00  0.00     0.088 A
ATOM     11  H1  UNL     1       4.116  29.181   7.539  1.00  0.00     0.165 HD
HETATM   12  C9  UNL     1       4.139  25.911   7.415  1.00  0.00     0.018 A
HETATM   13  C10 UNL     1       2.814  25.684   7.631  1.00  0.00     0.021 A
HETATM   14  C11 UNL     1       1.935  26.768   7.820  1.00  0.00     0.058 A
BRANCH  14  15
HETATM   15  C12 UNL     1       0.568  26.440   8.174  1.00  0.00     0.254 C
HETATM   16  O1  UNL     1      -0.224  26.349   7.162  1.00  0.00    -0.268 OA
HETATM   17  N2  UNL     1      -0.003  26.207   9.412  1.00  0.00    -0.352 N
ATOM     18  H2  UNL     1       0.592  26.259  10.239  1.00  0.00     0.163 HD
BRANCH  17  19
HETATM   19  C13 UNL     1      -1.401  25.892   9.589  1.00  0.00     0.084 C
HETATM   20  C14 UNL     1      -1.628  24.405   9.477  1.00  0.00     0.025 C
HETATM   21  C15 UNL     1      -3.096  24.321   9.922  1.00  0.00     0.002 C
HETATM   22  C16 UNL     1      -3.281  25.485  10.901  1.00  0.00     0.002 C
HETATM   23  C17 UNL     1      -1.899  26.146  10.999  1.00  0.00     0.025 C
ENDBRANCH  17  19
ENDBRANCH  14  15
ENDBRANCH   7   8
ENDBRANCH   5   6
TORSDOF 4
ENDMDL