MODEL 2
REMARK VINA RESULT: -7.796250175      3.051      3.772
REMARK  4 active torsions:
REMARK  status: ('A' for Active; 'I' for Inactive)
REMARK    1  A    between atoms: C1_4  and  C2_5
REMARK    2  A    between atoms: C1_4  and  C15_19
REMARK    3  A    between atoms: C3_6  and  C4_7
REMARK    4  A    between atoms: C7_10  and  C8_11
ROOT
HETATM    1  C2  UNL     1      -1.550  29.914   9.888  1.00  0.00     0.026 C
HETATM    2  C3  UNL     1      -0.309  29.961  10.109  1.00  0.00    -0.018 C
ENDROOT
BRANCH   2   3
HETATM    3  C4  UNL     1       0.691  29.020   9.452  1.00  0.00     0.032 C
HETATM    4  C5  UNL     1       1.600  29.735   8.524  1.00  0.00     0.013 C
HETATM    5  C6  UNL     1       2.529  28.712   7.907  1.00  0.00     0.037 C
HETATM    6  C7  UNL     1       2.029  27.303   8.135  1.00  0.00     0.154 C
HETATM    7  O1  UNL     1       0.677  27.277   7.797  1.00  0.00    -0.381 OA
HETATM    8  C14 UNL     1      -0.086  27.980   8.701  1.00  0.00     0.177 C
BRANCH   6   9
HETATM    9  C8  UNL     1       2.735  26.362   7.246  1.00  0.00    -0.029 A
HETATM   10  C9  UNL     1       4.075  26.487   6.974  1.00  0.00     0.010 A
HETATM   11  C10 UNL     1       4.731  25.587   6.128  1.00  0.00     0.001 A
HETATM   12  C11 UNL     1       4.009  24.559   5.563  1.00  0.00     0.000 A
HETATM   13  C12 UNL     1       2.660  24.426   5.833  1.00  0.00     0.001 A
HETATM   14  C13 UNL     1       2.021  25.335   6.680  1.00  0.00     0.010 A
ENDBRANCH   6   9
ENDBRANCH   2   3
BRANCH   1  15
HETATM   15  C1  UNL     1      -2.656  30.647  10.347  1.00  0.00     0.035 C
HETATM   16  N1  UNL     1      -2.559  31.330  11.509  1.00  0.00    -0.398 N
ATOM     17  H12 UNL     1      -1.646  31.216  11.950  1.00  0.00     0.156 HD
ATOM     18  H11 UNL     1      -3.363  31.862  11.842  1.00  0.00     0.156 HD
BRANCH  15  19
HETATM   19  C15 UNL     1      -3.949  30.807   9.722  1.00  0.00    -0.010 A
HETATM   20  C16 UNL     1      -4.397  30.169   8.590  1.00  0.00     0.017 A
HETATM   21  C17 UNL     1      -5.638  30.420   7.996  1.00  0.00     0.043 A
HETATM   22  C18 UNL     1      -6.486  31.348   8.548  1.00  0.00     0.116 A
HETATM   23  F1  UNL     1      -7.688  31.605   7.991  1.00  0.00    -0.206 F
HETATM   24  C19 UNL     1      -6.051  31.992   9.682  1.00  0.00     0.043 A
HETATM   25  C20 UNL     1      -4.842  31.744  10.253  1.00  0.00     0.017 A
ENDBRANCH  15  19
ENDBRANCH   1  15
TORSDOF 4
ENDMDL