MODEL 2
REMARK VINA RESULT: -5.885999355      1.532      2.625
REMARK  6 active torsions:
REMARK  status: ('A' for Active; 'I' for Inactive)
REMARK    1  A    between atoms: C2_2  and  C5_5
REMARK    2  A    between atoms: C5_5  and  N2_9
REMARK    3  A    between atoms: N2_9  and  C6_11
REMARK    4  A    between atoms: C6_11  and  C7_12
REMARK    5  A    between atoms: C7_12  and  C8_13
REMARK    6  A    between atoms: C8_13  and  N3_14
ROOT
HETATM    1  C7  UNL     1       0.653  26.246   8.783  1.00  0.00     0.039 C
ENDROOT
BRANCH   1   2
HETATM    2  C6  UNL     1       1.422  26.184   7.454  1.00  0.00     0.122 C
BRANCH   2   3
HETATM    3  N2  UNL     1       2.815  25.972   7.759  1.00  0.00    -0.378 N
ATOM      4  H2  UNL     1       3.077  25.305   8.485  1.00  0.00     0.160 HD
BRANCH   3   5
HETATM    5  C5  UNL     1       3.817  26.678   7.065  1.00  0.00     0.110 C
HETATM    6  N1  UNL     1       4.069  27.888   7.379  1.00  0.00    -0.212 N
HETATM    7  F1  UNL     1       3.371  28.473   8.369  1.00  0.00    -0.100 F
ATOM      8  H1  UNL     1       4.793  28.408   6.883  1.00  0.00     0.201 HD
BRANCH   5   9
HETATM    9  C2  UNL     1       4.557  25.989   5.981  1.00  0.00     0.009 C
HETATM   10  C1  UNL     1       4.190  26.631   4.664  1.00  0.00     0.023 C
HETATM   11  C3  UNL     1       4.191  24.517   5.925  1.00  0.00     0.023 C
HETATM   12  C4  UNL     1       6.030  26.126   6.250  1.00  0.00     0.023 C
ENDBRANCH   5   9
ENDBRANCH   3   5
ENDBRANCH   2   3
ENDBRANCH   1   2
BRANCH   1  13
HETATM   13  C8  UNL     1      -0.570  27.053   8.563  1.00  0.00     0.120 C
BRANCH  13  14
HETATM   14  N3  UNL     1      -0.850  28.096   9.486  1.00  0.00    -0.396 N
HETATM   15  C9  UNL     1      -0.156  29.310   9.374  1.00  0.00     0.021 C
HETATM   16  C10 UNL     1       0.498  29.578   8.043  1.00  0.00     0.038 C
HETATM   17  C11 UNL     1      -1.043  30.546   9.622  1.00  0.00     0.038 C
HETATM   18  C12 UNL     1       0.981  29.470  10.393  1.00  0.00     0.030 C
HETATM   19  C13 UNL     1       0.539  29.176  11.779  1.00  0.00     0.005 C
HETATM   20  C14 UNL     1      -0.099  27.818  11.810  1.00  0.00     0.030 C
HETATM   21  C15 UNL     1      -1.247  27.717  10.793  1.00  0.00     0.021 C
HETATM   22  C16 UNL     1      -1.717  26.281  10.934  1.00  0.00     0.038 C
HETATM   23  C17 UNL     1      -2.384  28.543  11.384  1.00  0.00     0.038 C
ENDBRANCH  13  14
ENDBRANCH   1  13
TORSDOF 6
ENDMDL