MODEL 4
REMARK VINA RESULT: -6.106086812      1.090      1.236
REMARK  4 active torsions:
REMARK  status: ('A' for Active; 'I' for Inactive)
REMARK    1  A    between atoms: C2_2  and  C3_3
REMARK    2  A    between atoms: C6_7  and  C7_8
REMARK    3  A    between atoms: C7_8  and  N2_9
REMARK    4  A    between atoms: N2_9  and  C8_12
ROOT
HETATM    1  C7  UNL     1       0.455  26.578   8.864  1.00  0.00     0.291 C
ENDROOT
BRANCH   1   2
HETATM    2  C6  UNL     1      -0.600  27.546   9.148  1.00  0.00     0.055 A
HETATM    3  N1  UNL     1      -1.886  27.392   9.418  1.00  0.00    -0.361 N
HETATM    4  C4  UNL     1      -2.492  28.594   9.615  1.00  0.00     0.103 A
HETATM    5  C5  UNL     1      -2.630  26.138   9.507  1.00  0.00     0.155 C
HETATM    6  C3  UNL     1      -1.536  29.574   9.463  1.00  0.00    -0.002 A
HETATM    7  C14 UNL     1      -0.367  28.928   9.174  1.00  0.00     0.046 A
HETATM    8 BR1  UNL     1       1.294  29.810   8.865  1.00  0.00    -0.048 Br
BRANCH   6   9
HETATM    9  C2  UNL     1      -1.762  31.015   9.592  1.00  0.00     0.004 C
HETATM   10  C1  UNL     1      -1.582  31.596  10.745  1.00  0.00     0.012 C
ENDBRANCH   6   9
ENDBRANCH   1   2
BRANCH   1  11
HETATM   11  N2  UNL     1       0.827  26.456   7.480  1.00  0.00    -0.066 N
ATOM     12  H22 UNL     1       0.150  25.910   6.947  1.00  0.00     0.278 HD
ATOM     13  H21 UNL     1       0.733  27.339   6.977  1.00  0.00     0.278 HD
BRANCH  11  14
HETATM   14  C8  UNL     1       2.191  25.902   7.379  1.00  0.00     0.186 C
HETATM   15  C9  UNL     1       2.257  24.838   6.318  1.00  0.00     0.033 C
HETATM   16  C10 UNL     1       3.458  24.936   5.436  1.00  0.00     0.002 C
HETATM   17  C11 UNL     1       4.695  25.441   6.069  1.00  0.00     0.000 C
HETATM   18  C12 UNL     1       4.553  26.414   7.174  1.00  0.00     0.002 C
HETATM   19  C13 UNL     1       3.176  27.008   7.157  1.00  0.00     0.033 C
ENDBRANCH  11  14
ENDBRANCH   1  11
TORSDOF 4
ENDMDL