MODEL 2
REMARK VINA RESULT: -7.557298179      1.506      1.915
REMARK  7 active torsions:
REMARK  status: ('A' for Active; 'I' for Inactive)
REMARK    1  A    between atoms: N3_4  and  O1_6
REMARK    2  A    between atoms: O1_6  and  C2_7
REMARK    3  A    between atoms: C2_7  and  C3_8
REMARK       I    between atoms: C3_8  and  N4_10
REMARK    4  A    between atoms: N4_10  and  N5_12
REMARK    5  A    between atoms: C4_14  and  C5_15
REMARK    6  A    between atoms: C7_18  and  N6_19
REMARK    7  A    between atoms: N7_25  and  O3_26
ROOT
HETATM    1  N5  UNL     1     -15.752 -10.416   6.905  1.00  0.00    -0.307 N
ATOM      2  H5  UNL     1     -15.104 -10.371   6.118  1.00  0.00     0.186 HD
HETATM    3  C4  UNL     1     -16.047  -9.271   7.283  1.00  0.00     0.139 C
ENDROOT
BRANCH   3   4
HETATM    4  C5  UNL     1     -16.955  -8.905   8.389  1.00  0.00     0.088 A
HETATM    5  C6  UNL     1     -17.266  -9.850   9.331  1.00  0.00     0.086 A
HETATM    6  S1  UNL     1     -18.311  -9.000  10.380  1.00  0.00    -0.061 SA
HETATM    7  C7  UNL     1     -18.297  -7.496   9.569  1.00  0.00     0.174 A
HETATM    8  N7  UNL     1     -17.493  -7.718   8.534  1.00  0.00    -0.200 N
BRANCH   7   9
HETATM    9  N6  UNL     1     -18.992  -6.276   9.921  1.00  0.00    -0.360 N
HETATM   10  C8  UNL     1     -18.469  -5.298  10.796  1.00  0.00     0.125 C
HETATM   11  C9  UNL     1     -19.331  -4.103  11.021  1.00  0.00     0.020 C
HETATM   12  C10 UNL     1     -20.790  -4.311  10.886  1.00  0.00     0.003 C
HETATM   13  C11 UNL     1     -21.211  -5.673  10.457  1.00  0.00     0.020 C
HETATM   14  C12 UNL     1     -20.295  -6.092   9.317  1.00  0.00     0.125 C
ENDBRANCH   7   9
BRANCH   8  15
HETATM   15  O3  UNL     1     -17.260  -6.649   7.641  1.00  0.00    -0.280 OA
ATOM     16  H3  UNL     1     -16.476  -6.115   7.663  1.00  0.00     0.245 HD
ENDBRANCH   8  15
ENDBRANCH   3   4
BRANCH   1  17
HETATM   17  N4  UNL     1     -16.021 -11.690   7.210  1.00  0.00    -0.269 N
HETATM   18  C3  UNL     1     -15.136 -12.592   7.898  1.00  0.00     0.262 C
HETATM   19  O2  UNL     1     -14.001 -12.197   8.264  1.00  0.00    -0.269 OA
ATOM     20  H4  UNL     1     -16.933 -12.054   6.932  1.00  0.00     0.190 HD
BRANCH  18  21
HETATM   21  C2  UNL     1     -15.515 -13.986   8.194  1.00  0.00     0.305 C
BRANCH  21  22
HETATM   22  O1  UNL     1     -15.610 -14.238   9.569  1.00  0.00    -0.269 OA
BRANCH  22  23
HETATM   23  N3  UNL     1     -16.754 -13.829  10.204  1.00  0.00    -0.240 N
HETATM   24  C1  UNL     1     -16.705 -12.791  10.952  1.00  0.00     0.221 C
HETATM   25  N1  UNL     1     -17.901 -12.385  11.600  1.00  0.00    -0.065 NA
HETATM   26  N2  UNL     1     -15.497 -12.088  11.115  1.00  0.00    -0.065 NA
ATOM     27  H3  UNL     1     -17.628 -14.342  10.083  1.00  0.00     0.196 HD
ENDBRANCH  22  23
ENDBRANCH  21  22
ENDBRANCH  18  21
ENDBRANCH   1  17
TORSDOF 7
ENDMDL