MODEL 1
REMARK VINA RESULT: -5.372300176      0.000      0.000
REMARK  7 active torsions:
REMARK  status: ('A' for Active; 'I' for Inactive)
REMARK       I    between atoms: N1_2  and  C2_4
REMARK    1  A    between atoms: C2_4  and  C3_6
REMARK    2  A    between atoms: C4_8  and  O3_9
REMARK    3  A    between atoms: C6_12  and  C7_13
REMARK    4  A    between atoms: C7_13  and  N2_14
REMARK    5  A    between atoms: C7_13  and  C13_27
REMARK       I    between atoms: N2_14  and  C8_16
REMARK    6  A    between atoms: C8_16  and  C9_18
REMARK    7  A    between atoms: C11_20  and  N3_21
ROOT
HETATM    1  C7  UNL     1     -16.827 -10.052   9.880  1.00  0.00     0.120 C
ENDROOT
BRANCH   1   2
HETATM    2  C6  UNL     1     -16.671 -11.167   8.941  1.00  0.00     0.188 C
HETATM    3  C3  UNL     1     -16.834 -10.909   7.487  1.00  0.00     0.249 C
HETATM    4  O2  UNL     1     -16.306 -12.135   6.991  1.00  0.00    -0.321 OA
HETATM    5  C4  UNL     1     -15.430 -12.599   7.970  1.00  0.00     0.413 C
HETATM    6  O4  UNL     1     -15.306 -11.557   8.925  1.00  0.00    -0.328 OA
BRANCH   3   7
HETATM    7  C2  UNL     1     -15.987  -9.837   6.955  1.00  0.00     0.249 C
HETATM    8  N1  UNL     1     -15.002 -10.124   5.983  1.00  0.00    -0.363 N
HETATM    9  C1  UNL     1     -14.143  -9.063   5.439  1.00  0.00     0.149 C
ATOM     10  H1  UNL     1     -14.886 -11.082   5.655  1.00  0.00     0.162 HD
HETATM   11  O1  UNL     1     -16.117  -8.658   7.344  1.00  0.00    -0.271 OA
ENDBRANCH   3   7
BRANCH   5  12
HETATM   12  O3  UNL     1     -15.926 -13.687   8.667  1.00  0.00    -0.344 OA
HETATM   13  C5  UNL     1     -15.371 -14.892   8.256  1.00  0.00     0.207 C
ENDBRANCH   5  12
ENDBRANCH   1   2
BRANCH   1  14
HETATM   14  N2  UNL     1     -17.847  -9.102   9.567  1.00  0.00    -0.351 N
HETATM   15  C8  UNL     1     -17.906  -7.744   9.934  1.00  0.00     0.247 C
HETATM   16  O5  UNL     1     -17.009  -7.203  10.621  1.00  0.00    -0.271 OA
ATOM     17  H2  UNL     1     -18.627  -9.449   9.009  1.00  0.00     0.163 HD
BRANCH  15  18
HETATM   18  C9  UNL     1     -19.031  -6.865   9.534  1.00  0.00     0.215 C
HETATM   19  C10 UNL     1     -19.201  -5.747  10.554  1.00  0.00     0.076 C
HETATM   20  C11 UNL     1     -20.681  -5.491  10.501  1.00  0.00     0.210 C
HETATM   21  C12 UNL     1     -21.139  -6.428   9.397  1.00  0.00     0.201 C
HETATM   22  O6  UNL     1     -20.243  -7.501   9.485  1.00  0.00    -0.374 OA
BRANCH  20  23
HETATM   23  N3  UNL     1     -21.004  -4.138  10.133  1.00  0.00    -0.073 N
ATOM     24  H33 UNL     1     -20.323  -3.767   9.471  1.00  0.00     0.274 HD
ATOM     25  H32 UNL     1     -21.838  -4.108   9.547  1.00  0.00     0.274 HD
ATOM     26  H31 UNL     1     -21.103  -3.519  10.939  1.00  0.00     0.274 HD
ENDBRANCH  20  23
ENDBRANCH  15  18
ENDBRANCH   1  14
BRANCH   1  27
HETATM   27  C13 UNL     1     -17.134 -10.581  11.289  1.00  0.00     0.003 C
HETATM   28  C14 UNL     1     -18.329  -9.929  11.892  1.00  0.00     0.011 C
HETATM   29  C15 UNL     1     -17.222 -12.069  11.330  1.00  0.00     0.011 C
ENDBRANCH   1  27
TORSDOF 7
ENDMDL