MODEL 4
REMARK VINA RESULT: -4.039658922      1.289      1.898
REMARK  9 active torsions:
REMARK  status: ('A' for Active; 'I' for Inactive)
REMARK    1  A    between atoms: S1_2  and  C2_3
REMARK    2  A    between atoms: C4_5  and  N1_6
REMARK    3  A    between atoms: N1_6  and  S2_8
REMARK    4  A    between atoms: S2_8  and  C6_10
REMARK    5  A    between atoms: C6_10  and  O2_11
REMARK    6  A    between atoms: O2_11  and  C7_12
REMARK    7  A    between atoms: C11_16  and  O3_17
REMARK    8  A    between atoms: C12_19  and  O4_20
REMARK    9  A    between atoms: C13_22  and  O5_23
ROOT
HETATM    1  C2  UNL     1     -20.244  -6.031  10.301  1.00  0.00     0.080 C
HETATM    2  C3  UNL     1     -19.954  -7.510  10.165  1.00  0.00     0.046 C
HETATM    3  C4  UNL     1     -18.530  -7.726  10.690  1.00  0.00     0.125 C
HETATM    4  C11 UNL     1     -17.614  -6.605  10.398  1.00  0.00     0.172 C
HETATM    5  C12 UNL     1     -18.036  -5.544   9.462  1.00  0.00     0.178 C
HETATM    6  C13 UNL     1     -19.483  -5.405   9.151  1.00  0.00     0.163 C
ENDROOT
BRANCH   3   7
HETATM    7  N1  UNL     1     -18.129  -9.016  10.320  1.00  0.00    -0.327 N
HETATM    8  C5  UNL     1     -18.208 -10.100  11.186  1.00  0.00     0.161 C
BRANCH   7   9
HETATM    9  S2  UNL     1     -17.734  -9.288   8.700  1.00  0.00     0.136 S
HETATM   10  O1  UNL     1     -17.253  -7.872   7.940  1.00  0.00    -0.234 OA
BRANCH   9  11
HETATM   11  C6  UNL     1     -16.466 -10.525   8.567  1.00  0.00     0.300 C
BRANCH  11  12
HETATM   12  O2  UNL     1     -17.036 -11.738   8.873  1.00  0.00    -0.367 OA
BRANCH  12  13
HETATM   13  C7  UNL     1     -16.204 -12.622   9.535  1.00  0.00     0.051 C
HETATM   14  C8  UNL     1     -15.582 -13.539   8.505  1.00  0.00     0.045 C
HETATM   15  C9  UNL     1     -15.117 -11.780  10.209  1.00  0.00     0.045 C
HETATM   16  C10 UNL     1     -16.950 -13.434  10.577  1.00  0.00     0.045 C
ENDBRANCH  12  13
ENDBRANCH  11  12
ENDBRANCH   9  11
ENDBRANCH   7   9
ENDBRANCH   3   7
BRANCH   4  17
HETATM   17  O3  UNL     1     -17.174  -5.985  11.586  1.00  0.00    -0.391 OA
ATOM     18  H3  UNL     1     -17.878  -5.922  12.221  1.00  0.00     0.210 HD
ENDBRANCH   4  17
BRANCH   1  19
HETATM   19  S1  UNL     1     -22.001  -5.652  10.250  1.00  0.00    -0.166 SA
HETATM   20  C1  UNL     1     -22.467  -4.867  11.817  1.00  0.00     0.090 C
ENDBRANCH   1  19
BRANCH   5  21
HETATM   21  O4  UNL     1     -17.605  -4.265   9.910  1.00  0.00    -0.390 OA
ATOM     22  H4  UNL     1     -17.336  -3.720   9.180  1.00  0.00     0.210 HD
ENDBRANCH   5  21
BRANCH   6  23
HETATM   23  O5  UNL     1     -19.743  -6.121   7.965  1.00  0.00    -0.392 OA
ATOM     24  H5  UNL     1     -18.968  -6.122   7.416  1.00  0.00     0.210 HD
ENDBRANCH   6  23
TORSDOF 9
ENDMDL