MODEL 3
REMARK VINA RESULT: -5.641300500      1.360      2.617
REMARK  9 active torsions:
REMARK  status: ('A' for Active; 'I' for Inactive)
REMARK    1  A    between atoms: O1_1  and  C1_3
REMARK    2  A    between atoms: C1_3  and  C2_4
REMARK    3  A    between atoms: C3_6  and  O3_7
REMARK    4  A    between atoms: O3_7  and  C4_8
REMARK    5  A    between atoms: N1_12  and  C8_13
REMARK    6  A    between atoms: C8_13  and  C9_14
REMARK    7  A    between atoms: C9_14  and  N2_15
REMARK    8  A    between atoms: C16_22  and  O4_23
REMARK    9  A    between atoms: C17_25  and  O5_26
ROOT
HETATM    1  C4  UNL     1     -17.083  -8.915   9.689  1.00  0.00     0.146 C
HETATM    2  C5  UNL     1     -16.908  -8.599   8.225  1.00  0.00     0.062 C
HETATM    3  C6  UNL     1     -17.130  -7.148   7.996  1.00  0.00    -0.007 C
HETATM    4  C7  UNL     1     -17.960  -6.464   8.725  1.00  0.00     0.081 C
HETATM    5  N1  UNL     1     -18.704  -7.040   9.774  1.00  0.00    -0.386 N
HETATM    6  C15 UNL     1     -18.381  -8.371  10.227  1.00  0.00     0.154 C
ENDROOT
BRANCH   1   7
HETATM    7  O3  UNL     1     -16.973 -10.234  10.000  1.00  0.00    -0.351 OA
BRANCH   7   8
HETATM    8  C3  UNL     1     -16.668 -11.076   8.964  1.00  0.00     0.292 C
HETATM    9  O2  UNL     1     -15.388 -10.960   8.486  1.00  0.00    -0.348 OA
HETATM   10  C2  UNL     1     -15.114 -12.135   7.794  1.00  0.00     0.179 C
HETATM   11  C17 UNL     1     -15.907 -13.226   8.435  1.00  0.00     0.182 C
HETATM   12  C16 UNL     1     -16.684 -12.494   9.508  1.00  0.00     0.204 C
BRANCH  10  13
HETATM   13  C1  UNL     1     -15.568 -11.899   6.350  1.00  0.00     0.198 C
BRANCH  13  14
HETATM   14  O1  UNL     1     -14.564 -11.282   5.632  1.00  0.00    -0.398 OA
ATOM     15  H1  UNL     1     -14.080 -11.926   5.128  1.00  0.00     0.209 HD
ENDBRANCH  13  14
ENDBRANCH  10  13
BRANCH  11  16
HETATM   16  O5  UNL     1     -15.126 -14.256   8.955  1.00  0.00    -0.390 OA
ATOM     17  H5  UNL     1     -14.777 -14.072   9.819  1.00  0.00     0.210 HD
ENDBRANCH  11  16
BRANCH  12  18
HETATM   18  O4  UNL     1     -15.992 -12.617  10.700  1.00  0.00    -0.388 OA
ATOM     19  H4  UNL     1     -15.198 -13.131  10.612  1.00  0.00     0.210 HD
ENDBRANCH  12  18
ENDBRANCH   7   8
ENDBRANCH   1   7
BRANCH   5  20
HETATM   20  C8  UNL     1     -19.796  -6.391  10.469  1.00  0.00     0.152 C
BRANCH  20  21
HETATM   21  C9  UNL     1     -19.547  -4.998  10.901  1.00  0.00     0.292 C
BRANCH  21  22
HETATM   22  N2  UNL     1     -20.557  -4.042  10.576  1.00  0.00     0.090 N
HETATM   23  C10 UNL     1     -20.907  -3.169  11.649  1.00  0.00     0.272 C
HETATM   24  C11 UNL     1     -21.477  -3.972  12.777  1.00  0.00     0.030 C
HETATM   25  C12 UNL     1     -22.709  -4.670  12.317  1.00  0.00     0.003 C
HETATM   26  C13 UNL     1     -22.574  -5.378  10.993  1.00  0.00     0.030 C
HETATM   27  C14 UNL     1     -21.737  -4.599  10.006  1.00  0.00     0.272 C
ENDBRANCH  21  22
ENDBRANCH  20  21
ENDBRANCH   5  20
TORSDOF 9
ENDMDL