MODEL 3
REMARK VINA RESULT: -6.101995675      1.360      1.490
REMARK  7 active torsions:
REMARK  status: ('A' for Active; 'I' for Inactive)
REMARK    1  A    between atoms: C5_10  and  C6_11
REMARK    2  A    between atoms: C6_11  and  S2_12
REMARK    3  A    between atoms: S2_12  and  C7_13
REMARK    4  A    between atoms: C7_13  and  C8_14
REMARK    5  A    between atoms: C8_14  and  C9_15
REMARK    6  A    between atoms: C9_15  and  N2_16
REMARK    7  A    between atoms: C14_23  and  O2_24
ROOT
HETATM    1  S2  UNL     1     -17.557  -6.957   9.045  1.00  0.00    -0.165 SA
ENDROOT
BRANCH   1   2
HETATM    2  C6  UNL     1     -18.438  -5.442   9.488  1.00  0.00     0.128 C
BRANCH   2   3
HETATM    3  C5  UNL     1     -19.698  -5.748  10.271  1.00  0.00     0.299 C
HETATM    4  N1  UNL     1     -20.805  -6.063   9.375  1.00  0.00    -0.051 N
HETATM    5  C4  UNL     1     -21.997  -5.710  10.159  1.00  0.00     0.270 C
ATOM      6  H12 UNL     1     -20.801  -7.020   9.021  1.00  0.00     0.279 HD
ATOM      7  H11 UNL     1     -20.750  -5.610   8.463  1.00  0.00     0.279 HD
HETATM    8  C3  UNL     1     -21.586  -4.405  10.698  1.00  0.00     0.177 C
HETATM    9  S1  UNL     1     -22.093  -4.127  12.437  1.00  0.00    -0.133 SA
HETATM   10  N4  UNL     1     -20.135  -4.566  10.938  1.00  0.00    -0.307 N
HETATM   11  C2  UNL     1     -20.536  -3.303  12.968  1.00  0.00     0.179 C
HETATM   12  C1  UNL     1     -19.704  -3.469  11.746  1.00  0.00     0.231 C
HETATM   13  O1  UNL     1     -18.723  -2.679  11.504  1.00  0.00    -0.272 OA
ENDBRANCH   2   3
ENDBRANCH   1   2
BRANCH   1  14
HETATM   14  C7  UNL     1     -17.421  -8.103  10.452  1.00  0.00     0.075 C
BRANCH  14  15
HETATM   15  C8  UNL     1     -18.277  -9.317  10.092  1.00  0.00     0.040 C
BRANCH  15  16
HETATM   16  C9  UNL     1     -17.649 -10.132   9.018  1.00  0.00     0.279 C
BRANCH  16  17
HETATM   17  N2  UNL     1     -16.321 -10.613   9.334  1.00  0.00     0.136 N
HETATM   18  C10 UNL     1     -15.645 -11.076   8.155  1.00  0.00     0.278 C
HETATM   19  C11 UNL     1     -14.862 -12.314   8.218  1.00  0.00     0.032 C
HETATM   20  C12 UNL     1     -15.703 -13.576   8.166  1.00  0.00     0.021 C
HETATM   21  C13 UNL     1     -16.055 -13.864   9.627  1.00  0.00     0.118 C
HETATM   22  N3  UNL     1     -16.903 -12.833  10.098  1.00  0.00    -0.373 N
HETATM   23  C14 UNL     1     -16.334 -11.573  10.409  1.00  0.00     0.460 C
ATOM     24  H3  UNL     1     -17.904 -12.994  10.211  1.00  0.00     0.157 HD
BRANCH  23  25
HETATM   25  O2  UNL     1     -15.114 -11.656  11.019  1.00  0.00    -0.353 OA
ATOM     26  H2  UNL     1     -15.042 -12.442  11.548  1.00  0.00     0.214 HD
ENDBRANCH  23  25
ENDBRANCH  16  17
ENDBRANCH  15  16
ENDBRANCH  14  15
ENDBRANCH   1  14
TORSDOF 7
ENDMDL