MODEL 1
REMARK VINA RESULT: -8.769045569      0.000      0.000
REMARK  7 active torsions:
REMARK  status: ('A' for Active; 'I' for Inactive)
REMARK       I    between atoms: C1_2  and  N1_3
REMARK    1  A    between atoms: C1_2  and  C8_12
REMARK    2  A    between atoms: N1_3  and  N2_5
REMARK    3  A    between atoms: N2_5  and  C2_6
REMARK       I    between atoms: N3_14  and  C10_15
REMARK    4  A    between atoms: C10_15  and  C11_17
REMARK    5  A    between atoms: C11_17  and  O3_18
REMARK    6  A    between atoms: O3_18  and  N4_19
REMARK    7  A    between atoms: C14_24  and  O6_25
ROOT
HETATM    1  C8  UNL     1     -17.650  -8.837   9.248  1.00  0.00     0.126 C
HETATM    2  C9  UNL     1     -16.273  -9.147   8.750  1.00  0.00     0.142 C
HETATM    3  N3  UNL     1     -16.190 -10.606   8.664  1.00  0.00    -0.349 N
HETATM    4  C10 UNL     1     -16.007 -11.271   7.432  1.00  0.00     0.246 C
HETATM    5  O2  UNL     1     -15.911 -10.595   6.379  1.00  0.00    -0.271 OA
HETATM    6  C12 UNL     1     -16.316 -11.286   9.940  1.00  0.00     0.128 C
HETATM    7  C13 UNL     1     -17.511 -10.875  10.731  1.00  0.00     0.052 C
HETATM    8  C14 UNL     1     -17.955  -9.468  10.579  1.00  0.00     0.134 C
ENDROOT
BRANCH   1   9
HETATM    9  C1  UNL     1     -17.835  -7.385   9.293  1.00  0.00     0.241 C
HETATM   10  O1  UNL     1     -18.071  -6.762   8.218  1.00  0.00    -0.272 OA
HETATM   11  N1  UNL     1     -17.765  -6.618  10.486  1.00  0.00    -0.273 N
ATOM     12  H1  UNL     1     -17.578  -7.083  11.373  1.00  0.00     0.185 HD
BRANCH  11  13
HETATM   13  N2  UNL     1     -17.949  -5.242  10.458  1.00  0.00    -0.134 NA
BRANCH  13  14
HETATM   14  C2  UNL     1     -19.188  -4.802  11.047  1.00  0.00     0.099 C
HETATM   15  C3  UNL     1     -19.097  -3.345  11.431  1.00  0.00     0.023 C
HETATM   16  C4  UNL     1     -20.358  -3.004  12.196  1.00  0.00     0.002 C
HETATM   17  C5  UNL     1     -21.377  -4.101  12.173  1.00  0.00     0.000 C
HETATM   18  C6  UNL     1     -21.617  -4.661  10.789  1.00  0.00     0.002 C
HETATM   19  C7  UNL     1     -20.336  -4.903  10.043  1.00  0.00     0.023 C
ENDBRANCH  13  14
ENDBRANCH  11  13
ENDBRANCH   1   9
BRANCH   8  20
HETATM   20  O6  UNL     1     -17.514  -8.677  11.652  1.00  0.00    -0.395 OA
ATOM     21  H6  UNL     1     -17.867  -7.796  11.615  1.00  0.00     0.210 HD
ENDBRANCH   8  20
BRANCH   4  22
HETATM   22  C11 UNL     1     -15.922 -12.739   7.328  1.00  0.00     0.310 C
BRANCH  22  23
HETATM   23  O3  UNL     1     -15.100 -13.307   8.316  1.00  0.00    -0.212 OA
BRANCH  23  24
HETATM   24  N4  UNL     1     -15.421 -14.492   8.903  1.00  0.00     0.005 N
HETATM   25  O4  UNL     1     -15.088 -15.565   8.339  1.00  0.00    -0.511 OA
HETATM   26  O5  UNL     1     -16.091 -14.579  10.085  1.00  0.00    -0.511 OA
ENDBRANCH  23  24
ENDBRANCH  22  23
ENDBRANCH   4  22
TORSDOF 7
ENDMDL