MODEL 2
REMARK VINA RESULT: -5.163558187      1.421      1.621
REMARK  9 active torsions:
REMARK  status: ('A' for Active; 'I' for Inactive)
REMARK    1  A    between atoms: C2_2  and  C3_3
REMARK    2  A    between atoms: C2_2  and  N1_25
REMARK    3  A    between atoms: C3_3  and  O1_4
REMARK    4  A    between atoms: O1_4  and  C4_5
REMARK    5  A    between atoms: C10_12  and  O3_13
REMARK    6  A    between atoms: C10_12  and  C11_15
REMARK    7  A    between atoms: C11_15  and  O4_16
REMARK    8  A    between atoms: C12_19  and  C13_20
REMARK    9  A    between atoms: C13_20  and  O6_21
ROOT
HETATM    1  C4  UNL     1     -18.189  -8.740  10.079  1.00  0.00     0.150 C
HETATM    2  C5  UNL     1     -17.945  -9.582  11.314  1.00  0.00     0.035 C
HETATM    3  C6  UNL     1     -17.557 -10.903  10.640  1.00  0.00     0.011 C
HETATM    4  C7  UNL     1     -16.530 -10.412   9.664  1.00  0.00     0.030 C
HETATM    5  C8  UNL     1     -17.006  -9.037   9.228  1.00  0.00     0.156 C
HETATM    6  O2  UNL     1     -17.287  -9.127   7.876  1.00  0.00    -0.371 OA
HETATM    7  C9  UNL     1     -16.595 -10.171   7.345  1.00  0.00     0.197 C
HETATM    8  C10 UNL     1     -15.254  -9.858   6.784  1.00  0.00     0.211 C
HETATM    9  O5  UNL     1     -14.305 -10.332   7.680  1.00  0.00    -0.343 OA
HETATM   10  C12 UNL     1     -14.879 -11.484   8.172  1.00  0.00     0.160 C
HETATM   11  C14 UNL     1     -16.328 -11.171   8.452  1.00  0.00     0.022 C
HETATM   12  C15 UNL     1     -17.098 -12.437   8.270  1.00  0.00     0.021 C
ENDROOT
BRANCH   1  13
HETATM   13  O1  UNL     1     -18.335  -7.395  10.393  1.00  0.00    -0.381 OA
BRANCH  13  14
HETATM   14  C3  UNL     1     -19.487  -6.949   9.747  1.00  0.00     0.203 C
BRANCH  14  15
HETATM   15  C2  UNL     1     -19.678  -5.460   9.889  1.00  0.00     0.241 C
HETATM   16  C1  UNL     1     -18.444  -4.752  10.396  1.00  0.00     0.045 C
BRANCH  15  17
HETATM   17  N1  UNL     1     -20.739  -5.254  10.856  1.00  0.00     0.086 N
HETATM   18  C16 UNL     1     -20.695  -3.932  11.397  1.00  0.00     0.310 C
HETATM   19  C17 UNL     1     -22.026  -5.635  10.350  1.00  0.00     0.310 C
ENDBRANCH  15  17
ENDBRANCH  14  15
ENDBRANCH  13  14
ENDBRANCH   1  13
BRANCH  10  20
HETATM   20  C13 UNL     1     -14.134 -12.097   9.312  1.00  0.00     0.197 C
BRANCH  20  21
HETATM   21  O6  UNL     1     -12.748 -11.844   9.176  1.00  0.00    -0.398 OA
ATOM     22  H6  UNL     1     -12.323 -11.897  10.025  1.00  0.00     0.209 HD
ENDBRANCH  20  21
ENDBRANCH  10  20
BRANCH   8  23
HETATM   23  O3  UNL     1     -15.020  -8.486   6.660  1.00  0.00    -0.362 OA
ATOM     24  H3  UNL     1     -15.790  -8.000   6.389  1.00  0.00     0.213 HD
ENDBRANCH   8  23
BRANCH   8  25
HETATM   25  C11 UNL     1     -14.999 -10.480   5.428  1.00  0.00     0.235 C
BRANCH  25  26
HETATM   26  O4  UNL     1     -13.783 -10.015   4.888  1.00  0.00    -0.395 OA
ATOM     27  H4  UNL     1     -13.833  -9.970   3.941  1.00  0.00     0.209 HD
ENDBRANCH  25  26
ENDBRANCH   8  25
TORSDOF 9
ENDMDL