MODEL 4
REMARK VINA RESULT: -7.190220796      2.631      7.452
REMARK  8 active torsions:
REMARK  status: ('A' for Active; 'I' for Inactive)
REMARK    1  A    between atoms: S1_2  and  C1_5
REMARK    2  A    between atoms: C2_6  and  S2_7
REMARK    3  A    between atoms: S2_7  and  C3_10
REMARK    4  A    between atoms: C3_10  and  C4_11
REMARK    5  A    between atoms: C7_14  and  C8_15
REMARK    6  A    between atoms: C10_17  and  C11_18
REMARK    7  A    between atoms: C11_18  and  O6_19
REMARK    8  A    between atoms: C11_18  and  O7_21
ROOT
HETATM    1  C4  UNL     1     -17.445  -8.904   8.554  1.00  0.00     0.136 C
HETATM    2  C5  UNL     1     -17.013  -9.014   9.984  1.00  0.00     0.035 C
HETATM    3  C6  UNL     1     -18.311  -8.607  10.701  1.00  0.00     0.035 C
HETATM    4  C7  UNL     1     -19.033  -7.860   9.647  1.00  0.00     0.126 C
HETATM    5  O8  UNL     1     -18.144  -7.681   8.574  1.00  0.00    -0.379 OA
ENDROOT
BRANCH   1   6
HETATM    6  C3  UNL     1     -16.303  -8.844   7.574  1.00  0.00     0.176 C
BRANCH   6   7
HETATM    7  S2  UNL     1     -15.585 -10.414   7.260  1.00  0.00     0.168 S
HETATM    8  O4  UNL     1     -14.219 -10.323   6.660  1.00  0.00    -0.223 OA
HETATM    9  O5  UNL     1     -16.525 -11.169   6.330  1.00  0.00    -0.223 OA
BRANCH   7  10
HETATM   10  C2  UNL     1     -15.451 -11.306   8.764  1.00  0.00     0.123 C
HETATM   11  C1  UNL     1     -16.452 -12.137   9.071  1.00  0.00     0.145 C
BRANCH  11  12
HETATM   12  S1  UNL     1     -16.378 -13.067  10.574  1.00  0.00     0.127 S
HETATM   13  O1  UNL     1     -15.365 -12.413  11.474  1.00  0.00    -0.592 OA
HETATM   14  O2  UNL     1     -17.735 -13.104  11.195  1.00  0.00    -0.592 OA
HETATM   15  O3  UNL     1     -15.857 -14.631  10.279  1.00  0.00    -0.592 OA
ENDBRANCH  11  12
ENDBRANCH   7  10
ENDBRANCH   6   7
ENDBRANCH   1   6
BRANCH   4  16
HETATM   16  C8  UNL     1     -19.718  -6.607  10.039  1.00  0.00     0.024 A
HETATM   17  C9  UNL     1     -19.987  -5.619   8.930  1.00  0.00     0.017 A
HETATM   18  C10 UNL     1     -21.114  -6.252   9.658  1.00  0.00     0.047 A
BRANCH  18  19
HETATM   19  C11 UNL     1     -21.897  -5.363  10.639  1.00  0.00     0.258 C
BRANCH  19  20
HETATM   20  O6  UNL     1     -21.595  -4.036  10.427  1.00  0.00    -0.371 OA
ATOM     21  H6  UNL     1     -21.430  -3.600  11.254  1.00  0.00     0.212 HD
ENDBRANCH  19  20
BRANCH  19  22
HETATM   22  O7  UNL     1     -23.252  -5.596  10.327  1.00  0.00    -0.371 OA
ATOM     23  H7  UNL     1     -23.643  -5.877  11.145  1.00  0.00     0.212 HD
ENDBRANCH  19  22
ENDBRANCH  18  19
ENDBRANCH   4  16
TORSDOF 8
ENDMDL