MODEL 2
REMARK VINA RESULT: -6.015223274      1.261      2.242
REMARK  9 active torsions:
REMARK  status: ('A' for Active; 'I' for Inactive)
REMARK    1  A    between atoms: C5_6  and  N1_7
REMARK    2  A    between atoms: N1_7  and  C7_9
REMARK    3  A    between atoms: C7_9  and  C8_10
REMARK    4  A    between atoms: C8_10  and  C9_11
REMARK    5  A    between atoms: C9_11  and  O2_12
REMARK    6  A    between atoms: O2_12  and  C10_13
REMARK    7  A    between atoms: C12_15  and  O3_16
REMARK    8  A    between atoms: C16_22  and  O5_23
REMARK    9  A    between atoms: C17_25  and  O6_26
ROOT
HETATM    1  C9  UNL     1     -16.618  -8.544   7.798  1.00  0.00     0.169 C
ENDROOT
BRANCH   1   2
HETATM    2  C8  UNL     1     -17.163  -7.154   8.088  1.00  0.00     0.046 C
BRANCH   2   3
HETATM    3  C7  UNL     1     -18.405  -7.341   8.919  1.00  0.00     0.119 C
BRANCH   3   4
HETATM    4  N1  UNL     1     -18.429  -6.579  10.155  1.00  0.00    -0.407 N
HETATM    5  C6  UNL     1     -17.653  -7.181  11.183  1.00  0.00     0.143 C
BRANCH   4   6
HETATM    6  C5  UNL     1     -19.681  -6.029  10.443  1.00  0.00     0.138 C
HETATM    7  C3  UNL     1     -19.839  -4.752  11.126  1.00  0.00     0.143 C
HETATM    8  O1  UNL     1     -20.957  -4.097  10.579  1.00  0.00    -0.377 OA
HETATM    9  C4  UNL     1     -18.758  -3.761  11.202  1.00  0.00     0.042 C
HETATM   10  C2  UNL     1     -21.692  -5.010   9.871  1.00  0.00     0.148 C
HETATM   11  C1  UNL     1     -22.789  -5.695  10.607  1.00  0.00     0.042 C
HETATM   12  C17 UNL     1     -20.670  -5.996   9.312  1.00  0.00     0.171 C
BRANCH  12  13
HETATM   13  O6  UNL     1     -20.221  -5.478   8.132  1.00  0.00    -0.391 OA
ATOM     14  H6  UNL     1     -20.985  -5.322   7.590  1.00  0.00     0.210 HD
ENDBRANCH  12  13
ENDBRANCH   4   6
ENDBRANCH   3   4
ENDBRANCH   2   3
ENDBRANCH   1   2
BRANCH   1  15
HETATM   15  O2  UNL     1     -17.133  -9.551   8.559  1.00  0.00    -0.385 OA
BRANCH  15  16
HETATM   16  C10 UNL     1     -16.266 -10.575   8.861  1.00  0.00     0.132 C
HETATM   17  C11 UNL     1     -16.479 -11.703   7.844  1.00  0.00     0.067 C
HETATM   18  C12 UNL     1     -15.698 -12.922   8.219  1.00  0.00     0.152 C
HETATM   19  C13 UNL     1     -15.874 -13.286   9.683  1.00  0.00     0.179 C
HETATM   20  O4  UNL     1     -17.194 -13.356  10.030  1.00  0.00    -0.380 OA
HETATM   21  C16 UNL     1     -15.382 -12.099  10.518  1.00  0.00     0.158 C
HETATM   22  C14 UNL     1     -17.707 -12.103  10.240  1.00  0.00     0.178 C
HETATM   23  C15 UNL     1     -16.542 -11.129  10.231  1.00  0.00     0.070 C
BRANCH  18  24
HETATM   24  O3  UNL     1     -14.352 -12.781   7.966  1.00  0.00    -0.393 OA
ATOM     25  H3  UNL     1     -13.968 -12.056   8.444  1.00  0.00     0.210 HD
ENDBRANCH  18  24
BRANCH  21  26
HETATM   26  O5  UNL     1     -15.383 -12.483  11.833  1.00  0.00    -0.392 OA
ATOM     27  H5  UNL     1     -16.169 -12.133  12.236  1.00  0.00     0.210 HD
ENDBRANCH  21  26
ENDBRANCH  15  16
ENDBRANCH   1  15
TORSDOF 9
ENDMDL