MODEL 3
REMARK VINA RESULT: -6.272200841      4.053      8.146
REMARK  9 active torsions:
REMARK  status: ('A' for Active; 'I' for Inactive)
REMARK    1  A    between atoms: N1_2  and  C2_4
REMARK    2  A    between atoms: C2_4  and  N2_6
REMARK    3  A    between atoms: N2_6  and  C3_8
REMARK    4  A    between atoms: C3_8  and  C5_11
REMARK    5  A    between atoms: C5_11  and  S2_12
REMARK    6  A    between atoms: S2_12  and  C6_13
REMARK    7  A    between atoms: C8_16  and  O2_17
REMARK    8  A    between atoms: C10_19  and  O3_20
REMARK    9  A    between atoms: C12_22  and  O4_23
ROOT
HETATM    1  C3  UNL     1      96.825  14.462  32.020  1.00  0.00     0.200 C
HETATM    2  C4  UNL     1      96.811  14.283  30.536  1.00  0.00     0.085 C
HETATM    3  N3  UNL     1      96.821  14.145  29.389  1.00  0.00    -0.195 NA
ENDROOT
BRANCH   1   4
HETATM    4  N2  UNL     1      97.449  13.283  32.551  1.00  0.00    -0.349 N
ATOM      5  H2  UNL     1      96.983  12.383  32.438  1.00  0.00     0.163 HD
BRANCH   4   6
HETATM    6  C2  UNL     1      98.688  13.334  33.224  1.00  0.00     0.168 C
HETATM    7  S1  UNL     1      99.767  14.548  32.941  1.00  0.00    -0.041 SA
BRANCH   6   8
HETATM    8  N1  UNL     1      99.038  12.352  34.155  1.00  0.00    -0.372 N
HETATM    9  C1  UNL     1      99.897  12.640  35.292  1.00  0.00     0.148 C
ATOM     10  H1  UNL     1      98.680  11.404  34.033  1.00  0.00     0.161 HD
ENDBRANCH   6   8
ENDBRANCH   4   6
ENDBRANCH   1   4
BRANCH   1  11
HETATM   11  C5  UNL     1      95.327  14.491  32.397  1.00  0.00     0.116 C
BRANCH  11  12
HETATM   12  S2  UNL     1      94.864  16.245  32.372  1.00  0.00    -0.134 SA
BRANCH  12  13
HETATM   13  C6  UNL     1      93.746  16.619  31.001  1.00  0.00     0.192 C
HETATM   14  O1  UNL     1      94.144  15.909  29.867  1.00  0.00    -0.366 OA
HETATM   15  C7  UNL     1      94.220  17.073  29.102  1.00  0.00     0.164 C
HETATM   16  C8  UNL     1      93.010  17.192  28.237  1.00  0.00     0.181 C
HETATM   17  C13 UNL     1      94.041  17.914  30.322  1.00  0.00     0.088 C
HETATM   18  C10 UNL     1      92.354  18.468  28.684  1.00  0.00     0.181 C
HETATM   19  C12 UNL     1      92.891  18.814  30.042  1.00  0.00     0.159 C
BRANCH  16  20
HETATM   20  O2  UNL     1      93.437  17.268  26.895  1.00  0.00    -0.385 OA
HETATM   21  C9  UNL     1      93.511  15.994  26.320  1.00  0.00     0.202 C
ENDBRANCH  16  20
BRANCH  18  22
HETATM   22  O3  UNL     1      90.975  18.385  28.662  1.00  0.00    -0.385 OA
HETATM   23  C11 UNL     1      90.428  19.564  28.227  1.00  0.00     0.202 C
ENDBRANCH  18  22
BRANCH  19  24
HETATM   24  O4  UNL     1      91.910  18.780  31.028  1.00  0.00    -0.392 OA
ATOM     25  H4  UNL     1      92.147  19.286  31.796  1.00  0.00     0.210 HD
ENDBRANCH  19  24
ENDBRANCH  12  13
ENDBRANCH  11  12
ENDBRANCH   1  11
TORSDOF 9
ENDMDL