MODEL 4
REMARK VINA RESULT: -5.504909321      7.884     11.570
REMARK  10 active torsions:
REMARK  status: ('A' for Active; 'I' for Inactive)
REMARK    1  A    between atoms: C2_2  and  C3_3
REMARK    2  A    between atoms: C3_3  and  C4_4
REMARK    3  A    between atoms: C4_4  and  C5_5
REMARK       I    between atoms: C5_5  and  N1_7
REMARK    4  A    between atoms: N1_7  and  C6_9
REMARK    5  A    between atoms: C8_12  and  C9_13
REMARK    6  A    between atoms: C9_13  and  O3_15
REMARK    7  A    between atoms: C11_17  and  O4_18
REMARK    8  A    between atoms: C12_20  and  O5_21
REMARK    9  A    between atoms: C13_23  and  O6_24
REMARK   10  A    between atoms: O6_24  and  C14_25
ROOT
HETATM    1  C6  UNL     1     102.503  17.782  35.749  1.00  0.00     0.148 C
HETATM    2  C7  UNL     1     102.080  19.257  35.734  1.00  0.00     0.301 C
HETATM    3  N2  UNL     1     103.391  19.529  35.154  1.00  0.00     0.117 N
HETATM    4  C8  UNL     1     104.002  20.672  35.719  1.00  0.00     0.353 C
HETATM    5  C11 UNL     1     105.483  20.365  35.926  1.00  0.00     0.193 C
HETATM    6  C12 UNL     1     105.504  19.422  37.117  1.00  0.00     0.180 C
HETATM    7  C13 UNL     1     104.727  18.194  36.753  1.00  0.00     0.189 C
HETATM    8  C15 UNL     1     103.940  18.270  35.510  1.00  0.00     0.279 C
ENDROOT
BRANCH   1   9
HETATM    9  N1  UNL     1     101.917  17.111  34.635  1.00  0.00    -0.353 N
HETATM   10  C5  UNL     1     100.902  16.104  34.747  1.00  0.00     0.217 C
HETATM   11  O1  UNL     1     100.543  15.836  35.919  1.00  0.00    -0.274 OA
ATOM     12  H1  UNL     1     102.240  17.362  33.701  1.00  0.00     0.163 HD
BRANCH  10  13
HETATM   13  C4  UNL     1     100.333  15.446  33.576  1.00  0.00     0.103 C
BRANCH  13  14
HETATM   14  C3  UNL     1      99.725  14.110  33.794  1.00  0.00     0.009 C
BRANCH  14  15
HETATM   15  C2  UNL     1      98.740  13.707  32.731  1.00  0.00    -0.004 C
HETATM   16  C1  UNL     1      98.709  14.770  31.631  1.00  0.00     0.005 C
ENDBRANCH  14  15
ENDBRANCH  13  14
ENDBRANCH  10  13
ENDBRANCH   1   9
BRANCH   7  17
HETATM   17  O6  UNL     1     103.946  17.839  37.848  1.00  0.00    -0.366 OA
BRANCH  17  18
HETATM   18  C14 UNL     1     104.686  17.294  38.888  1.00  0.00     0.282 C
HETATM   19 CL1  UNL     1     103.953  17.613  40.476  1.00  0.00    -0.102 Cl
ENDBRANCH  17  18
ENDBRANCH   7  17
BRANCH   4  20
HETATM   20  C9  UNL     1     103.905  21.870  34.867  1.00  0.00     0.295 C
HETATM   21  O2  UNL     1     103.721  21.665  33.622  1.00  0.00    -0.263 OA
BRANCH  20  22
HETATM   22  O3  UNL     1     103.998  23.161  35.338  1.00  0.00    -0.325 OA
HETATM   23  C10 UNL     1     103.392  23.447  36.595  1.00  0.00     0.213 C
ENDBRANCH  20  22
ENDBRANCH   4  20
BRANCH   6  24
HETATM   24  O5  UNL     1     104.834  20.095  38.153  1.00  0.00    -0.390 OA
ATOM     25  H5  UNL     1     104.025  19.619  38.292  1.00  0.00     0.210 HD
ENDBRANCH   6  24
BRANCH   5  26
HETATM   26  O4  UNL     1     106.225  21.501  36.163  1.00  0.00    -0.390 OA
ATOM     27  H4  UNL     1     106.892  21.642  35.502  1.00  0.00     0.210 HD
ENDBRANCH   5  26
TORSDOF 10
ENDMDL