MODEL 2
REMARK VINA RESULT: -6.204893184      9.507     11.552
REMARK  8 active torsions:
REMARK  status: ('A' for Active; 'I' for Inactive)
REMARK    1  A    between atoms: N1_2  and  C2_5
REMARK    2  A    between atoms: C3_6  and  O1_7
REMARK    3  A    between atoms: C4_9  and  C5_10
REMARK    4  A    between atoms: C7_14  and  O3_15
REMARK    5  A    between atoms: C9_17  and  O4_18
REMARK    6  A    between atoms: O4_18  and  C10_19
REMARK    7  A    between atoms: C10_19  and  C11_21
REMARK    8  A    between atoms: C11_21  and  C12_22
ROOT
HETATM    1  C2  UNL     1     104.826  20.471  33.235  1.00  0.00     0.250 C
HETATM    2  C3  UNL     1     104.973  19.104  33.848  1.00  0.00     0.184 C
HETATM    3  C4  UNL     1     103.867  18.979  34.903  1.00  0.00     0.179 C
HETATM    4  O2  UNL     1     103.578  20.208  35.467  1.00  0.00    -0.347 OA
HETATM    5  C7  UNL     1     102.926  21.088  34.611  1.00  0.00     0.291 C
HETATM    6  C9  UNL     1     103.333  20.775  33.180  1.00  0.00     0.220 C
ENDROOT
BRANCH   6   7
HETATM    7  O4  UNL     1     103.044  21.830  32.308  1.00  0.00    -0.308 OA
BRANCH   7   8
HETATM    8  C10 UNL     1     102.071  21.714  31.290  1.00  0.00     0.269 C
HETATM    9  O5  UNL     1     100.889  21.848  31.704  1.00  0.00    -0.265 OA
BRANCH   8  10
HETATM   10  C11 UNL     1     102.452  21.458  29.891  1.00  0.00     0.224 C
BRANCH  10  11
HETATM   11  C12 UNL     1     101.613  22.257  28.981  1.00  0.00     0.182 C
HETATM   12  O6  UNL     1     101.864  23.496  28.854  1.00  0.00    -0.648 OA
HETATM   13  O7  UNL     1     100.593  21.700  28.285  1.00  0.00    -0.648 OA
ENDBRANCH  10  11
ENDBRANCH   8  10
ENDBRANCH   7   8
ENDBRANCH   6   7
BRANCH   1  14
HETATM   14  N1  UNL     1     105.439  20.574  31.932  1.00  0.00    -0.070 N
HETATM   15  C1  UNL     1     106.212  21.800  31.877  1.00  0.00     0.267 C
ATOM     16  H12 UNL     1     104.759  20.507  31.175  1.00  0.00     0.277 HD
ATOM     17  H11 UNL     1     105.994  19.751  31.696  1.00  0.00     0.277 HD
ENDBRANCH   1  14
BRANCH   5  18
HETATM   18  O3  UNL     1     101.569  21.109  34.785  1.00  0.00    -0.363 OA
HETATM   19  C8  UNL     1     101.294  21.097  36.150  1.00  0.00     0.204 C
ENDBRANCH   5  18
BRANCH   2  20
HETATM   20  O1  UNL     1     106.225  18.913  34.439  1.00  0.00    -0.390 OA
ATOM     21  H1  UNL     1     106.935  19.255  33.908  1.00  0.00     0.210 HD
ENDBRANCH   2  20
BRANCH   3  22
HETATM   22  C5  UNL     1     104.317  18.095  36.024  1.00  0.00     0.015 C
HETATM   23  C6  UNL     1     103.490  17.213  36.562  1.00  0.00     0.054 C
HETATM   24 BR1  UNL     1     101.710  17.083  35.888  1.00  0.00    -0.064 Br
ENDBRANCH   3  22
TORSDOF 8
ENDMDL