MODEL 3
REMARK VINA RESULT: -5.216043753      3.690      7.675
REMARK  13 active torsions:
REMARK  status: ('A' for Active; 'I' for Inactive)
REMARK    1  A    between atoms: C2_2  and  C3_4
REMARK    2  A    between atoms: C3_4  and  C4_5
REMARK    3  A    between atoms: N2_9  and  C7_10
REMARK    4  A    between atoms: C7_10  and  O1_11
REMARK    5  A    between atoms: C7_10  and  C8_13
REMARK    6  A    between atoms: C8_13  and  N3_14
REMARK    7  A    between atoms: C8_13  and  S1_19
REMARK    8  A    between atoms: N3_14  and  N4_16
REMARK    9  A    between atoms: S1_19  and  C9_20
REMARK   10  A    between atoms: C9_20  and  C10_21
REMARK   11  A    between atoms: C10_21  and  O2_22
REMARK   12  A    between atoms: C10_21  and  C11_24
REMARK   13  A    between atoms: C11_24  and  O3_25
ROOT
HETATM    1  C4  UNL     1     103.274  19.251  36.555  1.00  0.00     0.115 C
HETATM    2  C5  UNL     1     103.045  17.956  35.926  1.00  0.00     0.082 C
HETATM    3  N1  UNL     1     102.877  16.936  35.396  1.00  0.00    -0.196 NA
HETATM    4  C6  UNL     1     102.152  20.165  36.148  1.00  0.00     0.161 C
HETATM    5  N2  UNL     1     102.645  21.193  35.198  1.00  0.00    -0.356 N
HETATM    6  C12 UNL     1     103.407  22.239  35.810  1.00  0.00     0.135 C
HETATM    7  C13 UNL     1     104.844  21.742  35.983  1.00  0.00     0.095 C
HETATM    8  S2  UNL     1     104.834  19.960  35.847  1.00  0.00    -0.140 SA
ENDROOT
BRANCH   1   9
HETATM    9  C3  UNL     1     103.472  19.231  38.017  1.00  0.00     0.074 C
BRANCH   9  10
HETATM   10  C2  UNL     1     103.968  18.012  38.679  1.00  0.00     0.168 C
HETATM   11  C1  UNL     1     103.793  18.039  40.158  1.00  0.00     0.045 C
HETATM   12  F1  UNL     1     105.227  17.588  38.298  1.00  0.00    -0.250 F
ENDBRANCH   9  10
ENDBRANCH   1   9
BRANCH   5  13
HETATM   13  C7  UNL     1     102.306  21.012  33.845  1.00  0.00     0.174 C
BRANCH  13  14
HETATM   14  O1  UNL     1     101.067  20.747  33.545  1.00  0.00    -0.344 OA
ATOM     15  H1  UNL     1     100.379  21.138  34.071  1.00  0.00     0.219 HD
ENDBRANCH  13  14
BRANCH  13  16
HETATM   16  C8  UNL     1     103.172  21.079  32.693  1.00  0.00     0.135 C
BRANCH  16  17
HETATM   17  N3  UNL     1     104.012  20.137  32.441  1.00  0.00    -0.297 N
ATOM     18  H3  UNL     1     104.856  20.406  31.935  1.00  0.00     0.187 HD
BRANCH  17  19
HETATM   19  N4  UNL     1     103.901  18.817  32.772  1.00  0.00    -0.344 N
ATOM     20  H42 UNL     1     104.780  18.298  32.783  1.00  0.00     0.176 HD
ATOM     21  H41 UNL     1     103.049  18.306  33.004  1.00  0.00     0.176 HD
ENDBRANCH  17  19
ENDBRANCH  16  17
BRANCH  16  22
HETATM   22  S1  UNL     1     103.187  22.437  31.537  1.00  0.00    -0.104 SA
BRANCH  22  23
HETATM   23  C9  UNL     1     102.406  22.056  29.987  1.00  0.00     0.114 C
BRANCH  23  24
HETATM   24  C10 UNL     1     101.024  22.592  29.829  1.00  0.00     0.151 C
BRANCH  24  25
HETATM   25  O2  UNL     1     100.332  22.338  31.023  1.00  0.00    -0.393 OA
ATOM     26  H2  UNL     1      99.408  22.279  30.811  1.00  0.00     0.210 HD
ENDBRANCH  24  25
BRANCH  24  27
HETATM   27  C11 UNL     1     100.240  21.938  28.724  1.00  0.00     0.196 C
BRANCH  27  28
HETATM   28  O3  UNL     1      99.035  21.463  29.286  1.00  0.00    -0.398 OA
ATOM     29  H3  UNL     1      98.358  21.557  28.626  1.00  0.00     0.209 HD
ENDBRANCH  27  28
ENDBRANCH  24  27
ENDBRANCH  23  24
ENDBRANCH  22  23
ENDBRANCH  16  22
ENDBRANCH  13  16
ENDBRANCH   5  13
TORSDOF 13
ENDMDL