MODEL 3
REMARK VINA RESULT: -7.373576040      0.546      1.078
REMARK  9 active torsions:
REMARK  status: ('A' for Active; 'I' for Inactive)
REMARK    1  A    between atoms: C2_2  and  N1_3
REMARK       I    between atoms: N1_3  and  C3_5
REMARK    2  A    between atoms: C3_5  and  C4_7
REMARK    3  A    between atoms: C4_7  and  C5_9
REMARK    4  A    between atoms: C5_9  and  O4_11
REMARK    5  A    between atoms: O4_11  and  C6_12
REMARK    6  A    between atoms: C6_12  and  C7_13
REMARK    7  A    between atoms: C7_13  and  N2_14
REMARK    8  A    between atoms: C9_19  and  O5_20
REMARK    9  A    between atoms: O5_20  and  C10_21
REMARK       I    between atoms: C10_21  and  N3_23
ROOT
HETATM    1  C7  UNL     1      95.081  16.235  31.347  1.00  0.00     0.152 C
HETATM    2  C8  UNL     1      94.954  15.767  29.934  1.00  0.00     0.074 C
HETATM    3  C9  UNL     1      94.502  16.950  29.143  1.00  0.00     0.141 C
HETATM    4  C12 UNL     1      94.166  18.024  30.118  1.00  0.00     0.031 A
HETATM    5  C13 UNL     1      94.385  17.536  31.496  1.00  0.00     0.039 A
HETATM    6  C14 UNL     1      93.029  17.840  31.051  1.00  0.00    -0.035 A
HETATM    7  C15 UNL     1      92.426  19.139  31.553  1.00  0.00     0.016 C
HETATM    8  C16 UNL     1      91.986  16.782  30.803  1.00  0.00     0.016 C
ENDROOT
BRANCH   1   9
HETATM    9  C6  UNL     1      96.551  16.443  31.651  1.00  0.00     0.218 C
BRANCH   9  10
HETATM   10  O4  UNL     1      97.365  15.705  30.732  1.00  0.00    -0.312 OA
BRANCH  10  11
HETATM   11  C5  UNL     1      98.295  14.788  31.135  1.00  0.00     0.339 C
HETATM   12  O3  UNL     1      99.379  14.738  30.493  1.00  0.00    -0.255 OA
BRANCH  11  13
HETATM   13  C4  UNL     1      98.002  13.929  32.262  1.00  0.00     0.313 C
HETATM   14  O2  UNL     1      96.952  13.250  32.319  1.00  0.00    -0.276 OA
BRANCH  13  15
HETATM   15  C3  UNL     1      98.940  13.839  33.370  1.00  0.00     0.298 C
HETATM   16  N1  UNL     1      98.992  12.694  34.211  1.00  0.00    -0.354 N
ATOM     17  H1  UNL     1      98.355  11.917  34.033  1.00  0.00     0.162 HD
HETATM   18  O1  UNL     1      99.743  14.792  33.616  1.00  0.00    -0.264 OA
BRANCH  16  19
HETATM   19  C2  UNL     1      99.921  12.605  35.307  1.00  0.00     0.118 C
HETATM   20  C1  UNL     1     100.204  11.171  35.684  1.00  0.00     0.026 C
ENDBRANCH  16  19
ENDBRANCH  13  15
ENDBRANCH  11  13
ENDBRANCH  10  11
ENDBRANCH   9  10
ENDBRANCH   1   9
BRANCH   1  21
HETATM   21  N2  UNL     1      94.611  15.221  32.298  1.00  0.00    -0.068 N
ATOM     22  H23 UNL     1      94.984  14.289  32.119  1.00  0.00     0.275 HD
ATOM     23  H22 UNL     1      94.999  15.331  33.235  1.00  0.00     0.275 HD
ATOM     24  H21 UNL     1      93.592  15.263  32.273  1.00  0.00     0.275 HD
ENDBRANCH   1  21
BRANCH   3  25
HETATM   25  O5  UNL     1      93.354  16.632  28.350  1.00  0.00    -0.298 OA
BRANCH  25  26
HETATM   26  C10 UNL     1      93.479  16.211  27.032  1.00  0.00     0.360 C
HETATM   27  O6  UNL     1      93.218  17.067  26.149  1.00  0.00    -0.239 OA
HETATM   28  N3  UNL     1      93.876  14.897  26.678  1.00  0.00    -0.341 N
HETATM   29  C11 UNL     1      93.974  14.565  25.276  1.00  0.00     0.151 C
ATOM     30  H3  UNL     1      94.087  14.204  27.396  1.00  0.00     0.164 HD
ENDBRANCH  25  26
ENDBRANCH   3  25
TORSDOF 9
ENDMDL