MODEL 3
REMARK VINA RESULT: -4.839258326      2.868      6.835
REMARK  9 active torsions:
REMARK  status: ('A' for Active; 'I' for Inactive)
REMARK    1  A    between atoms: N1_2  and  C2_4
REMARK    2  A    between atoms: C3_5  and  O1_6
REMARK    3  A    between atoms: C7_13  and  C8_15
REMARK    4  A    between atoms: C8_15  and  C9_16
REMARK    5  A    between atoms: C8_15  and  O3_20
REMARK    6  A    between atoms: C9_16  and  N3_17
REMARK    7  A    between atoms: O3_20  and  C12_21
REMARK    8  A    between atoms: C12_21  and  C13_23
REMARK    9  A    between atoms: C13_23  and  N4_24
ROOT
HETATM    1  C8  UNL     1     103.414  21.181  36.223  1.00  0.00     0.219 C
ENDROOT
BRANCH   1   2
HETATM    2  C7  UNL     1     103.847  21.036  34.747  1.00  0.00     0.231 C
HETATM    3  C2  UNL     1     104.356  19.656  34.503  1.00  0.00     0.165 C
HETATM    4  C3  UNL     1     105.539  19.571  33.612  1.00  0.00     0.146 C
HETATM    5  C4  UNL     1     105.459  20.691  32.588  1.00  0.00     0.058 C
HETATM    6  C5  UNL     1     105.577  21.969  33.340  1.00  0.00     0.118 C
HETATM    7  C6  UNL     1     104.873  23.159  32.728  1.00  0.00     0.216 C
HETATM    8  N2  UNL     1     104.736  22.093  34.479  1.00  0.00    -0.146 NA
HETATM    9  O2  UNL     1     104.224  23.236  33.974  1.00  0.00    -0.298 OA
HETATM   10  F1  UNL     1     102.693  21.213  34.007  1.00  0.00    -0.218 F
BRANCH   3  11
HETATM   11  N1  UNL     1     103.305  18.774  34.045  1.00  0.00    -0.415 N
HETATM   12  C1  UNL     1     102.931  17.752  34.971  1.00  0.00     0.140 C
ATOM     13  H1  UNL     1     102.865  18.875  33.131  1.00  0.00     0.153 HD
ENDBRANCH   3  11
BRANCH   4  14
HETATM   14  O1  UNL     1     105.650  18.390  32.900  1.00  0.00    -0.393 OA
ATOM     15  H1  UNL     1     106.116  17.694  33.350  1.00  0.00     0.210 HD
ENDBRANCH   4  14
ENDBRANCH   1   2
BRANCH   1  16
HETATM   16  C9  UNL     1     101.920  21.104  36.342  1.00  0.00     0.308 C
BRANCH  16  17
HETATM   17  N3  UNL     1     101.482  22.176  37.225  1.00  0.00     0.082 N
HETATM   18  C10 UNL     1     102.542  23.191  37.328  1.00  0.00     0.309 C
HETATM   19  C11 UNL     1     101.277  21.654  38.581  1.00  0.00     0.309 C
ENDBRANCH  16  17
ENDBRANCH   1  16
BRANCH   1  20
HETATM   20  O3  UNL     1     103.980  20.166  37.002  1.00  0.00    -0.307 OA
BRANCH  20  21
HETATM   21  C12 UNL     1     104.813  20.294  38.075  1.00  0.00     0.295 C
HETATM   22  O4  UNL     1     105.654  21.223  38.071  1.00  0.00    -0.262 OA
BRANCH  21  23
HETATM   23  C13 UNL     1     104.790  19.398  39.258  1.00  0.00     0.210 C
HETATM   24  C14 UNL     1     104.021  19.936  40.416  1.00  0.00     0.049 C
HETATM   25  C15 UNL     1     103.486  18.703  41.130  1.00  0.00     0.003 C
HETATM   26  C16 UNL     1     103.806  17.522  40.250  1.00  0.00     0.003 C
HETATM   27  C17 UNL     1     103.971  18.170  38.879  1.00  0.00     0.049 C
BRANCH  23  28
HETATM   28  N4  UNL     1     106.133  19.007  39.645  1.00  0.00    -0.061 N
ATOM     29  H43 UNL     1     106.817  19.723  39.403  1.00  0.00     0.275 HD
ATOM     30  H42 UNL     1     106.249  19.018  40.659  1.00  0.00     0.275 HD
ATOM     31  H41 UNL     1     106.382  18.101  39.249  1.00  0.00     0.275 HD
ENDBRANCH  23  28
ENDBRANCH  21  23
ENDBRANCH  20  21
ENDBRANCH   1  20
TORSDOF 9
ENDMDL