MODEL 2
REMARK VINA RESULT: -6.263659038      2.390      4.302
REMARK  8 active torsions:
REMARK  status: ('A' for Active; 'I' for Inactive)
REMARK    1  A    between atoms: O1_2  and  C2_3
REMARK    2  A    between atoms: C3_5  and  C4_6
REMARK       I    between atoms: C4_6  and  N1_8
REMARK    3  A    between atoms: N1_8  and  C5_10
REMARK    4  A    between atoms: C5_10  and  C6_11
REMARK    5  A    between atoms: C7_13  and  O4_14
REMARK    6  A    between atoms: O4_14  and  C8_15
REMARK       I    between atoms: C8_15  and  N2_17
REMARK    7  A    between atoms: N2_17  and  C9_19
REMARK    8  A    between atoms: C14_25  and  O7_26
ROOT
HETATM    1  C2  UNL     1     103.794  19.015  38.163  1.00  0.00     0.315 C
HETATM    2  O2  UNL     1     103.058  19.826  37.314  1.00  0.00    -0.337 OA
HETATM    3  C3  UNL     1     102.473  19.172  36.268  1.00  0.00     0.272 C
HETATM    4  C7  UNL     1     102.948  17.768  36.154  1.00  0.00     0.312 C
HETATM    5  O6  UNL     1     104.361  17.805  36.152  1.00  0.00    -0.323 OA
HETATM    6  C14 UNL     1     104.744  18.094  37.440  1.00  0.00     0.315 C
ENDROOT
BRANCH   4   7
HETATM    7  O4  UNL     1     102.534  17.102  34.998  1.00  0.00    -0.269 OA
BRANCH   7   8
HETATM    8  C8  UNL     1     101.359  16.377  34.883  1.00  0.00     0.363 C
HETATM    9  O5  UNL     1     100.666  16.246  35.920  1.00  0.00    -0.238 OA
HETATM   10  N2  UNL     1     100.950  15.799  33.631  1.00  0.00    -0.332 N
ATOM     11  H2  UNL     1     101.554  15.937  32.820  1.00  0.00     0.165 HD
BRANCH  10  12
HETATM   12  C9  UNL     1      99.756  15.048  33.455  1.00  0.00     0.086 C
HETATM   13  C10 UNL     1      99.788  13.659  33.997  1.00  0.00     0.025 C
HETATM   14  C11 UNL     1      98.611  13.007  33.302  1.00  0.00     0.002 C
HETATM   15  C12 UNL     1      98.306  13.822  32.080  1.00  0.00     0.002 C
HETATM   16  C13 UNL     1      99.465  14.817  31.983  1.00  0.00     0.025 C
ENDBRANCH  10  12
ENDBRANCH   7   8
ENDBRANCH   4   7
BRANCH   3  17
HETATM   17  C4  UNL     1     102.593  19.911  34.981  1.00  0.00     0.251 C
HETATM   18  O3  UNL     1     101.611  20.628  34.670  1.00  0.00    -0.270 OA
HETATM   19  N1  UNL     1     103.769  19.757  34.221  1.00  0.00    -0.358 N
ATOM     20  H1  UNL     1     104.497  19.142  34.586  1.00  0.00     0.162 HD
BRANCH  19  21
HETATM   21  C5  UNL     1     104.009  20.414  32.959  1.00  0.00     0.137 C
BRANCH  21  22
HETATM   22  C6  UNL     1     105.484  20.502  32.666  1.00  0.00     0.134 C
HETATM   23 CL1  UNL     1     106.208  18.854  32.678  1.00  0.00    -0.129 Cl
ENDBRANCH  21  22
ENDBRANCH  19  21
ENDBRANCH   3  17
BRANCH   6  24
HETATM   24  O7  UNL     1     104.962  16.926  38.169  1.00  0.00    -0.367 OA
ATOM     25  H7  UNL     1     105.706  16.445  37.828  1.00  0.00     0.212 HD
ENDBRANCH   6  24
BRANCH   1  26
HETATM   26  O1  UNL     1     104.525  19.742  39.090  1.00  0.00    -0.361 OA
HETATM   27  C1  UNL     1     103.866  19.788  40.308  1.00  0.00     0.205 C
ENDBRANCH   1  26
TORSDOF 8
ENDMDL