MODEL 2
REMARK VINA RESULT: -4.797731984      3.091      6.103
REMARK  10 active torsions:
REMARK  status: ('A' for Active; 'I' for Inactive)
REMARK    1  A    between atoms: O1_2  and  C2_3
REMARK    2  A    between atoms: C2_3  and  C3_5
REMARK    3  A    between atoms: C4_6  and  C5_7
REMARK    4  A    between atoms: C6_8  and  C7_9
REMARK    5  A    between atoms: C7_9  and  O3_10
REMARK    6  A    between atoms: O3_10  and  S1_11
REMARK    7  A    between atoms: C9_15  and  O6_16
REMARK    8  A    between atoms: C10_18  and  O7_19
REMARK    9  A    between atoms: C11_21  and  O8_22
REMARK   10  A    between atoms: C12_24  and  C13_25
ROOT
HETATM    1  C3  UNL     1     103.182  20.296  36.416  1.00  0.00     0.126 C
HETATM    2  C4  UNL     1     104.217  20.446  35.333  1.00  0.00    -0.035 C
HETATM    3  C9  UNL     1     105.248  19.413  35.320  1.00  0.00     0.179 C
HETATM    4  C10 UNL     1     105.233  18.499  36.529  1.00  0.00     0.180 C
HETATM    5  C11 UNL     1     103.928  18.067  37.035  1.00  0.00     0.157 C
HETATM    6  C12 UNL     1     102.747  18.888  36.550  1.00  0.00     0.063 C
ENDROOT
BRANCH   2   7
HETATM    7  C5  UNL     1     104.176  21.476  34.559  1.00  0.00     0.004 C
HETATM    8  C6  UNL     1     103.621  21.840  33.279  1.00  0.00     0.001 C
BRANCH   8   9
HETATM    9  C7  UNL     1     102.743  20.929  32.512  1.00  0.00     0.217 C
BRANCH   9  10
HETATM   10  O3  UNL     1     101.460  21.548  32.306  1.00  0.00    -0.272 OA
BRANCH  10  11
HETATM   11  S1  UNL     1     101.419  22.166  30.760  1.00  0.00     0.261 S
HETATM   12  C8  UNL     1     102.060  23.818  30.679  1.00  0.00     0.194 C
HETATM   13  O4  UNL     1     102.311  21.295  29.904  1.00  0.00    -0.199 OA
HETATM   14  O5  UNL     1     100.013  22.086  30.251  1.00  0.00    -0.199 OA
ENDBRANCH  10  11
ENDBRANCH   9  10
ENDBRANCH   8   9
ENDBRANCH   2   7
BRANCH   1  15
HETATM   15  C2  UNL     1     102.126  21.281  36.431  1.00  0.00     0.267 C
HETATM   16  O2  UNL     1     101.081  21.100  35.726  1.00  0.00    -0.265 OA
BRANCH  15  17
HETATM   17  O1  UNL     1     102.170  22.427  37.168  1.00  0.00    -0.326 OA
HETATM   18  C1  UNL     1     101.069  22.990  37.853  1.00  0.00     0.213 C
ENDBRANCH  15  17
ENDBRANCH   1  15
BRANCH   3  19
HETATM   19  O6  UNL     1     105.347  18.611  34.224  1.00  0.00    -0.389 OA
ATOM     20  H6  UNL     1     105.888  17.832  34.282  1.00  0.00     0.210 HD
ENDBRANCH   3  19
BRANCH   6  21
HETATM   21  C13 UNL     1     102.032  18.226  35.433  1.00  0.00     0.230 C
HETATM   22  F1  UNL     1     102.609  17.067  35.008  1.00  0.00    -0.255 F
ENDBRANCH   6  21
BRANCH   4  23
HETATM   23  O7  UNL     1     105.920  19.197  37.552  1.00  0.00    -0.390 OA
ATOM     24  H7  UNL     1     106.826  18.915  37.498  1.00  0.00     0.210 HD
ENDBRANCH   4  23
BRANCH   5  25
HETATM   25  O8  UNL     1     103.858  18.017  38.432  1.00  0.00    -0.392 OA
ATOM     26  H8  UNL     1     103.628  17.160  38.770  1.00  0.00     0.210 HD
ENDBRANCH   5  25
TORSDOF 10
ENDMDL