MODEL 2
REMARK VINA RESULT: -7.944128905      1.658      3.418
REMARK  3 active torsions:
REMARK  status: ('A' for Active; 'I' for Inactive)
REMARK    1  A    between atoms: O1_2  and  C2_3
REMARK    2  A    between atoms: C2_3  and  C3_4
REMARK    3  A    between atoms: C7_9  and  O3_10
ROOT
HETATM    1  C3  UNL     1      10.766 -27.798  56.987  1.00  0.00    -0.003 C
HETATM    2  C4  UNL     1      12.035 -27.867  57.345  1.00  0.00     0.023 C
HETATM    3  C5  UNL     1      12.399 -27.337  58.692  1.00  0.00     0.108 A
HETATM    4  C6  UNL     1      11.269 -27.342  59.668  1.00  0.00     0.214 C
HETATM    5  O2  UNL     1      10.078 -27.869  59.177  1.00  0.00    -0.354 OA
HETATM    6  C7  UNL     1       9.822 -27.204  57.956  1.00  0.00     0.289 C
HETATM    7  O4  UNL     1      13.009 -26.069  58.639  1.00  0.00    -0.362 OA
HETATM    8  C8  UNL     1      14.202 -26.500  59.235  1.00  0.00     0.066 A
HETATM    9  C9  UNL     1      14.324 -25.862  60.600  1.00  0.00     0.046 C
HETATM   10  C10 UNL     1      15.349 -26.185  58.339  1.00  0.00     0.041 C
HETATM   11  C11 UNL     1      16.699 -26.419  59.024  1.00  0.00     0.036 C
HETATM   12  C12 UNL     1      17.486 -27.408  58.265  1.00  0.00     0.133 C
HETATM   13  O5  UNL     1      16.649 -28.223  57.469  1.00  0.00    -0.374 OA
HETATM   14  C13 UNL     1      16.783 -29.296  58.365  1.00  0.00     0.067 C
HETATM   15  C14 UNL     1      17.125 -30.612  57.659  1.00  0.00     0.047 C
HETATM   16  C15 UNL     1      15.589 -29.409  59.226  1.00  0.00     0.039 C
HETATM   17  C16 UNL     1      14.390 -28.890  58.442  1.00  0.00     0.014 C
HETATM   18  C17 UNL     1      13.693 -27.865  59.242  1.00  0.00     0.061 A
HETATM   19  C18 UNL     1      17.967 -28.608  58.954  1.00  0.00     0.009 C
HETATM   20  C19 UNL     1      19.237 -29.135  58.256  1.00  0.00     0.020 C
HETATM   21  C20 UNL     1      18.150 -28.629  60.412  1.00  0.00     0.020 C
ENDROOT
BRANCH   1  22
HETATM   22  C2  UNL     1      10.331 -28.302  55.667  1.00  0.00     0.206 C
BRANCH  22  23
HETATM   23  O1  UNL     1       9.909 -27.328  54.798  1.00  0.00    -0.392 OA
HETATM   24  C1  UNL     1      10.894 -26.948  53.890  1.00  0.00     0.201 C
ENDBRANCH  22  23
ENDBRANCH   1  22
BRANCH   6  25
HETATM   25  O3  UNL     1       8.494 -27.344  57.578  1.00  0.00    -0.367 OA
ATOM     26  H3  UNL     1       7.945 -27.697  58.269  1.00  0.00     0.213 HD
ENDBRANCH   6  25
TORSDOF 3
ENDMDL