MODEL 1
REMARK VINA RESULT: -6.985790596      0.000      0.000
REMARK  6 active torsions:
REMARK  status: ('A' for Active; 'I' for Inactive)
REMARK    1  A    between atoms: C4_4  and  N1_5
REMARK    2  A    between atoms: N2_7  and  C5_9
REMARK    3  A    between atoms: C5_9  and  N3_11
REMARK    4  A    between atoms: C11_17  and  O1_18
REMARK    5  A    between atoms: N4_20  and  C12_21
REMARK    6  A    between atoms: C12_21  and  N5_22
ROOT
HETATM    1  C1  UNL     1      16.274 -26.987  55.380  1.00  0.00     0.068 C
HETATM    2  C2  UNL     1      15.251 -27.880  55.988  1.00  0.00     0.014 A
HETATM    3  C3  UNL     1      14.185 -28.411  55.314  1.00  0.00     0.060 A
HETATM    4  C4  UNL     1      13.461 -29.181  56.192  1.00  0.00     0.101 A
HETATM    5  C11 UNL     1      14.149 -29.074  57.403  1.00  0.00     0.172 A
HETATM    6  N4  UNL     1      15.225 -28.287  57.261  1.00  0.00    -0.313 N
ENDROOT
BRANCH   4   7
HETATM    7  N1  UNL     1      12.282 -29.920  55.930  1.00  0.00    -0.294 N
HETATM    8  N2  UNL     1      11.178 -29.377  55.796  1.00  0.00    -0.276 N
ATOM      9  H2  UNL     1      10.362 -29.960  55.609  1.00  0.00     0.189 HD
ATOM     10  H1  UNL     1      12.344 -30.935  55.850  1.00  0.00     0.187 HD
BRANCH   8  11
HETATM   11  C5  UNL     1      11.006 -27.978  55.892  1.00  0.00     0.188 C
HETATM   12  S1  UNL     1      11.135 -27.062  54.544  1.00  0.00    -0.039 SA
BRANCH  11  13
HETATM   13  N3  UNL     1      10.715 -27.367  57.155  1.00  0.00    -0.357 N
HETATM   14  C6  UNL     1       9.468 -27.672  57.778  1.00  0.00     0.125 C
HETATM   15  C7  UNL     1       9.402 -27.464  59.247  1.00  0.00     0.020 C
HETATM   16  C8  UNL     1      10.513 -26.673  59.841  1.00  0.00     0.003 C
HETATM   17  C9  UNL     1      11.851 -26.903  59.193  1.00  0.00     0.020 C
HETATM   18  C10 UNL     1      11.702 -26.475  57.734  1.00  0.00     0.125 C
ENDBRANCH  11  13
ENDBRANCH   8  11
ENDBRANCH   4   7
BRANCH   5  19
HETATM   19  O1  UNL     1      13.699 -29.735  58.549  1.00  0.00    -0.344 OA
ATOM     20  H1  UNL     1      14.246 -29.802  59.322  1.00  0.00     0.219 HD
ENDBRANCH   5  19
BRANCH   6  21
HETATM   21  C12 UNL     1      16.193 -27.922  58.300  1.00  0.00     0.256 C
BRANCH  21  22
HETATM   22  N5  UNL     1      15.769 -26.744  58.971  1.00  0.00    -0.373 N
HETATM   23  C13 UNL     1      16.507 -25.576  58.712  1.00  0.00     0.086 C
HETATM   24  C14 UNL     1      16.174 -24.413  59.608  1.00  0.00     0.212 C
HETATM   25  O2  UNL     1      16.013 -24.795  60.935  1.00  0.00    -0.385 OA
HETATM   26  C15 UNL     1      14.917 -25.651  60.987  1.00  0.00     0.187 C
HETATM   27  C16 UNL     1      15.374 -26.948  60.331  1.00  0.00     0.150 C
ENDBRANCH  21  22
ENDBRANCH   6  21
TORSDOF 6
ENDMDL