MODEL 4
REMARK VINA RESULT: -6.387269918      2.327      6.001
REMARK  5 active torsions:
REMARK  status: ('A' for Active; 'I' for Inactive)
REMARK    1  A    between atoms: O1_2  and  C2_3
REMARK    2  A    between atoms: C7_10  and  O4_12
REMARK    3  A    between atoms: C9_14  and  O5_15
REMARK    4  A    between atoms: O5_15  and  C10_16
REMARK    5  A    between atoms: C14_21  and  C15_22
ROOT
HETATM    1  C2  UNL     1      16.788 -28.366  57.812  1.00  0.00     0.153 C
HETATM    2  C3  UNL     1      16.910 -26.959  58.487  1.00  0.00     0.147 C
HETATM    3  C4  UNL     1      15.766 -26.141  58.021  1.00  0.00     0.262 C
HETATM    4  O2  UNL     1      16.071 -25.011  57.502  1.00  0.00    -0.265 OA
HETATM    5  O3  UNL     1      14.504 -26.609  58.160  1.00  0.00    -0.313 OA
HETATM    6  C5  UNL     1      13.867 -27.260  59.219  1.00  0.00     0.164 C
HETATM    7  C6  UNL     1      13.142 -26.183  60.002  1.00  0.00     0.043 C
HETATM    8  C7  UNL     1      12.950 -28.365  58.789  1.00  0.00     0.107 C
HETATM    9  C8  UNL     1      11.559 -28.011  59.271  1.00  0.00     0.051 C
HETATM   10  C9  UNL     1      12.881 -28.565  57.312  1.00  0.00     0.171 C
HETATM   11  C12 UNL     1      13.941 -29.492  56.730  1.00  0.00     0.063 C
HETATM   12  C13 UNL     1      14.638 -28.863  55.592  1.00  0.00    -0.013 C
HETATM   13  C14 UNL     1      15.824 -28.332  55.418  1.00  0.00    -0.041 C
HETATM   14  C19 UNL     1      16.924 -28.152  56.370  1.00  0.00     0.016 C
ENDROOT
BRANCH  10  15
HETATM   15  O5  UNL     1      12.882 -27.342  56.592  1.00  0.00    -0.313 OA
BRANCH  15  16
HETATM   16  C10 UNL     1      11.825 -26.884  55.839  1.00  0.00     0.255 C
HETATM   17  C11 UNL     1      10.558 -27.643  55.648  1.00  0.00     0.126 C
HETATM   18  O6  UNL     1      11.962 -25.744  55.286  1.00  0.00    -0.266 OA
ENDBRANCH  15  16
ENDBRANCH  10  15
BRANCH   8  19
HETATM   19  O4  UNL     1      13.288 -29.562  59.407  1.00  0.00    -0.385 OA
ATOM     20  H4  UNL     1      13.864 -29.413  60.147  1.00  0.00     0.210 HD
ENDBRANCH   8  19
BRANCH  13  21
HETATM   21  C15 UNL     1      16.088 -27.815  54.058  1.00  0.00     0.013 C
HETATM   22  C16 UNL     1      16.232 -28.369  52.914  1.00  0.00    -0.087 C
HETATM   23  C17 UNL     1      16.504 -27.344  51.780  1.00  0.00     0.043 C
HETATM   24  C18 UNL     1      16.180 -29.726  52.420  1.00  0.00     0.043 C
ENDBRANCH  13  21
BRANCH   1  25
HETATM   25  O1  UNL     1      17.858 -29.153  58.302  1.00  0.00    -0.386 OA
HETATM   26  C1  UNL     1      17.435 -30.378  58.768  1.00  0.00     0.202 C
ENDBRANCH   1  25
TORSDOF 5
ENDMDL