MODEL 1
REMARK VINA RESULT: -7.771964305      0.000      0.000
REMARK  5 active torsions:
REMARK  status: ('A' for Active; 'I' for Inactive)
REMARK    1  A    between atoms: C2_2  and  C3_3
REMARK    2  A    between atoms: C3_3  and  O1_4
REMARK    3  A    between atoms: C5_7  and  C6_8
REMARK    4  A    between atoms: C7_11  and  C9_13
REMARK    5  A    between atoms: C10_14  and  C11_15
ROOT
HETATM    1  C3  UNL     1      10.217 -27.648  58.535  1.00  0.00     0.124 C
HETATM    2  C4  UNL     1       9.763 -27.694  57.110  1.00  0.00     0.085 C
HETATM    3  C5  UNL     1      10.942 -27.818  56.172  1.00  0.00     0.188 C
HETATM    4  O3  UNL     1      12.043 -27.124  56.648  1.00  0.00    -0.356 OA
HETATM    5  C7  UNL     1      12.642 -27.822  57.697  1.00  0.00     0.139 C
HETATM    6  C8  UNL     1      13.734 -26.909  58.245  1.00  0.00     0.059 C
HETATM    7  C20 UNL     1      11.622 -28.101  58.715  1.00  0.00     0.198 C
HETATM    8  O5  UNL     1      11.929 -28.708  59.718  1.00  0.00    -0.291 OA
ENDROOT
BRANCH   5   9
HETATM    9  C9  UNL     1      13.319 -29.043  57.206  1.00  0.00     0.019 C
HETATM   10  C10 UNL     1      14.569 -28.954  56.804  1.00  0.00     0.007 C
BRANCH  10  11
HETATM   11  C11 UNL     1      15.342 -30.092  56.299  1.00  0.00    -0.056 C
HETATM   12  C12 UNL     1      16.142 -30.782  57.094  1.00  0.00    -0.071 C
HETATM   13  C13 UNL     1      16.230 -30.363  58.517  1.00  0.00     0.044 C
HETATM   14  C14 UNL     1      16.961 -31.935  56.688  1.00  0.00     0.046 C
HETATM   15  C15 UNL     1      16.938 -32.940  57.820  1.00  0.00     0.038 C
HETATM   16  C17 UNL     1      16.442 -32.705  55.535  1.00  0.00     0.130 C
HETATM   17  C16 UNL     1      16.768 -34.256  57.096  1.00  0.00     0.169 C
HETATM   18  O4  UNL     1      15.942 -33.920  56.048  1.00  0.00    -0.385 OA
HETATM   19  C18 UNL     1      15.353 -32.061  54.764  1.00  0.00     0.037 C
HETATM   20  C19 UNL     1      15.292 -30.558  54.892  1.00  0.00     0.041 C
ENDBRANCH  10  11
ENDBRANCH   5   9
BRANCH   3  21
HETATM   21  C6  UNL     1      10.548 -27.210  54.872  1.00  0.00     0.263 C
HETATM   22  O2  UNL     1      11.254 -26.442  54.243  1.00  0.00    -0.304 OA
ENDBRANCH   3  21
BRANCH   1  23
HETATM   23  C2  UNL     1      10.023 -26.269  59.139  1.00  0.00     0.042 C
HETATM   24  C1  UNL     1       9.032 -26.270  60.255  1.00  0.00     0.009 C
ENDBRANCH   1  23
BRANCH   1  25
HETATM   25  O1  UNL     1       9.406 -28.520  59.277  1.00  0.00    -0.382 OA
ATOM     26  H1  UNL     1       8.771 -28.876  58.666  1.00  0.00     0.211 HD
ENDBRANCH   1  25
TORSDOF 5
ENDMDL