MODEL 1
REMARK VINA RESULT: -7.774948780      0.000      0.000
REMARK  5 active torsions:
REMARK  status: ('A' for Active; 'I' for Inactive)
REMARK    1  A    between atoms: C2_2  and  O2_4
REMARK    2  A    between atoms: O2_4  and  C3_5
REMARK    3  A    between atoms: C10_15  and  O6_17
REMARK    4  A    between atoms: C14_21  and  C15_22
REMARK    5  A    between atoms: C15_22  and  C16_23
ROOT
HETATM    1  C3  UNL     1      12.435 -27.316  58.970  1.00  0.00     0.275 C
HETATM    2  O3  UNL     1      13.718 -27.485  59.521  1.00  0.00    -0.346 OA
HETATM    3  C4  UNL     1      14.609 -27.359  58.459  1.00  0.00     0.102 C
HETATM    4  C5  UNL     1      14.778 -25.866  58.233  1.00  0.00     0.050 C
HETATM    5  C6  UNL     1      15.952 -27.890  58.872  1.00  0.00     0.095 C
HETATM    6  C7  UNL     1      15.895 -28.423  60.313  1.00  0.00     0.049 C
HETATM    7  C8  UNL     1      17.031 -26.825  58.905  1.00  0.00     0.049 C
HETATM    8  O4  UNL     1      16.443 -28.940  58.090  1.00  0.00    -0.305 OA
HETATM    9  C9  UNL     1      15.706 -29.713  57.237  1.00  0.00     0.295 C
HETATM   10  O5  UNL     1      16.242 -30.521  56.427  1.00  0.00    -0.262 OA
HETATM   11  C10 UNL     1      14.216 -29.541  57.322  1.00  0.00     0.152 C
HETATM   12  C11 UNL     1      13.593 -30.217  56.127  1.00  0.00     0.058 C
HETATM   13  C12 UNL     1      13.958 -28.060  57.337  1.00  0.00     0.039 C
HETATM   14  C13 UNL     1      14.441 -27.492  56.023  1.00  0.00     0.022 C
HETATM   15  C14 UNL     1      12.483 -27.851  57.571  1.00  0.00     0.060 C
ENDROOT
BRANCH  15  16
HETATM   16  C15 UNL     1      11.821 -27.037  56.526  1.00  0.00     0.037 C
BRANCH  16  17
HETATM   17  C16 UNL     1      10.501 -27.539  56.071  1.00  0.00    -0.024 C
HETATM   18  C17 UNL     1      10.216 -27.505  54.774  1.00  0.00    -0.091 C
HETATM   19  C18 UNL     1       8.887 -28.013  54.326  1.00  0.00     0.042 C
HETATM   20  C19 UNL     1      11.200 -26.970  53.770  1.00  0.00     0.042 C
ENDBRANCH  16  17
ENDBRANCH  15  16
BRANCH   1  21
HETATM   21  O2  UNL     1      11.489 -27.971  59.801  1.00  0.00    -0.290 OA
BRANCH  21  22
HETATM   22  C2  UNL     1      10.133 -27.711  59.747  1.00  0.00     0.257 C
HETATM   23  C1  UNL     1       9.522 -26.448  60.204  1.00  0.00     0.126 C
HETATM   24  O1  UNL     1       9.379 -28.602  59.282  1.00  0.00    -0.266 OA
ENDBRANCH  21  22
ENDBRANCH   1  21
BRANCH  11  25
HETATM   25  O6  UNL     1      13.757 -30.202  58.451  1.00  0.00    -0.379 OA
ATOM     26  H6  UNL     1      12.845 -30.432  58.319  1.00  0.00     0.211 HD
ENDBRANCH  11  25
TORSDOF 5
ENDMDL