MODEL 3
REMARK VINA RESULT: -6.960643819      2.498      3.287
REMARK  5 active torsions:
REMARK  status: ('A' for Active; 'I' for Inactive)
REMARK    1  A    between atoms: C2_2  and  C3_3
REMARK    2  A    between atoms: C9_11  and  O3_12
REMARK    3  A    between atoms: C10_14  and  O4_15
REMARK    4  A    between atoms: O4_15  and  C11_16
REMARK    5  A    between atoms: C14_20  and  C16_22
ROOT
HETATM    1  C16 UNL     1      15.419 -28.145  58.717  1.00  0.00     0.001 C
HETATM    2  C17 UNL     1      15.175 -27.323  59.656  1.00  0.00     0.015 C
HETATM    3  C18 UNL     1      16.157 -27.241  60.839  1.00  0.00     0.060 C
HETATM    4  C19 UNL     1      14.094 -26.421  59.813  1.00  0.00     0.094 C
HETATM    5  N1  UNL     1      13.202 -25.659  59.977  1.00  0.00    -0.192 NA
ENDROOT
BRANCH   1   6
HETATM    6  C14 UNL     1      14.784 -28.545  57.442  1.00  0.00    -0.011 C
HETATM    7  C3  UNL     1      15.784 -29.153  56.466  1.00  0.00     0.016 C
HETATM    8  C4  UNL     1      16.022 -30.601  56.522  1.00  0.00     0.094 C
HETATM    9  C7  UNL     1      15.319 -29.047  55.056  1.00  0.00     0.104 C
HETATM   10  C5  UNL     1      16.061 -31.393  57.733  1.00  0.00     0.021 C
HETATM   11  C6  UNL     1      15.108 -31.226  55.518  1.00  0.00     0.264 C
HETATM   12  O1  UNL     1      14.960 -32.417  55.177  1.00  0.00    -0.265 OA
HETATM   13  O2  UNL     1      14.399 -30.164  54.991  1.00  0.00    -0.306 OA
HETATM   14  C8  UNL     1      16.296 -29.305  53.975  1.00  0.00     0.050 C
HETATM   15  C9  UNL     1      14.527 -27.870  54.640  1.00  0.00     0.183 C
HETATM   16  C10 UNL     1      13.379 -27.761  55.623  1.00  0.00     0.164 C
HETATM   17  C13 UNL     1      14.139 -27.307  56.871  1.00  0.00     0.049 C
HETATM   18  C15 UNL     1      13.660 -29.445  57.862  1.00  0.00     0.020 C
BRANCH   7  19
HETATM   19  C2  UNL     1      17.041 -28.417  56.806  1.00  0.00     0.010 C
HETATM   20  C1  UNL     1      18.356 -29.042  56.724  1.00  0.00     0.006 C
ENDBRANCH   7  19
BRANCH  15  21
HETATM   21  O3  UNL     1      14.084 -28.075  53.346  1.00  0.00    -0.390 OA
ATOM     22  H3  UNL     1      13.239 -27.653  53.247  1.00  0.00     0.210 HD
ENDBRANCH  15  21
BRANCH  16  23
HETATM   23  O4  UNL     1      12.478 -26.785  55.175  1.00  0.00    -0.314 OA
BRANCH  23  24
HETATM   24  C11 UNL     1      11.295 -27.110  54.511  1.00  0.00     0.255 C
HETATM   25  C12 UNL     1      10.123 -27.708  55.159  1.00  0.00     0.126 C
HETATM   26  O5  UNL     1      11.276 -26.857  53.273  1.00  0.00    -0.266 OA
ENDBRANCH  23  24
ENDBRANCH  16  23
ENDBRANCH   1   6
TORSDOF 5
ENDMDL