MODEL 2
REMARK VINA RESULT: -7.406810554      1.621      5.870
REMARK  6 active torsions:
REMARK  status: ('A' for Active; 'I' for Inactive)
REMARK    1  A    between atoms: C2_2  and  C3_3
REMARK    2  A    between atoms: C3_3  and  O2_5
REMARK    3  A    between atoms: O2_5  and  C4_6
REMARK    4  A    between atoms: C6_8  and  O3_9
REMARK    5  A    between atoms: C14_19  and  O5_20
REMARK    6  A    between atoms: O5_20  and  C15_21
ROOT
HETATM    1  C4  UNL     1      14.934 -28.358  55.871  1.00  0.00     0.145 C
HETATM    2  C5  UNL     1      13.463 -28.638  55.797  1.00  0.00     0.075 C
HETATM    3  C6  UNL     1      12.683 -27.584  56.461  1.00  0.00     0.098 C
HETATM    4  C7  UNL     1      11.214 -27.896  56.632  1.00  0.00     0.153 C
HETATM    5  C8  UNL     1      10.468 -27.554  55.352  1.00  0.00     0.042 C
HETATM    6  O4  UNL     1      10.907 -26.928  57.577  1.00  0.00    -0.372 OA
HETATM    7  C9  UNL     1      11.944 -26.985  58.560  1.00  0.00     0.067 C
HETATM    8  C10 UNL     1      11.248 -27.881  59.618  1.00  0.00     0.046 C
HETATM    9  C11 UNL     1      11.895 -25.645  59.192  1.00  0.00     0.046 C
HETATM   10  C12 UNL     1      13.105 -27.543  57.941  1.00  0.00     0.048 C
HETATM   11  C13 UNL     1      13.186 -29.003  58.452  1.00  0.00     0.024 C
HETATM   12  C14 UNL     1      14.472 -26.926  57.953  1.00  0.00     0.156 C
HETATM   13  C17 UNL     1      15.404 -27.401  56.882  1.00  0.00     0.007 C
HETATM   14  C18 UNL     1      16.112 -26.298  56.102  1.00  0.00     0.020 C
HETATM   15  C19 UNL     1      16.672 -28.060  57.503  1.00  0.00     0.020 C
ENDROOT
BRANCH   1  16
HETATM   16  O2  UNL     1      15.333 -28.048  54.538  1.00  0.00    -0.315 OA
BRANCH  16  17
HETATM   17  C3  UNL     1      15.700 -28.962  53.588  1.00  0.00     0.258 C
HETATM   18  O1  UNL     1      15.265 -28.780  52.421  1.00  0.00    -0.265 OA
BRANCH  17  19
HETATM   19  C2  UNL     1      16.562 -30.138  53.832  1.00  0.00     0.106 C
HETATM   20  C1  UNL     1      17.959 -29.712  54.184  1.00  0.00     0.015 C
ENDBRANCH  17  19
ENDBRANCH  16  17
ENDBRANCH   1  16
BRANCH   3  21
HETATM   21  O3  UNL     1      12.726 -26.350  55.894  1.00  0.00    -0.386 OA
ATOM     22  H3  UNL     1      12.167 -25.686  56.280  1.00  0.00     0.210 HD
ENDBRANCH   3  21
BRANCH  12  23
HETATM   23  O5  UNL     1      14.641 -25.677  58.446  1.00  0.00    -0.314 OA
BRANCH  23  24
HETATM   24  C15 UNL     1      15.339 -25.091  59.426  1.00  0.00     0.255 C
HETATM   25  C16 UNL     1      15.500 -25.545  60.820  1.00  0.00     0.126 C
HETATM   26  O6  UNL     1      15.848 -24.070  58.967  1.00  0.00    -0.266 OA
ENDBRANCH  23  24
ENDBRANCH  12  23
TORSDOF 6
ENDMDL