MODEL 3
REMARK VINA RESULT: -7.439121897      1.047      2.171
REMARK  3 active torsions:
REMARK  status: ('A' for Active; 'I' for Inactive)
REMARK    1  A    between atoms: C3_4  and  O2_5
REMARK    2  A    between atoms: O2_5  and  C4_6
REMARK    3  A    between atoms: C4_6  and  N1_7
ROOT
HETATM    1  O2  UNL     1      13.580 -26.894  59.903  1.00  0.00    -0.335 OA
ENDROOT
BRANCH   1   2
HETATM    2  C3  UNL     1      14.630 -27.566  59.287  1.00  0.00     0.167 C
HETATM    3  O1  UNL     1      15.611 -27.408  60.253  1.00  0.00    -0.350 OA
HETATM    4  C2  UNL     1      16.780 -27.987  60.188  1.00  0.00     0.125 C
HETATM    5  C1  UNL     1      16.907 -29.053  61.274  1.00  0.00     0.040 C
HETATM    6  C16 UNL     1      17.241 -28.603  58.905  1.00  0.00     0.015 C
HETATM    7  C15 UNL     1      17.256 -27.684  57.747  1.00  0.00     0.012 C
HETATM    8  C17 UNL     1      16.558 -29.898  58.712  1.00  0.00     0.012 C
HETATM    9  C14 UNL     1      15.967 -27.336  57.135  1.00  0.00    -0.009 C
HETATM   10  C13 UNL     1      15.363 -28.375  56.244  1.00  0.00     0.005 C
HETATM   11  C18 UNL     1      14.908 -26.791  58.046  1.00  0.00     0.073 C
HETATM   12  C12 UNL     1      15.083 -29.688  56.800  1.00  0.00     0.005 C
HETATM   13  C11 UNL     1      15.142 -29.850  58.293  1.00  0.00    -0.009 C
HETATM   14  C10 UNL     1      14.223 -28.979  59.049  1.00  0.00     0.073 C
ENDBRANCH   1   2
BRANCH   1  15
HETATM   15  C4  UNL     1      13.137 -25.727  59.438  1.00  0.00     0.328 C
BRANCH  15  16
HETATM   16  N1  UNL     1      11.698 -25.917  59.177  1.00  0.00    -0.126 N
HETATM   17  S1  UNL     1      10.351 -25.179  60.046  1.00  0.00     0.044 SA
HETATM   18  C5  UNL     1       9.109 -26.297  59.438  1.00  0.00     0.177 C
HETATM   19  N2  UNL     1       7.951 -26.476  59.910  1.00  0.00    -0.378 N
HETATM   20  N3  UNL     1       9.714 -26.930  58.319  1.00  0.00    -0.160 N
ATOM     21  H22 UNL     1       7.517 -26.022  60.713  1.00  0.00     0.158 HD
ATOM     22  H21 UNL     1       7.238 -27.117  59.561  1.00  0.00     0.158 HD
HETATM   23  C6  UNL     1       8.988 -27.765  57.338  1.00  0.00     0.151 C
HETATM   24  C9  UNL     1      11.074 -26.737  58.170  1.00  0.00     0.692 C
HETATM   25  C7  UNL     1       9.663 -27.827  56.009  1.00  0.00     0.041 C
HETATM   26  C8  UNL     1      11.150 -28.087  56.164  1.00  0.00     0.139 C
HETATM   27  N4  UNL     1      11.713 -27.271  57.182  1.00  0.00    -0.225 N
ATOM     28  H4  UNL     1      12.716 -27.091  57.128  1.00  0.00     0.177 HD
ENDBRANCH  15  16
ENDBRANCH   1  15
TORSDOF 3
ENDMDL