MODEL 4
REMARK VINA RESULT: -6.676600213      2.926      7.142
REMARK  5 active torsions:
REMARK  status: ('A' for Active; 'I' for Inactive)
REMARK    1  A    between atoms: C2_2  and  O1_5
REMARK    2  A    between atoms: O1_5  and  C5_6
REMARK       I    between atoms: C5_6  and  N1_8
REMARK    3  A    between atoms: C6_11  and  C7_12
REMARK    4  A    between atoms: N3_15  and  C10_16
REMARK    5  A    between atoms: C10_16  and  C11_17
ROOT
HETATM    1  C5  UNL     1      10.821 -27.725  59.089  1.00  0.00     0.387 C
HETATM    2  O2  UNL     1      10.189 -28.389  58.243  1.00  0.00    -0.236 OA
HETATM    3  N1  UNL     1      12.211 -27.507  58.821  1.00  0.00    -0.203 N
HETATM    4  N2  UNL     1      12.995 -26.846  59.612  1.00  0.00    -0.291 N
ATOM      5  H2  UNL     1      12.692 -26.371  60.462  1.00  0.00     0.187 HD
HETATM    6  C6  UNL     1      14.275 -26.871  59.157  1.00  0.00     0.070 A
HETATM    7  C14 UNL     1      14.253 -27.613  57.982  1.00  0.00     0.023 A
HETATM    8  C15 UNL     1      12.937 -28.001  57.793  1.00  0.00     0.052 A
HETATM    9  C16 UNL     1      12.514 -28.808  56.621  1.00  0.00     0.093 C
HETATM   10  C17 UNL     1      13.726 -29.037  55.726  1.00  0.00     0.192 C
HETATM   11  C18 UNL     1      14.073 -27.775  55.000  1.00  0.00     0.036 C
HETATM   12  C19 UNL     1      15.256 -27.227  55.730  1.00  0.00     0.040 C
HETATM   13  C20 UNL     1      15.280 -28.021  57.012  1.00  0.00     0.223 C
HETATM   14  N4  UNL     1      14.906 -29.354  56.501  1.00  0.00    -0.062 N
ATOM     15  H41 UNL     1      15.640 -29.851  55.996  1.00  0.00     0.278 HD
ATOM     16  H42 UNL     1      14.782 -30.076  57.211  1.00  0.00     0.278 HD
ENDROOT
BRANCH   6  17
HETATM   17  C7  UNL     1      15.451 -26.312  59.812  1.00  0.00     0.276 C
HETATM   18  C8  UNL     1      15.584 -26.458  61.279  1.00  0.00     0.072 C
HETATM   19  C9  UNL     1      15.512 -24.937  61.290  1.00  0.00     0.276 C
HETATM   20  N3  UNL     1      15.639 -24.874  59.820  1.00  0.00     0.099 N
BRANCH  20  21
HETATM   21  C10 UNL     1      16.965 -24.586  59.358  1.00  0.00     0.278 C
BRANCH  21  22
HETATM   22  C11 UNL     1      17.176 -23.624  58.282  1.00  0.00     0.014 A
HETATM   23  C12 UNL     1      17.560 -24.139  56.905  1.00  0.00     0.007 A
HETATM   24  C13 UNL     1      18.429 -23.164  57.688  1.00  0.00     0.007 A
ENDBRANCH  21  22
ENDBRANCH  20  21
ENDBRANCH   6  17
BRANCH   1  25
HETATM   25  O1  UNL     1      10.157 -27.275  60.187  1.00  0.00    -0.292 OA
BRANCH  25  26
HETATM   26  C2  UNL     1       9.449 -26.071  60.337  1.00  0.00     0.061 C
HETATM   27  C1  UNL     1       9.307 -25.796  61.837  1.00  0.00     0.046 C
HETATM   28  C3  UNL     1      10.024 -24.867  59.685  1.00  0.00     0.046 C
HETATM   29  C4  UNL     1       8.018 -26.245  59.838  1.00  0.00     0.046 C
ENDBRANCH  25  26
ENDBRANCH   1  25
TORSDOF 5
ENDMDL