MODEL 2
REMARK VINA RESULT: -6.963601405      3.154      6.144
REMARK  4 active torsions:
REMARK  status: ('A' for Active; 'I' for Inactive)
REMARK    1  A    between atoms: C2_2  and  O1_3
REMARK    2  A    between atoms: O1_3  and  N1_4
REMARK    3  A    between atoms: C3_6  and  O2_7
REMARK    4  A    between atoms: C3_6  and  C5_9
ROOT
HETATM    1  C5  UNL     1      16.879 -25.194  56.730  1.00  0.00     0.089 C
HETATM    2  C6  UNL     1      16.751 -25.739  58.132  1.00  0.00     0.042 C
HETATM    3  C7  UNL     1      16.486 -24.613  59.070  1.00  0.00    -0.030 C
HETATM    4  C8  UNL     1      15.923 -24.734  60.264  1.00  0.00    -0.031 C
HETATM    5  C9  UNL     1      15.469 -26.042  60.839  1.00  0.00     0.027 C
HETATM    6  C10 UNL     1      14.165 -26.514  60.300  1.00  0.00     0.004 C
HETATM    7  C11 UNL     1      13.337 -25.430  59.643  1.00  0.00     0.000 C
HETATM    8  C12 UNL     1      11.868 -25.844  59.704  1.00  0.00     0.002 C
HETATM    9  C13 UNL     1      11.629 -27.187  59.073  1.00  0.00     0.027 C
HETATM   10  C14 UNL     1      11.795 -27.188  57.584  1.00  0.00     0.232 C
HETATM   11  N2  UNL     1      12.209 -28.514  57.167  1.00  0.00    -0.073 N
ATOM     12  H21 UNL     1      11.437 -29.178  57.219  1.00  0.00     0.277 HD
ATOM     13  H22 UNL     1      12.832 -28.941  57.852  1.00  0.00     0.277 HD
HETATM   14  C15 UNL     1      12.813 -28.500  55.831  1.00  0.00     0.258 C
HETATM   15  C16 UNL     1      13.883 -29.568  55.844  1.00  0.00     0.195 C
HETATM   16  O3  UNL     1      14.673 -29.591  54.723  1.00  0.00    -0.387 OA
HETATM   17  C17 UNL     1      15.508 -28.517  54.550  1.00  0.00     0.193 C
HETATM   18  C18 UNL     1      16.589 -28.433  55.595  1.00  0.00     0.193 C
HETATM   19  O4  UNL     1      17.278 -27.228  55.468  1.00  0.00    -0.388 OA
HETATM   20  C19 UNL     1      16.387 -26.208  55.701  1.00  0.00     0.180 C
ENDROOT
BRANCH   1  21
HETATM   21  C3  UNL     1      18.207 -24.652  56.401  1.00  0.00     0.143 C
HETATM   22  N1  UNL     1      19.345 -25.111  56.662  1.00  0.00    -0.248 N
ATOM     23  H1  UNL     1      20.107 -24.527  56.315  1.00  0.00     0.196 HD
BRANCH  22  24
HETATM   24  O1  UNL     1      19.766 -26.202  57.300  1.00  0.00    -0.279 OA
BRANCH  24  25
HETATM   25  C2  UNL     1      20.343 -26.238  58.590  1.00  0.00     0.197 C
HETATM   26  C1  UNL     1      19.862 -27.400  59.404  1.00  0.00     0.036 C
ENDBRANCH  24  25
ENDBRANCH  22  24
BRANCH  21  27
HETATM   27  O2  UNL     1      18.177 -23.434  55.686  1.00  0.00    -0.342 OA
HETATM   28  C4  UNL     1      18.613 -22.241  56.318  1.00  0.00     0.211 C
ENDBRANCH  21  27
ENDBRANCH   1  21
TORSDOF 4
ENDMDL