MODEL 2
REMARK VINA RESULT: -5.969975653      1.842      2.995
REMARK  6 active torsions:
REMARK  status: ('A' for Active; 'I' for Inactive)
REMARK    1  A    between atoms: C2_2  and  O1_3
REMARK    2  A    between atoms: O1_3  and  C3_4
REMARK    3  A    between atoms: C3_4  and  O3_6
REMARK    4  A    between atoms: O3_6  and  C4_7
REMARK    5  A    between atoms: C5_8  and  O4_9
REMARK    6  A    between atoms: C8_14  and  C9_15
ROOT
HETATM    1  C4  UNL     1     -30.679  -3.020   1.597  1.00  0.00     0.193 C
HETATM    2  C5  UNL     1     -30.661  -2.333   0.287  1.00  0.00     0.203 C
HETATM    3  C7  UNL     1     -31.250  -1.006   0.219  1.00  0.00     0.077 C
HETATM    4  S1  UNL     1     -30.699  -0.016  -0.636  1.00  0.00    -0.074 SA
HETATM    5  S2  UNL     1     -32.677  -0.594   1.204  1.00  0.00    -0.107 SA
HETATM    6  C8  UNL     1     -32.522  -1.654   2.678  1.00  0.00     0.044 C
HETATM    7  C11 UNL     1     -33.967  -2.017   3.060  1.00  0.00     0.125 C
HETATM    8  C12 UNL     1     -34.268  -3.139   2.100  1.00  0.00     0.219 C
HETATM    9  O5  UNL     1     -35.392  -3.566   1.799  1.00  0.00    -0.274 OA
HETATM   10  N1  UNL     1     -33.031  -3.622   1.600  1.00  0.00    -0.352 N
ATOM     11  H1  UNL     1     -32.908  -4.305   0.853  1.00  0.00     0.163 HD
HETATM   12  C13 UNL     1     -31.963  -2.959   2.355  1.00  0.00     0.136 C
ENDROOT
BRANCH   1  13
HETATM   13  O3  UNL     1     -29.641  -2.755   2.469  1.00  0.00    -0.287 OA
BRANCH  13  14
HETATM   14  C3  UNL     1     -29.050  -3.682   3.279  1.00  0.00     0.406 C
HETATM   15  O2  UNL     1     -28.863  -3.302   4.452  1.00  0.00    -0.229 OA
BRANCH  14  16
HETATM   16  O1  UNL     1     -28.684  -4.940   2.846  1.00  0.00    -0.298 OA
BRANCH  16  17
HETATM   17  C2  UNL     1     -29.054  -6.111   3.548  1.00  0.00     0.176 C
HETATM   18  C1  UNL     1     -30.547  -6.232   3.684  1.00  0.00     0.034 C
ENDBRANCH  16  17
ENDBRANCH  14  16
ENDBRANCH  13  14
ENDBRANCH   1  13
BRANCH   2  19
HETATM   19  O4  UNL     1     -31.307  -3.115  -0.676  1.00  0.00    -0.382 OA
HETATM   20  C6  UNL     1     -30.456  -3.641  -1.618  1.00  0.00     0.202 C
ENDBRANCH   2  19
BRANCH   6  21
HETATM   21  C9  UNL     1     -31.898  -0.904   3.816  1.00  0.00     0.019 C
HETATM   22  C10 UNL     1     -32.869  -0.544   4.888  1.00  0.00     0.007 C
ENDBRANCH   6  21
TORSDOF 6
ENDMDL