MODEL 3
REMARK VINA RESULT: -7.011721690      2.404      6.777
REMARK  5 active torsions:
REMARK  status: ('A' for Active; 'I' for Inactive)
REMARK    1  A    between atoms: N4_10  and  C4_11
REMARK    2  A    between atoms: C10_17  and  N5_18
REMARK    3  A    between atoms: N5_18  and  C11_20
REMARK    4  A    between atoms: C11_20  and  C12_21
REMARK    5  A    between atoms: C12_21  and  N6_22
ROOT
HETATM    1  C1  UNL     1     -31.043  -1.203   1.705  1.00  0.00     0.183 A
HETATM    2  N1  UNL     1     -30.314  -2.011   0.929  1.00  0.00    -0.335 N
ATOM      3  H1  UNL     1     -29.320  -2.139   1.119  1.00  0.00     0.168 HD
HETATM    4  C2  UNL     1     -30.883  -2.649  -0.090  1.00  0.00     0.157 A
HETATM    5  C3  UNL     1     -32.231  -2.468  -0.334  1.00  0.00     0.139 A
HETATM    6  N2  UNL     1     -32.474  -3.243  -1.411  1.00  0.00    -0.279 N
ATOM      7  H2  UNL     1     -33.380  -3.350  -1.865  1.00  0.00     0.189 HD
HETATM    8  N3  UNL     1     -31.371  -3.838  -1.781  1.00  0.00    -0.238 N
ATOM      9  H3  UNL     1     -31.301  -4.476  -2.575  1.00  0.00     0.208 HD
HETATM   10  N4  UNL     1     -30.359  -3.509  -1.003  1.00  0.00    -0.255 N
HETATM   11  C10 UNL     1     -32.987  -1.647   0.449  1.00  0.00     0.134 A
HETATM   12  N7  UNL     1     -32.336  -1.022   1.479  1.00  0.00    -0.337 N
ATOM     13  H7  UNL     1     -32.862  -0.399   2.092  1.00  0.00     0.168 HD
ENDROOT
BRANCH  11  14
HETATM   14  N5  UNL     1     -34.214  -1.455   0.263  1.00  0.00    -0.373 N
ATOM     15  H5  UNL     1     -34.840  -2.258   0.319  1.00  0.00     0.161 HD
BRANCH  14  16
HETATM   16  C11 UNL     1     -34.783  -0.173  -0.023  1.00  0.00     0.141 C
BRANCH  16  17
HETATM   17  C12 UNL     1     -34.662   0.168  -1.503  1.00  0.00     0.141 C
BRANCH  17  18
HETATM   18  N6  UNL     1     -33.684   1.211  -1.655  1.00  0.00    -0.392 N
HETATM   19  C13 UNL     1     -33.427   1.969  -0.496  1.00  0.00     0.058 C
HETATM   20  C14 UNL     1     -32.135   2.649  -0.365  1.00  0.00     0.044 C
HETATM   21  C15 UNL     1     -31.041   2.210  -1.267  1.00  0.00     0.007 C
HETATM   22  C16 UNL     1     -31.263   0.799  -1.712  1.00  0.00     0.020 C
HETATM   23  C17 UNL     1     -32.586   0.763  -2.422  1.00  0.00     0.122 C
ENDBRANCH  17  18
ENDBRANCH  16  17
ENDBRANCH  14  16
ENDBRANCH  11  14
BRANCH  10  24
HETATM   24  C4  UNL     1     -28.965  -3.909  -1.024  1.00  0.00     0.111 C
HETATM   25  C5  UNL     1     -28.816  -5.205  -1.776  1.00  0.00     0.027 C
HETATM   26  C6  UNL     1     -27.312  -5.478  -1.845  1.00  0.00     0.002 C
HETATM   27  C7  UNL     1     -26.784  -4.496  -2.881  1.00  0.00     0.000 C
HETATM   28  C8  UNL     1     -27.157  -3.083  -2.600  1.00  0.00     0.002 C
HETATM   29  C9  UNL     1     -28.033  -2.832  -1.437  1.00  0.00     0.027 C
ENDBRANCH  10  24
TORSDOF 5
ENDMDL