MODEL 3
REMARK VINA RESULT: -6.807013149      0.982      1.133
REMARK  6 active torsions:
REMARK  status: ('A' for Active; 'I' for Inactive)
REMARK    1  A    between atoms: C5_6  and  C6_7
REMARK    2  A    between atoms: C6_7  and  N2_8
REMARK    3  A    between atoms: C8_11  and  C9_12
REMARK    4  A    between atoms: N3_13  and  N4_15
REMARK       I    between atoms: N4_15  and  C10_17
REMARK    5  A    between atoms: C10_17  and  O3_19
REMARK    6  A    between atoms: O3_19  and  C11_20
ROOT
HETATM    1  N2  UNL     1     -33.425  -3.389   3.243  1.00  0.00    -0.216 N
HETATM    2  O1  UNL     1     -32.832  -3.791   4.310  1.00  0.00    -0.244 OA
HETATM    3  C7  UNL     1     -31.573  -4.067   4.088  1.00  0.00     0.186 A
HETATM    4  C8  UNL     1     -31.352  -3.811   2.737  1.00  0.00     0.075 A
HETATM    5  C15 UNL     1     -32.553  -3.379   2.224  1.00  0.00     0.281 A
HETATM    6  O4  UNL     1     -32.807  -3.034   1.020  1.00  0.00    -0.265 OA
ENDROOT
BRANCH   4   7
HETATM    7  C9  UNL     1     -30.121  -3.957   1.992  1.00  0.00     0.126 C
HETATM    8  N3  UNL     1     -30.079  -4.771   1.004  1.00  0.00    -0.306 N
ATOM      9  H3  UNL     1     -30.925  -5.293   0.774  1.00  0.00     0.186 HD
BRANCH   8  10
HETATM   10  N4  UNL     1     -28.950  -4.984   0.230  1.00  0.00    -0.246 N
HETATM   11  C10 UNL     1     -29.058  -5.340  -1.119  1.00  0.00     0.380 C
HETATM   12  O2  UNL     1     -30.184  -5.471  -1.646  1.00  0.00    -0.237 OA
ATOM     13  H4  UNL     1     -28.026  -4.879   0.650  1.00  0.00     0.192 HD
BRANCH  11  14
HETATM   14  O3  UNL     1     -27.970  -5.567  -1.948  1.00  0.00    -0.293 OA
BRANCH  14  15
HETATM   15  C11 UNL     1     -27.136  -4.603  -2.465  1.00  0.00     0.061 C
HETATM   16  C12 UNL     1     -27.616  -3.202  -2.140  1.00  0.00     0.046 C
HETATM   17  C13 UNL     1     -27.173  -4.717  -3.994  1.00  0.00     0.046 C
HETATM   18  C14 UNL     1     -25.696  -4.694  -2.055  1.00  0.00     0.046 C
ENDBRANCH  14  15
ENDBRANCH  11  14
ENDBRANCH   8  10
ENDBRANCH   4   7
BRANCH   1  19
HETATM   19  C6  UNL     1     -34.832  -2.988   3.086  1.00  0.00     0.166 C
BRANCH  19  20
HETATM   20  C5  UNL     1     -35.435  -2.682   4.428  1.00  0.00     0.034 C
HETATM   21  C4  UNL     1     -35.456  -1.182   4.592  1.00  0.00     0.010 C
HETATM   22  C3  UNL     1     -36.780  -0.693   5.146  1.00  0.00     0.031 C
HETATM   23  C2  UNL     1     -37.208  -1.645   6.218  1.00  0.00     0.272 C
HETATM   24  N1  UNL     1     -37.525  -2.929   5.697  1.00  0.00     0.084 N
HETATM   25  C1  UNL     1     -38.919  -3.217   5.581  1.00  0.00     0.309 C
HETATM   26  C16 UNL     1     -36.793  -3.303   4.518  1.00  0.00     0.278 C
ENDBRANCH  19  20
ENDBRANCH   1  19
TORSDOF 6
ENDMDL