MODEL 4
REMARK VINA RESULT: -7.134542234      1.648      2.183
REMARK  6 active torsions:
REMARK  status: ('A' for Active; 'I' for Inactive)
REMARK    1  A    between atoms: C2_2  and  O1_3
REMARK    2  A    between atoms: O1_3  and  C3_4
REMARK    3  A    between atoms: C3_4  and  C4_6
REMARK    4  A    between atoms: C9_12  and  C10_13
REMARK    5  A    between atoms: C12_17  and  C13_18
REMARK    6  A    between atoms: C17_23  and  N2_24
ROOT
HETATM    1  C4  UNL     1     -29.744  -3.680  -0.803  1.00  0.00     0.248 C
HETATM    2  C5  UNL     1     -28.691  -2.727  -0.340  1.00  0.00     0.214 C
HETATM    3  O3  UNL     1     -28.977  -2.526   1.013  1.00  0.00    -0.350 OA
HETATM    4  C6  UNL     1     -30.342  -2.778   1.154  1.00  0.00     0.193 C
HETATM    5  C7  UNL     1     -30.579  -3.210   2.570  1.00  0.00     0.071 C
HETATM    6  C8  UNL     1     -32.026  -3.282   2.955  1.00  0.00     0.017 C
HETATM    7  C9  UNL     1     -32.842  -2.126   2.431  1.00  0.00     0.047 C
HETATM    8  C16 UNL     1     -32.637  -2.002   0.960  1.00  0.00     0.049 C
HETATM    9  C17 UNL     1     -31.191  -1.603   0.743  1.00  0.00     0.246 C
HETATM   10  O5  UNL     1     -30.589  -3.829   0.289  1.00  0.00    -0.336 OA
ENDROOT
BRANCH   9  11
HETATM   11  N2  UNL     1     -30.890  -0.400   1.460  1.00  0.00    -0.070 N
ATOM     12  H23 UNL     1     -31.525  -0.282   2.250  1.00  0.00     0.274 HD
ATOM     13  H22 UNL     1     -30.007  -0.491   1.963  1.00  0.00     0.274 HD
ATOM     14  H21 UNL     1     -30.885   0.435   0.873  1.00  0.00     0.274 HD
ENDBRANCH   9  11
BRANCH   1  15
HETATM   15  C3  UNL     1     -29.131  -5.010  -1.089  1.00  0.00     0.290 C
HETATM   16  O2  UNL     1     -29.818  -5.971  -1.549  1.00  0.00    -0.262 OA
BRANCH  15  17
HETATM   17  O1  UNL     1     -27.774  -5.144  -0.828  1.00  0.00    -0.320 OA
BRANCH  17  18
HETATM   18  C2  UNL     1     -26.916  -5.541  -1.899  1.00  0.00     0.174 C
HETATM   19  C1  UNL     1     -25.981  -4.395  -2.203  1.00  0.00     0.034 C
ENDBRANCH  17  18
ENDBRANCH  15  17
ENDBRANCH   1  15
BRANCH   7  20
HETATM   20  C10 UNL     1     -34.269  -2.400   2.796  1.00  0.00     0.074 A
HETATM   21  C11 UNL     1     -35.348  -2.324   1.943  1.00  0.00     0.123 A
HETATM   22  N1  UNL     1     -36.448  -2.642   2.644  1.00  0.00    -0.347 N
HETATM   23  C12 UNL     1     -36.045  -2.905   3.896  1.00  0.00     0.128 A
ATOM     24  H1  UNL     1     -37.405  -2.676   2.294  1.00  0.00     0.167 HD
HETATM   25  O4  UNL     1     -34.748  -2.755   3.959  1.00  0.00    -0.300 OA
BRANCH  23  26
HETATM   26  C13 UNL     1     -36.968  -3.307   5.021  1.00  0.00     0.061 A
HETATM   27  C14 UNL     1     -38.055  -2.336   5.369  1.00  0.00     0.013 A
HETATM   28  C15 UNL     1     -38.348  -3.699   4.734  1.00  0.00     0.013 A
ENDBRANCH  23  26
ENDBRANCH   7  20
TORSDOF 6
ENDMDL