MODEL 2
REMARK VINA RESULT: -6.442315378      0.806      1.150
REMARK  4 active torsions:
REMARK  status: ('A' for Active; 'I' for Inactive)
REMARK    1  A    between atoms: C3_7  and  S1_8
REMARK    2  A    between atoms: S1_8  and  C4_9
REMARK    3  A    between atoms: C8_13  and  C9_14
REMARK    4  A    between atoms: C9_14  and  N3_15
ROOT
HETATM    1  C4  UNL     1     -29.304  -3.756  -1.052  1.00  0.00     0.012 C
HETATM    2  C5  UNL     1     -29.456  -5.198  -1.498  1.00  0.00     0.027 C
HETATM    3  C6  UNL     1     -28.029  -3.242  -1.669  1.00  0.00     0.021 C
HETATM    4  C7  UNL     1     -28.267  -1.837  -2.080  1.00  0.00     0.008 C
HETATM    5  C8  UNL     1     -29.719  -1.547  -1.663  1.00  0.00     0.015 C
HETATM    6  C15 UNL     1     -30.373  -2.867  -1.709  1.00  0.00     0.027 C
ENDROOT
BRANCH   1   7
HETATM    7  S1  UNL     1     -29.259  -3.595   0.720  1.00  0.00    -0.083 SA
BRANCH   7   8
HETATM    8  C3  UNL     1     -30.838  -3.525   1.511  1.00  0.00     0.163 A
HETATM    9  N2  UNL     1     -32.022  -3.345   0.853  1.00  0.00    -0.278 N
HETATM   10  N1  UNL     1     -33.007  -3.318   1.733  1.00  0.00    -0.287 N
ATOM     11  H2  UNL     1     -32.129  -3.247  -0.157  1.00  0.00     0.189 HD
HETATM   12  C2  UNL     1     -32.504  -3.477   2.975  1.00  0.00     0.095 A
ATOM     13  H1  UNL     1     -33.995  -3.195   1.509  1.00  0.00     0.188 HD
HETATM   14  C1  UNL     1     -33.221  -3.515   4.267  1.00  0.00     0.091 C
HETATM   15  N5  UNL     1     -31.186  -3.600   2.821  1.00  0.00    -0.320 N
HETATM   16  C16 UNL     1     -30.254  -3.770   3.929  1.00  0.00     0.159 C
ENDBRANCH   7   8
ENDBRANCH   1   7
BRANCH   5  17
HETATM   17  C9  UNL     1     -30.243  -0.465  -2.534  1.00  0.00     0.277 C
BRANCH  17  18
HETATM   18  N3  UNL     1     -30.439   0.820  -2.023  1.00  0.00     0.091 N
HETATM   19  C10 UNL     1     -29.527   1.848  -2.399  1.00  0.00     0.291 C
HETATM   20  C11 UNL     1     -28.632   2.262  -1.210  1.00  0.00     0.146 C
HETATM   21  N4  UNL     1     -29.371   2.675  -0.071  1.00  0.00    -0.413 N
HETATM   22  C12 UNL     1     -29.205   4.031   0.342  1.00  0.00     0.143 C
HETATM   23  C13 UNL     1     -30.698   2.156   0.014  1.00  0.00     0.146 C
HETATM   24  C14 UNL     1     -30.693   0.770  -0.601  1.00  0.00     0.291 C
ENDBRANCH  17  18
ENDBRANCH   5  17
TORSDOF 4
ENDMDL