MODEL 3
REMARK VINA RESULT: -7.553473524      2.714      4.030
REMARK  5 active torsions:
REMARK  status: ('A' for Active; 'I' for Inactive)
REMARK    1  A    between atoms: C2_3  and  S1_4
REMARK    2  A    between atoms: S1_4  and  C3_5
REMARK    3  A    between atoms: C3_5  and  C4_6
REMARK       I    between atoms: C4_6  and  N2_8
REMARK    4  A    between atoms: N2_8  and  C5_10
REMARK    5  A    between atoms: C9_19  and  N6_20
ROOT
HETATM    1  C5  UNL     1     -30.081  -4.903   3.212  1.00  0.00     0.114 C
HETATM    2  C6  UNL     1     -29.006  -4.031   3.900  1.00  0.00     0.055 C
HETATM    3  C7  UNL     1     -29.823  -6.342   3.612  1.00  0.00     0.055 C
HETATM    4  C8  UNL     1     -29.929  -4.764   1.764  1.00  0.00     0.090 C
HETATM    5  N3  UNL     1     -29.801  -4.643   0.616  1.00  0.00    -0.195 NA
ENDROOT
BRANCH   1   6
HETATM    6  N2  UNL     1     -31.382  -4.491   3.627  1.00  0.00    -0.339 N
HETATM    7  C4  UNL     1     -31.837  -3.208   3.967  1.00  0.00     0.228 C
HETATM    8  O1  UNL     1     -31.084  -2.197   3.940  1.00  0.00    -0.273 OA
ATOM      9  H2  UNL     1     -32.080  -5.233   3.685  1.00  0.00     0.164 HD
BRANCH   7  10
HETATM   10  C3  UNL     1     -33.255  -2.963   4.384  1.00  0.00     0.185 C
BRANCH  10  11
HETATM   11  S1  UNL     1     -34.011  -1.893   3.137  1.00  0.00    -0.083 SA
BRANCH  11  12
HETATM   12  C2  UNL     1     -33.277  -2.224   1.519  1.00  0.00     0.177 A
HETATM   13  N1  UNL     1     -32.499  -1.344   0.826  1.00  0.00    -0.164 N
HETATM   14  C1  UNL     1     -32.164  -0.046   1.326  1.00  0.00     0.177 C
HETATM   15  C9  UNL     1     -32.116  -1.873  -0.354  1.00  0.00     0.698 A
HETATM   16  N5  UNL     1     -32.674  -3.101  -0.377  1.00  0.00    -0.130 N
HETATM   17  N4  UNL     1     -33.370  -3.305   0.752  1.00  0.00    -0.265 N
ATOM     18  H5  UNL     1     -32.581  -3.773  -1.138  1.00  0.00     0.205 HD
ATOM     19  H4  UNL     1     -33.887  -4.153   0.984  1.00  0.00     0.189 HD
BRANCH  15  20
HETATM   20  N6  UNL     1     -31.300  -1.255  -1.350  1.00  0.00    -0.216 N
HETATM   21  C10 UNL     1     -29.980  -1.842  -1.454  1.00  0.00     0.141 C
HETATM   22  C11 UNL     1     -28.962  -0.841  -1.965  1.00  0.00     0.020 C
HETATM   23  C12 UNL     1     -29.393  -0.278  -3.286  1.00  0.00     0.002 C
HETATM   24  C13 UNL     1     -29.945   1.104  -3.094  1.00  0.00     0.002 C
HETATM   25  C14 UNL     1     -31.002   1.076  -2.032  1.00  0.00     0.020 C
HETATM   26  C15 UNL     1     -31.890  -0.144  -2.086  1.00  0.00     0.141 C
ENDBRANCH  15  20
ENDBRANCH  11  12
ENDBRANCH  10  11
ENDBRANCH   7  10
ENDBRANCH   1   6
TORSDOF 5
ENDMDL