MODEL 4
REMARK VINA RESULT: -7.347460237      1.783      4.568
REMARK  4 active torsions:
REMARK  status: ('A' for Active; 'I' for Inactive)
REMARK    1  A    between atoms: C3_5  and  C4_6
REMARK    2  A    between atoms: C4_6  and  N2_7
REMARK    3  A    between atoms: N2_7  and  C5_9
REMARK    4  A    between atoms: C12_17  and  C13_18
ROOT
HETATM    1  C13 UNL     1     -31.505  -3.252   3.565  1.00  0.00     0.101 C
HETATM    2  C14 UNL     1     -32.869  -3.666   4.058  1.00  0.00     0.202 C
HETATM    3  N3  UNL     1     -33.817  -2.584   3.944  1.00  0.00    -0.312 N
HETATM    4  C15 UNL     1     -35.205  -2.853   3.787  1.00  0.00     0.180 C
HETATM    5  N4  UNL     1     -36.331  -3.083   3.703  1.00  0.00    -0.172 NA
HETATM    6  C16 UNL     1     -33.336  -1.219   4.035  1.00  0.00     0.161 C
HETATM    7  C17 UNL     1     -31.934  -1.072   3.468  1.00  0.00     0.196 C
HETATM    8  O2  UNL     1     -31.098  -2.066   4.094  1.00  0.00    -0.349 OA
ENDROOT
BRANCH   1   9
HETATM    9  C12 UNL     1     -30.544  -4.318   3.340  1.00  0.00     0.136 A
HETATM   10  C3  UNL     1     -29.655  -4.431   2.267  1.00  0.00     0.086 A
HETATM   11  N1  UNL     1     -28.990  -5.560   2.473  1.00  0.00    -0.337 N
HETATM   12  C2  UNL     1     -29.429  -6.135   3.610  1.00  0.00     0.121 A
ATOM     13  H1  UNL     1     -28.260  -5.934   1.866  1.00  0.00     0.168 HD
HETATM   14  C1  UNL     1     -28.957  -7.432   4.213  1.00  0.00     0.098 C
HETATM   15  O3  UNL     1     -30.354  -5.365   4.103  1.00  0.00    -0.293 OA
BRANCH  10  16
HETATM   16  C4  UNL     1     -29.620  -3.441   1.184  1.00  0.00     0.120 C
BRANCH  16  17
HETATM   17  N2  UNL     1     -30.310  -3.790   0.005  1.00  0.00    -0.370 N
ATOM     18  H2  UNL     1     -30.962  -4.573   0.014  1.00  0.00     0.165 HD
BRANCH  17  19
HETATM   19  C5  UNL     1     -30.105  -3.064  -1.187  1.00  0.00    -0.009 C
HETATM   20  C6  UNL     1     -28.693  -2.602  -1.309  1.00  0.00     0.078 C
HETATM   21  C7  UNL     1     -28.641  -1.306  -2.076  1.00  0.00     0.174 C
HETATM   22  O1  UNL     1     -29.544  -0.348  -1.722  1.00  0.00    -0.380 OA
HETATM   23  C8  UNL     1     -30.821  -0.686  -1.464  1.00  0.00     0.058 C
HETATM   24  C9  UNL     1     -31.752   0.064  -2.439  1.00  0.00     0.046 C
HETATM   25  C10 UNL     1     -31.191  -0.205  -0.067  1.00  0.00     0.046 C
HETATM   26  C11 UNL     1     -31.157  -2.140  -1.643  1.00  0.00     0.089 C
ENDBRANCH  17  19
ENDBRANCH  16  17
ENDBRANCH  10  16
ENDBRANCH   1   9
TORSDOF 4
ENDMDL