MODEL 4
REMARK VINA RESULT: -7.552367571      4.608      7.751
REMARK  5 active torsions:
REMARK  status: ('A' for Active; 'I' for Inactive)
REMARK    1  A    between atoms: C2_2  and  C4_4
REMARK    2  A    between atoms: C5_7  and  N2_8
REMARK    3  A    between atoms: C8_12  and  C9_13
REMARK    4  A    between atoms: C9_13  and  O2_15
REMARK    5  A    between atoms: C12_22  and  N5_23
ROOT
HETATM    1  C4  UNL     1     -30.366  -3.570   0.782  1.00  0.00     0.075 A
HETATM    2  N1  UNL     1     -31.503  -3.287   1.495  1.00  0.00    -0.190 N
ATOM      3  H1  UNL     1     -31.482  -3.393   2.509  1.00  0.00     0.184 HD
HETATM    4  C5  UNL     1     -32.642  -2.876   0.916  1.00  0.00     0.695 A
HETATM    5  N3  UNL     1     -32.631  -2.746  -0.440  1.00  0.00    -0.130 N
ATOM      6  H3  UNL     1     -33.473  -2.436  -0.925  1.00  0.00     0.205 HD
HETATM    7  N4  UNL     1     -31.541  -3.017  -1.132  1.00  0.00    -0.270 N
ATOM      8  H4  UNL     1     -31.576  -2.908  -2.145  1.00  0.00     0.189 HD
HETATM    9  C12 UNL     1     -30.384  -3.430  -0.578  1.00  0.00     0.142 A
ENDROOT
BRANCH   4  10
HETATM   10  N2  UNL     1     -33.785  -2.597   1.688  1.00  0.00    -0.212 N
HETATM   11  C6  UNL     1     -34.993  -2.175   1.047  1.00  0.00     0.167 C
HETATM   12  C7  UNL     1     -36.194  -2.212   1.962  1.00  0.00     0.188 C
HETATM   13  O1  UNL     1     -36.117  -3.159   2.938  1.00  0.00    -0.380 OA
HETATM   14  C8  UNL     1     -35.026  -3.136   3.749  1.00  0.00     0.168 C
HETATM   15  C11 UNL     1     -33.732  -2.737   3.110  1.00  0.00     0.175 C
BRANCH  14  16
HETATM   16  C9  UNL     1     -35.249  -2.310   5.018  1.00  0.00     0.144 C
HETATM   17  C10 UNL     1     -36.523  -2.768   5.677  1.00  0.00     0.042 C
BRANCH  16  18
HETATM   18  O2  UNL     1     -34.154  -2.327   5.850  1.00  0.00    -0.393 OA
ATOM     19  H2  UNL     1     -34.303  -1.836   6.650  1.00  0.00     0.210 HD
ENDBRANCH  16  18
ENDBRANCH  14  16
ENDBRANCH   4  10
BRANCH   1  20
HETATM   20  C2  UNL     1     -29.154  -4.027   1.516  1.00  0.00     0.032 C
HETATM   21  C1  UNL     1     -29.154  -3.366   2.906  1.00  0.00     0.016 C
HETATM   22  C3  UNL     1     -29.212  -5.519   1.791  1.00  0.00     0.016 C
ENDBRANCH   1  20
BRANCH   9  23
HETATM   23  N5  UNL     1     -29.234  -3.704  -1.342  1.00  0.00    -0.365 N
HETATM   24  C13 UNL     1     -29.119  -4.992  -1.993  1.00  0.00     0.124 C
HETATM   25  C14 UNL     1     -27.753  -5.541  -1.600  1.00  0.00     0.020 C
HETATM   26  C15 UNL     1     -26.660  -4.600  -2.001  1.00  0.00     0.003 C
HETATM   27  C16 UNL     1     -27.221  -3.311  -2.541  1.00  0.00     0.020 C
HETATM   28  C17 UNL     1     -28.172  -2.752  -1.493  1.00  0.00     0.124 C
ENDBRANCH   9  23
TORSDOF 5
ENDMDL