MODEL 2
REMARK VINA RESULT: -6.301898487      3.017      5.149
REMARK  5 active torsions:
REMARK  status: ('A' for Active; 'I' for Inactive)
REMARK    1  A    between atoms: C2_2  and  C5_5
REMARK    2  A    between atoms: C6_7  and  C7_8
REMARK    3  A    between atoms: C9_11  and  C10_12
REMARK    4  A    between atoms: C10_12  and  N1_13
REMARK    5  A    between atoms: C15_23  and  S1_24
ROOT
HETATM    1  S1  UNL     1     -28.293  -1.734  -2.216  1.00  0.00     0.010 SA
HETATM    2  C16 UNL     1     -29.738  -0.722  -2.317  1.00  0.00     0.140 C
HETATM    3  N4  UNL     1     -30.682  -0.038  -2.380  1.00  0.00    -0.184 NA
ENDROOT
BRANCH   1   4
HETATM    4  C15 UNL     1     -28.611  -3.059  -1.058  1.00  0.00     0.117 A
HETATM    5  C5  UNL     1     -28.026  -4.301  -1.106  1.00  0.00     0.097 A
HETATM    6  O1  UNL     1     -28.524  -4.960  -0.090  1.00  0.00    -0.296 OA
HETATM    7  C6  UNL     1     -29.384  -4.223   0.597  1.00  0.00     0.154 A
HETATM    8  N3  UNL     1     -29.448  -3.025  -0.001  1.00  0.00    -0.330 N
ATOM      9  H3  UNL     1     -30.023  -2.235   0.289  1.00  0.00     0.168 HD
BRANCH   5  10
HETATM   10  C2  UNL     1     -27.034  -4.809  -2.098  1.00  0.00     0.001 C
HETATM   11  C1  UNL     1     -25.692  -4.150  -1.905  1.00  0.00     0.021 C
HETATM   12  C3  UNL     1     -26.811  -6.307  -1.903  1.00  0.00     0.021 C
HETATM   13  C4  UNL     1     -27.587  -4.639  -3.491  1.00  0.00     0.021 C
ENDBRANCH   5  10
BRANCH   7  14
HETATM   14  C7  UNL     1     -30.115  -4.698   1.807  1.00  0.00     0.204 C
HETATM   15  O2  UNL     1     -29.201  -5.060   2.792  1.00  0.00    -0.377 OA
HETATM   16  C8  UNL     1     -29.054  -3.673   3.029  1.00  0.00     0.178 C
HETATM   17  C9  UNL     1     -30.540  -3.551   2.668  1.00  0.00     0.075 C
BRANCH  17  18
HETATM   18  C10 UNL     1     -31.363  -3.951   3.882  1.00  0.00     0.282 C
BRANCH  18  19
HETATM   19  N1  UNL     1     -32.416  -3.026   4.147  1.00  0.00     0.092 N
HETATM   20  C11 UNL     1     -33.646  -3.508   3.565  1.00  0.00     0.300 C
HETATM   21  C12 UNL     1     -33.975  -2.792   2.255  1.00  0.00     0.262 C
HETATM   22  N2  UNL     1     -34.208  -1.379   2.462  1.00  0.00    -0.072 N
HETATM   23  C13 UNL     1     -33.562  -0.996   3.698  1.00  0.00     0.262 C
ATOM     24  H22 UNL     1     -33.912  -0.810   1.670  1.00  0.00     0.277 HD
ATOM     25  H21 UNL     1     -35.198  -1.136   2.443  1.00  0.00     0.277 HD
HETATM   26  C14 UNL     1     -32.187  -1.681   3.683  1.00  0.00     0.300 C
ENDBRANCH  18  19
ENDBRANCH  17  18
ENDBRANCH   7  14
ENDBRANCH   1   4
TORSDOF 5
ENDMDL