MODEL 3
REMARK VINA RESULT: -7.206355186      1.581      2.182
REMARK  7 active torsions:
REMARK  status: ('A' for Active; 'I' for Inactive)
REMARK    1  A    between atoms: C2_2  and  O1_4
REMARK    2  A    between atoms: O1_4  and  C4_5
REMARK    3  A    between atoms: C11_15  and  O5_16
REMARK    4  A    between atoms: O5_16  and  C12_17
REMARK    5  A    between atoms: C12_17  and  C13_19
REMARK    6  A    between atoms: C13_19  and  O7_20
REMARK    7  A    between atoms: C13_19  and  C14_22
ROOT
HETATM    1  C4  UNL     1     -31.930  -1.605   0.477  1.00  0.00     0.313 C
HETATM    2  O2  UNL     1     -32.725  -0.410   0.625  1.00  0.00    -0.286 OA
HETATM    3  C5  UNL     1     -32.512   0.120   1.886  1.00  0.00     0.264 C
HETATM    4  O3  UNL     1     -33.032   1.147   2.366  1.00  0.00    -0.265 OA
HETATM    5  C6  UNL     1     -31.543  -0.753   2.590  1.00  0.00     0.157 C
HETATM    6  C7  UNL     1     -31.872  -2.077   1.886  1.00  0.00     0.147 C
HETATM    7  O4  UNL     1     -33.137  -2.449   2.311  1.00  0.00    -0.367 OA
HETATM    8  C8  UNL     1     -33.018  -3.370   3.317  1.00  0.00     0.121 C
HETATM    9  C9  UNL     1     -33.582  -2.889   4.638  1.00  0.00     0.040 C
HETATM   10  C10 UNL     1     -31.579  -3.725   3.495  1.00  0.00     0.067 C
HETATM   11  C11 UNL     1     -30.932  -3.144   2.225  1.00  0.00     0.174 C
ENDROOT
BRANCH  11  12
HETATM   12  O5  UNL     1     -30.735  -4.157   1.288  1.00  0.00    -0.311 OA
BRANCH  12  13
HETATM   13  C12 UNL     1     -29.491  -4.748   1.134  1.00  0.00     0.289 C
HETATM   14  O6  UNL     1     -28.688  -4.632   2.093  1.00  0.00    -0.262 OA
BRANCH  13  15
HETATM   15  C13 UNL     1     -29.072  -5.491  -0.075  1.00  0.00     0.225 C
BRANCH  15  16
HETATM   16  O7  UNL     1     -27.909  -6.200   0.213  1.00  0.00    -0.385 OA
ATOM     17  H7  UNL     1     -27.693  -6.074   1.130  1.00  0.00     0.210 HD
ENDBRANCH  15  16
BRANCH  15  18
HETATM   18  C14 UNL     1     -28.762  -4.595  -1.249  1.00  0.00    -0.016 C
HETATM   19  C15 UNL     1     -30.107  -4.318  -1.933  1.00  0.00     0.018 C
HETATM   20  C16 UNL     1     -27.872  -5.228  -2.258  1.00  0.00     0.018 C
HETATM   21  C17 UNL     1     -28.236  -3.237  -0.819  1.00  0.00     0.018 C
ENDBRANCH  15  18
ENDBRANCH  13  15
ENDBRANCH  12  13
ENDBRANCH  11  12
BRANCH   1  22
HETATM   22  O1  UNL     1     -30.674  -1.148   0.011  1.00  0.00    -0.322 OA
BRANCH  22  23
HETATM   23  C2  UNL     1     -30.538  -0.303  -1.080  1.00  0.00     0.036 C
HETATM   24  C1  UNL     1     -30.799  -0.669  -2.316  1.00  0.00     0.045 C
HETATM   25  C3  UNL     1     -30.074   1.089  -0.846  1.00  0.00     0.075 C
ENDBRANCH  22  23
ENDBRANCH   1  22
TORSDOF 7
ENDMDL