MODEL 1
REMARK VINA RESULT: -7.505651568      0.000      0.000
REMARK  3 active torsions:
REMARK  status: ('A' for Active; 'I' for Inactive)
REMARK    1  A    between atoms: C2_2  and  C3_3
REMARK    2  A    between atoms: C8_13  and  N4_14
REMARK    3  A    between atoms: C13_21  and  C14_22
ROOT
HETATM    1  C1  UNL     1     -32.011  -2.462  -0.913  1.00  0.00     0.078 A
HETATM    2  C2  UNL     1     -32.425  -2.407   0.402  1.00  0.00     0.036 A
HETATM    3  N2  UNL     1     -31.532  -3.107   1.116  1.00  0.00    -0.282 N
ATOM      4  H2  UNL     1     -31.579  -3.243   2.126  1.00  0.00     0.188 HD
HETATM    5  N3  UNL     1     -30.596  -3.593   0.349  1.00  0.00    -0.070 N
HETATM    6  C8  UNL     1     -29.505  -4.354   0.649  1.00  0.00     0.704 A
HETATM    7  N5  UNL     1     -28.718  -4.701  -0.365  1.00  0.00    -0.178 N
ATOM      8  H5  UNL     1     -27.895  -5.272  -0.169  1.00  0.00     0.185 HD
HETATM    9  C13 UNL     1     -28.957  -4.337  -1.630  1.00  0.00     0.103 A
HETATM   10  N6  UNL     1     -30.043  -3.580  -1.926  1.00  0.00    -0.329 N
ATOM     11  H6  UNL     1     -30.239  -3.296  -2.886  1.00  0.00     0.168 HD
HETATM   12  C17 UNL     1     -30.859  -3.213  -0.913  1.00  0.00     0.148 A
ENDROOT
BRANCH   2  13
HETATM   13  C3  UNL     1     -33.604  -1.734   0.982  1.00  0.00     0.054 C
HETATM   14  C4  UNL     1     -34.163  -2.647   2.056  1.00  0.00     0.014 C
HETATM   15  C5  UNL     1     -35.562  -2.162   2.369  1.00  0.00     0.020 C
HETATM   16  C6  UNL     1     -36.423  -2.454   1.168  1.00  0.00     0.113 C
HETATM   17  N1  UNL     1     -35.754  -2.301  -0.076  1.00  0.00    -0.420 N
HETATM   18  C7  UNL     1     -34.640  -1.398  -0.058  1.00  0.00     0.124 C
ATOM     19  H1  UNL     1     -36.045  -2.795  -0.919  1.00  0.00     0.153 HD
ENDBRANCH   2  13
BRANCH   6  20
HETATM   20  N4  UNL     1     -29.268  -4.729   1.997  1.00  0.00    -0.216 N
HETATM   21  C9  UNL     1     -29.361  -3.933   3.179  1.00  0.00     0.141 C
HETATM   22  C10 UNL     1     -28.792  -4.778   4.299  1.00  0.00     0.022 C
HETATM   23  C11 UNL     1     -29.147  -6.179   3.853  1.00  0.00     0.022 C
HETATM   24  C12 UNL     1     -28.868  -6.096   2.369  1.00  0.00     0.141 C
ENDBRANCH   6  20
BRANCH   9  25
HETATM   25  C14 UNL     1     -28.006  -4.786  -2.675  1.00  0.00     0.054 A
HETATM   26  C15 UNL     1     -26.825  -3.836  -2.923  1.00  0.00     0.013 A
HETATM   27  C16 UNL     1     -26.627  -5.122  -2.239  1.00  0.00     0.013 A
ENDBRANCH   9  25
TORSDOF 3
ENDMDL