MODEL 1
REMARK VINA RESULT: -6.795079061      0.000      0.000
REMARK  4 active torsions:
REMARK  status: ('A' for Active; 'I' for Inactive)
REMARK       I    between atoms: C1_2  and  N1_3
REMARK    1  A    between atoms: C1_2  and  C9_19
REMARK    2  A    between atoms: N1_3  and  C2_5
REMARK    3  A    between atoms: C3_10  and  S1_11
REMARK    4  A    between atoms: S1_11  and  C4_12
ROOT
HETATM    1  C2  UNL     1     -29.868  -3.763   0.248  1.00  0.00     0.168 A
HETATM    2  N2  UNL     1     -31.069  -3.864   0.826  1.00  0.00    -0.278 N
ATOM      3  H2  UNL     1     -31.361  -4.736   1.266  1.00  0.00     0.189 HD
HETATM    4  N3  UNL     1     -31.839  -2.856   0.820  1.00  0.00    -0.286 N
ATOM      5  H3  UNL     1     -32.758  -2.916   1.258  1.00  0.00     0.188 HD
HETATM    6  C3  UNL     1     -31.454  -1.725   0.245  1.00  0.00     0.132 A
HETATM    7  S2  UNL     1     -29.893  -2.147  -0.311  1.00  0.00    -0.026 SA
ENDROOT
BRANCH   1   8
HETATM    8  N1  UNL     1     -28.945  -4.696   0.161  1.00  0.00    -0.304 N
HETATM    9  C1  UNL     1     -28.876  -5.405  -1.066  1.00  0.00     0.252 C
HETATM   10  O1  UNL     1     -29.937  -5.714  -1.647  1.00  0.00    -0.270 OA
ATOM     11  H1  UNL     1     -28.313  -4.899   0.935  1.00  0.00     0.171 HD
BRANCH   9  12
HETATM   12  C9  UNL     1     -27.556  -5.763  -1.636  1.00  0.00     0.213 C
HETATM   13  C10 UNL     1     -26.691  -4.508  -1.518  1.00  0.00     0.044 C
HETATM   14  C11 UNL     1     -27.119  -3.789  -2.781  1.00  0.00     0.029 C
HETATM   15  C12 UNL     1     -27.298  -4.971  -3.723  1.00  0.00     0.168 C
HETATM   16  O3  UNL     1     -27.684  -6.039  -2.968  1.00  0.00    -0.376 OA
ENDBRANCH   9  12
ENDBRANCH   1   8
BRANCH   6  17
HETATM   17  S1  UNL     1     -32.340  -0.165   0.093  1.00  0.00    -0.071 SA
BRANCH  17  18
HETATM   18  C4  UNL     1     -32.014   0.615  -1.478  1.00  0.00     0.189 C
HETATM   19  C5  UNL     1     -31.009   1.735  -1.295  1.00  0.00     0.043 C
HETATM   20  C6  UNL     1     -29.651   1.290  -1.792  1.00  0.00     0.005 C
HETATM   21  C7  UNL     1     -29.730   0.873  -3.248  1.00  0.00     0.026 C
HETATM   22  C8  UNL     1     -31.134   0.353  -3.532  1.00  0.00     0.169 C
HETATM   23  O2  UNL     1     -31.523  -0.333  -2.365  1.00  0.00    -0.375 OA
ENDBRANCH  17  18
ENDBRANCH   6  17
TORSDOF 4
ENDMDL