MODEL 4
REMARK VINA RESULT: -7.258649015      2.851      5.032
REMARK  4 active torsions:
REMARK  status: ('A' for Active; 'I' for Inactive)
REMARK    1  A    between atoms: C2_2  and  C3_3
REMARK    2  A    between atoms: C3_3  and  C4_4
REMARK    3  A    between atoms: C15_21  and  C16_22
REMARK    4  A    between atoms: C16_22  and  O2_23
ROOT
HETATM    1  C4  UNL     1     -30.612  -2.248  -0.722  1.00  0.00     0.022 A
HETATM    2  N1  UNL     1     -29.549  -3.017  -1.111  1.00  0.00    -0.337 N
ATOM      3  H1  UNL     1     -29.517  -3.969  -0.745  1.00  0.00     0.168 HD
HETATM    4  C5  UNL     1     -28.566  -2.662  -1.903  1.00  0.00     0.189 A
HETATM    5  C6  UNL     1     -27.482  -3.547  -2.275  1.00  0.00     0.137 C
HETATM    6  N2  UNL     1     -26.600  -4.236  -2.571  1.00  0.00    -0.188 NA
HETATM    7  N3  UNL     1     -28.593  -1.412  -2.394  1.00  0.00    -0.337 N
ATOM      8  H3  UNL     1     -27.850  -1.094  -3.017  1.00  0.00     0.168 HD
HETATM    9  C7  UNL     1     -29.601  -0.576  -2.067  1.00  0.00     0.019 A
HETATM   10  C8  UNL     1     -30.647  -0.963  -1.215  1.00  0.00    -0.013 A
HETATM   11  C9  UNL     1     -31.742  -0.210  -0.665  1.00  0.00     0.042 C
HETATM   12  C10 UNL     1     -31.636   1.279  -0.679  1.00  0.00     0.005 C
HETATM   13  C11 UNL     1     -31.285   1.884  -1.983  1.00  0.00     0.001 C
HETATM   14  C12 UNL     1     -29.771   1.925  -2.057  1.00  0.00     0.006 C
HETATM   15  C13 UNL     1     -29.377   0.693  -2.778  1.00  0.00     0.057 C
ENDROOT
BRANCH   1  16
HETATM   16  C3  UNL     1     -31.643  -2.944   0.043  1.00  0.00     0.097 C
BRANCH  16  17
HETATM   17  C2  UNL     1     -31.324  -3.183   1.506  1.00  0.00     0.084 C
HETATM   18  C1  UNL     1     -32.704  -3.198   2.238  1.00  0.00     0.049 C
HETATM   19  C14 UNL     1     -30.518  -2.210   2.232  1.00  0.00     0.206 C
HETATM   20  O1  UNL     1     -29.166  -2.499   2.403  1.00  0.00    -0.379 OA
HETATM   21  C15 UNL     1     -28.906  -3.794   2.757  1.00  0.00     0.168 C
HETATM   22  C17 UNL     1     -29.544  -4.667   1.701  1.00  0.00     0.203 C
HETATM   23  O3  UNL     1     -30.906  -4.506   1.587  1.00  0.00    -0.375 OA
BRANCH  21  24
HETATM   24  C16 UNL     1     -29.369  -4.180   4.146  1.00  0.00     0.198 C
BRANCH  24  25
HETATM   25  O2  UNL     1     -28.629  -3.409   5.077  1.00  0.00    -0.398 OA
ATOM     26  H2  UNL     1     -29.190  -3.242   5.825  1.00  0.00     0.209 HD
ENDBRANCH  24  25
ENDBRANCH  21  24
ENDBRANCH  16  17
ENDBRANCH   1  16
TORSDOF 4
ENDMDL