MODEL 4
REMARK VINA RESULT: -7.478239631      1.835      3.512
REMARK  3 active torsions:
REMARK  status: ('A' for Active; 'I' for Inactive)
REMARK    1  A    between atoms: C7_9  and  C8_10
REMARK    2  A    between atoms: C10_13  and  C11_14
REMARK    3  A    between atoms: C11_14  and  O4_15
ROOT
HETATM    1  C1  UNL     1     -32.372   0.440  -2.977  1.00  0.00     0.014 C
HETATM    2  C2  UNL     1     -31.171   0.938  -2.387  1.00  0.00     0.025 C
HETATM    3  C3  UNL     1     -29.844   0.361  -2.450  1.00  0.00     0.015 C
HETATM    4  C4  UNL     1     -29.073   1.442  -1.746  1.00  0.00    -0.023 C
HETATM    5  C5  UNL     1     -29.881   1.944  -0.830  1.00  0.00     0.005 C
HETATM    6  C6  UNL     1     -31.215   1.246  -0.869  1.00  0.00     0.187 C
HETATM    7  O1  UNL     1     -31.301   0.116  -0.128  1.00  0.00    -0.230 OA
HETATM    8  O2  UNL     1     -31.999  -0.846  -0.667  1.00  0.00    -0.223 OA
HETATM    9  C7  UNL     1     -31.338  -2.113  -0.601  1.00  0.00     0.150 C
HETATM   10  C12 UNL     1     -32.352  -3.170  -0.958  1.00  0.00     0.054 C
HETATM   11  C13 UNL     1     -31.908  -4.018  -2.134  1.00  0.00     0.081 C
HETATM   12  C14 UNL     1     -30.474  -4.436  -1.926  1.00  0.00     0.127 C
HETATM   13  O6  UNL     1     -30.097  -5.571  -1.881  1.00  0.00    -0.298 OA
HETATM   14  C15 UNL     1     -29.503  -3.322  -1.772  1.00  0.00     0.086 C
HETATM   15  C16 UNL     1     -30.315  -2.041  -1.696  1.00  0.00     0.036 C
HETATM   16  C17 UNL     1     -29.440  -0.829  -1.677  1.00  0.00     0.017 C
ENDROOT
BRANCH   9  17
HETATM   17  C8  UNL     1     -30.788  -2.323   0.773  1.00  0.00     0.298 C
HETATM   18  O3  UNL     1     -29.468  -2.027   0.957  1.00  0.00    -0.355 OA
HETATM   19  C9  UNL     1     -29.013  -2.906   1.966  1.00  0.00     0.205 C
HETATM   20  C10 UNL     1     -29.850  -4.125   1.653  1.00  0.00     0.172 C
HETATM   21  O5  UNL     1     -31.054  -3.575   1.290  1.00  0.00    -0.349 OA
BRANCH  20  22
HETATM   22  C11 UNL     1     -30.038  -4.983   2.894  1.00  0.00     0.198 C
BRANCH  22  23
HETATM   23  O4  UNL     1     -28.905  -5.731   3.181  1.00  0.00    -0.398 OA
ATOM     24  H4  UNL     1     -29.126  -6.584   3.534  1.00  0.00     0.209 HD
ENDBRANCH  22  23
ENDBRANCH  20  22
ENDBRANCH   9  17
TORSDOF 3
ENDMDL