MODEL 3
REMARK VINA RESULT: -6.942814804      1.207      1.467
REMARK  5 active torsions:
REMARK  status: ('A' for Active; 'I' for Inactive)
REMARK    1  A    between atoms: N1_1  and  C1_5
REMARK    2  A    between atoms: C3_7  and  C4_8
REMARK    3  A    between atoms: C4_8  and  O1_9
REMARK    4  A    between atoms: O1_9  and  C5_10
REMARK       I    between atoms: C5_10  and  N2_12
REMARK    5  A    between atoms: C9_16  and  C10_17
ROOT
HETATM    1  C5  UNL     1     -28.617  -5.615  -0.241  1.00  0.00     0.363 C
HETATM    2  O2  UNL     1     -28.040  -6.629   0.291  1.00  0.00    -0.238 OA
HETATM    3  N2  UNL     1     -28.089  -5.133  -1.437  1.00  0.00    -0.318 N
HETATM    4  C6  UNL     1     -26.886  -5.754  -2.075  1.00  0.00     0.129 C
HETATM    5  C7  UNL     1     -26.011  -4.503  -2.134  1.00  0.00     0.022 C
HETATM    6  C8  UNL     1     -27.005  -3.488  -2.661  1.00  0.00     0.033 C
HETATM    7  C9  UNL     1     -28.373  -4.079  -2.365  1.00  0.00     0.141 C
ENDROOT
BRANCH   1   8
HETATM    8  O1  UNL     1     -29.692  -5.155   0.474  1.00  0.00    -0.303 OA
BRANCH   8   9
HETATM    9  C4  UNL     1     -29.713  -4.073   1.345  1.00  0.00     0.187 C
BRANCH   9  10
HETATM   10  C3  UNL     1     -29.961  -4.446   2.784  1.00  0.00     0.042 A
HETATM   11  C1  UNL     1     -28.748  -4.246   3.679  1.00  0.00     0.190 A
HETATM   12  C2  UNL     1     -29.158  -5.614   3.295  1.00  0.00     0.042 A
BRANCH  11  13
HETATM   13  N1  UNL     1     -28.978  -3.808   5.050  1.00  0.00    -0.075 N
ATOM     14  H13 UNL     1     -29.800  -4.288   5.417  1.00  0.00     0.274 HD
ATOM     15  H12 UNL     1     -28.245  -4.190   5.647  1.00  0.00     0.274 HD
ATOM     16  H11 UNL     1     -29.069  -2.809   5.235  1.00  0.00     0.274 HD
ENDBRANCH  11  13
ENDBRANCH   9  10
ENDBRANCH   8   9
ENDBRANCH   1   8
BRANCH   7  17
HETATM   17  C10 UNL     1     -29.307  -3.039  -1.988  1.00  0.00     0.051 A
HETATM   18  C11 UNL     1     -29.116  -1.709  -1.687  1.00  0.00     0.067 A
HETATM   19  C12 UNL     1     -30.340  -1.133  -1.403  1.00  0.00     0.089 A
HETATM   20  N3  UNL     1     -31.246  -2.110  -1.534  1.00  0.00    -0.285 N
HETATM   21  S1  UNL     1     -30.845   0.518  -0.944  1.00  0.00    -0.111 SA
HETATM   22  N4  UNL     1     -30.633  -3.240  -1.880  1.00  0.00    -0.300 N
HETATM   23  C13 UNL     1     -32.672  -1.972  -1.332  1.00  0.00     0.150 C
ATOM     24  H4  UNL     1     -31.101  -4.131  -2.041  1.00  0.00     0.187 HD
HETATM   25  C14 UNL     1     -33.027  -0.886  -0.386  1.00  0.00     0.032 C
HETATM   26  C15 UNL     1     -32.657   0.495  -0.944  1.00  0.00     0.082 C
ENDBRANCH   7  17
TORSDOF 5
ENDMDL