MODEL 2
REMARK VINA RESULT: -6.388279238      4.278      6.916
REMARK  3 active torsions:
REMARK  status: ('A' for Active; 'I' for Inactive)
REMARK    1  A    between atoms: C5_6  and  C7_8
REMARK       I    between atoms: C7_8  and  N2_10
REMARK    2  A    between atoms: N2_10  and  C8_12
REMARK    3  A    between atoms: C12_16  and  C13_17
ROOT
HETATM    1  C8  UNL     1     -31.473  -3.364   1.972  1.00  0.00     0.157 C
HETATM    2  C9  UNL     1     -31.154  -1.911   2.485  1.00  0.00     0.116 C
HETATM    3  C10 UNL     1     -32.395  -1.392   2.923  1.00  0.00    -0.179 C
HETATM    4  C11 UNL     1     -33.761  -1.251   3.256  1.00  0.00     0.101 C
HETATM    5  C12 UNL     1     -34.427  -2.615   2.840  1.00  0.00     0.111 C
HETATM    6  S2  UNL     1     -33.239  -3.701   2.055  1.00  0.00    -0.131 SA
ENDROOT
BRANCH   1   7
HETATM    7  N2  UNL     1     -30.948  -3.522   0.646  1.00  0.00    -0.345 N
HETATM    8  C7  UNL     1     -29.675  -4.115   0.463  1.00  0.00     0.257 C
HETATM    9  O1  UNL     1     -28.991  -4.511   1.465  1.00  0.00    -0.271 OA
ATOM     10  H2  UNL     1     -31.489  -3.209  -0.160  1.00  0.00     0.163 HD
BRANCH   8  11
HETATM   11  C5  UNL     1     -29.052  -4.319  -0.865  1.00  0.00     0.235 C
HETATM   12  N1  UNL     1     -28.082  -3.336  -1.199  1.00  0.00     0.102 N
HETATM   13  C1  UNL     1     -28.617  -2.108  -1.716  1.00  0.00     0.311 C
HETATM   14  C2  UNL     1     -27.257  -3.933  -2.233  1.00  0.00     0.273 C
HETATM   15  C3  UNL     1     -27.261  -5.400  -1.936  1.00  0.00     0.033 C
HETATM   16  C4  UNL     1     -28.254  -5.605  -0.808  1.00  0.00     0.053 C
HETATM   17  C6  UNL     1     -30.127  -4.493  -1.911  1.00  0.00     0.060 C
ENDBRANCH   8  11
ENDBRANCH   1   7
BRANCH   5  18
HETATM   18  C13 UNL     1     -35.587  -2.292   1.920  1.00  0.00     0.047 A
HETATM   19  C14 UNL     1     -36.842  -2.051   2.329  1.00  0.00     0.123 A
HETATM   20  N3  UNL     1     -37.749  -1.781   1.388  1.00  0.00    -0.321 N
HETATM   21  S1  UNL     1     -36.869  -1.864  -0.040  1.00  0.00     0.067 SA
ATOM     22  H3  UNL     1     -38.740  -1.574   1.508  1.00  0.00     0.175 HD
HETATM   23  N4  UNL     1     -35.365  -2.240   0.602  1.00  0.00    -0.314 N
ATOM     24  H4  UNL     1     -34.488  -2.393   0.105  1.00  0.00     0.175 HD
ENDBRANCH   5  18
TORSDOF 3
ENDMDL