MODEL 2
REMARK VINA RESULT: -6.482018563      2.128      2.587
REMARK  6 active torsions:
REMARK  status: ('A' for Active; 'I' for Inactive)
REMARK    1  A    between atoms: C2_2  and  C3_3
REMARK    2  A    between atoms: N1_9  and  O1_11
REMARK    3  A    between atoms: O1_11  and  C9_12
REMARK    4  A    between atoms: C11_15  and  O3_17
REMARK    5  A    between atoms: N3_21  and  C14_22
REMARK    6  A    between atoms: C14_22  and  C15_23
ROOT
HETATM    1  C3  UNL     1     -33.521  -0.034  -2.044  1.00  0.00     0.252 C
HETATM    2  C4  UNL     1     -33.407   0.457  -0.640  1.00  0.00     0.115 C
HETATM    3  C5  UNL     1     -32.337  -0.655  -0.573  1.00  0.00     0.360 C
HETATM    4  C6  UNL     1     -31.264  -0.393   0.369  1.00  0.00     0.082 C
HETATM    5  C7  UNL     1     -30.818  -1.519   1.242  1.00  0.00     0.064 C
HETATM    6  C8  UNL     1     -31.783  -2.595   1.444  1.00  0.00     0.075 C
HETATM    7  N1  UNL     1     -31.431  -3.631   2.110  1.00  0.00    -0.261 N
ATOM      8  H1  UNL     1     -32.103  -4.385   2.253  1.00  0.00     0.194 HD
HETATM    9  C11 UNL     1     -33.138  -2.429   0.871  1.00  0.00     0.299 C
HETATM   10  C12 UNL     1     -33.940  -1.595   1.840  1.00  0.00     0.089 C
HETATM   11  N2  UNL     1     -33.021  -1.917  -0.436  1.00  0.00     0.165 N
HETATM   12  C13 UNL     1     -32.525  -2.927  -1.322  1.00  0.00     0.318 C
HETATM   13  N3  UNL     1     -32.099  -0.374  -1.970  1.00  0.00     0.137 N
ENDROOT
BRANCH  13  14
HETATM   14  C14 UNL     1     -31.261   0.729  -2.312  1.00  0.00     0.280 C
BRANCH  14  15
HETATM   15  C15 UNL     1     -30.115   0.394  -3.243  1.00  0.00     0.006 C
HETATM   16  C16 UNL     1     -29.202  -0.646  -2.627  1.00  0.00     0.011 C
HETATM   17  C17 UNL     1     -29.212   1.658  -3.358  1.00  0.00     0.011 C
ENDBRANCH  14  15
ENDBRANCH  13  14
BRANCH   1  18
HETATM   18  C2  UNL     1     -33.915   0.940  -3.061  1.00  0.00    -0.002 C
HETATM   19  C1  UNL     1     -34.708   1.939  -2.741  1.00  0.00     0.009 C
ENDBRANCH   1  18
BRANCH   9  20
HETATM   20  O3  UNL     1     -33.727  -3.691   0.851  1.00  0.00    -0.358 OA
ATOM     21  H3  UNL     1     -33.329  -4.169   0.134  1.00  0.00     0.213 HD
ENDBRANCH   9  20
BRANCH   7  22
HETATM   22  O1  UNL     1     -30.167  -3.751   2.636  1.00  0.00    -0.200 OA
BRANCH  22  23
HETATM   23  C9  UNL     1     -29.385  -4.827   2.178  1.00  0.00     0.277 C
HETATM   24  C10 UNL     1     -29.053  -5.996   3.032  1.00  0.00     0.128 C
HETATM   25  O2  UNL     1     -28.946  -4.808   0.997  1.00  0.00    -0.264 OA
ENDBRANCH  22  23
ENDBRANCH   7  22
TORSDOF 6
ENDMDL