MODEL 5
REMARK VINA RESULT: -5.884497825      1.169      1.795
REMARK  6 active torsions:
REMARK  status: ('A' for Active; 'I' for Inactive)
REMARK    1  A    between atoms: S1_2  and  C2_3
REMARK    2  A    between atoms: C2_3  and  O1_5
REMARK    3  A    between atoms: O1_5  and  C3_6
REMARK    4  A    between atoms: C3_6  and  N1_7
REMARK    5  A    between atoms: C3_6  and  C8_16
REMARK    6  A    between atoms: N1_7  and  C4_9
ROOT
HETATM    1  C3  UNL     1     -30.452  -1.060  -1.357  1.00  0.00     0.232 C
ENDROOT
BRANCH   1   2
HETATM    2  O1  UNL     1     -31.814  -1.463  -1.069  1.00  0.00    -0.309 OA
BRANCH   2   3
HETATM    3  C2  UNL     1     -32.319  -1.501   0.195  1.00  0.00     0.176 C
HETATM    4  S2  UNL     1     -33.861  -1.890   0.488  1.00  0.00    -0.045 SA
BRANCH   3   5
HETATM    5  S1  UNL     1     -31.266  -1.118   1.569  1.00  0.00    -0.098 SA
HETATM    6  C1  UNL     1     -30.849  -2.606   2.466  1.00  0.00     0.098 C
ENDBRANCH   3   5
ENDBRANCH   2   3
ENDBRANCH   1   2
BRANCH   1   7
HETATM    7  N1  UNL     1     -29.791  -2.207  -1.783  1.00  0.00    -0.391 N
ATOM      8  H1  UNL     1     -29.908  -2.501  -2.753  1.00  0.00     0.156 HD
BRANCH   7   9
HETATM    9  C4  UNL     1     -28.969  -2.981  -0.945  1.00  0.00     0.093 C
HETATM   10  C5  UNL     1     -29.633  -4.277  -0.616  1.00  0.00     0.040 C
HETATM   11  C6  UNL     1     -28.646  -5.374  -0.451  1.00  0.00     0.142 C
HETATM   12  S3  UNL     1     -27.532  -5.006  -1.788  1.00  0.00     0.146 S
HETATM   13  O2  UNL     1     -28.042  -5.525  -3.101  1.00  0.00    -0.228 OA
HETATM   14  O3  UNL     1     -26.143  -5.481  -1.498  1.00  0.00    -0.228 OA
HETATM   15  C7  UNL     1     -27.683  -3.237  -1.703  1.00  0.00     0.164 C
ENDBRANCH   7   9
ENDBRANCH   1   7
BRANCH   1  16
HETATM   16  C8  UNL     1     -30.594   0.087  -2.323  1.00  0.00    -0.007 C
HETATM   17  C9  UNL     1     -30.277   1.393  -1.572  1.00  0.00     0.019 C
HETATM   18  C10 UNL     1     -31.894   0.242  -2.998  1.00  0.00     0.019 C
HETATM   19  C11 UNL     1     -29.508  -0.005  -3.395  1.00  0.00     0.019 C
ENDBRANCH   1  16
TORSDOF 6
ENDMDL