MODEL 2
REMARK VINA RESULT: -6.380975592      2.526      5.375
REMARK  4 active torsions:
REMARK  status: ('A' for Active; 'I' for Inactive)
REMARK    1  A    between atoms: C13_15  and  O3_16
REMARK    2  A    between atoms: O3_16  and  C14_17
REMARK    3  A    between atoms: C14_17  and  C15_18
REMARK    4  A    between atoms: C15_18  and  O4_19
ROOT
HETATM    1  C1  UNL     1     -31.351   2.485  -1.578  1.00  0.00     0.043 C
HETATM    2  C2  UNL     1     -31.321   1.240  -0.745  1.00  0.00    -0.086 C
HETATM    3  C3  UNL     1     -32.456   0.778  -0.239  1.00  0.00    -0.024 C
HETATM    4  C4  UNL     1     -32.438  -0.432   0.572  1.00  0.00     0.027 C
HETATM    5  C5  UNL     1     -32.395  -0.197   2.057  1.00  0.00     0.004 C
HETATM    6  C6  UNL     1     -31.589  -1.222   2.779  1.00  0.00     0.001 C
HETATM    7  C7  UNL     1     -32.204  -2.555   2.909  1.00  0.00     0.008 C
HETATM    8  C8  UNL     1     -31.887  -3.525   1.803  1.00  0.00     0.087 C
HETATM    9  C9  UNL     1     -30.449  -3.853   1.745  1.00  0.00     0.195 C
HETATM   10  O1  UNL     1     -29.856  -3.959   2.873  1.00  0.00    -0.289 OA
HETATM   11  C10 UNL     1     -29.698  -4.054   0.523  1.00  0.00     0.203 C
HETATM   12  O2  UNL     1     -28.603  -4.676   0.618  1.00  0.00    -0.289 OA
HETATM   13  C11 UNL     1     -30.103  -3.596  -0.814  1.00  0.00     0.115 C
HETATM   14  C12 UNL     1     -30.241  -4.835  -1.705  1.00  0.00     0.023 C
HETATM   15  C13 UNL     1     -29.069  -2.717  -1.476  1.00  0.00     0.270 C
HETATM   16  O5  UNL     1     -28.965  -1.466  -0.943  1.00  0.00    -0.360 OA
HETATM   17  C16 UNL     1     -29.732  -0.498  -1.578  1.00  0.00     0.175 C
HETATM   18  C17 UNL     1     -30.015   0.569  -0.516  1.00  0.00     0.059 C
ENDROOT
BRANCH  15  19
HETATM   19  O3  UNL     1     -27.828  -3.359  -1.284  1.00  0.00    -0.358 OA
BRANCH  19  20
HETATM   20  C14 UNL     1     -27.182  -3.580  -2.490  1.00  0.00     0.197 C
BRANCH  20  21
HETATM   21  C15 UNL     1     -26.036  -4.531  -2.215  1.00  0.00     0.190 C
BRANCH  21  22
HETATM   22  O4  UNL     1     -26.480  -5.571  -1.397  1.00  0.00    -0.399 OA
ATOM     23  H4  UNL     1     -26.357  -6.400  -1.843  1.00  0.00     0.209 HD
ENDBRANCH  21  22
ENDBRANCH  20  21
ENDBRANCH  19  20
ENDBRANCH  15  19
TORSDOF 4
ENDMDL