MODEL 5
REMARK VINA RESULT: -6.620813414      1.938      2.589
REMARK  5 active torsions:
REMARK  status: ('A' for Active; 'I' for Inactive)
REMARK    1  A    between atoms: O1_2  and  C2_3
REMARK    2  A    between atoms: C3_6  and  N2_7
REMARK    3  A    between atoms: N2_7  and  N3_9
REMARK    4  A    between atoms: C7_15  and  C8_16
REMARK    5  A    between atoms: C8_16  and  O2_17
ROOT
HETATM    1  C8  UNL     1     -30.821  -3.439  -1.450  1.00  0.00     0.161 C
HETATM    2  N4  UNL     1     -29.525  -3.742  -1.224  1.00  0.00    -0.344 N
HETATM    3  C9  UNL     1     -28.447  -3.013  -0.695  1.00  0.00     0.126 C
HETATM    4  C10 UNL     1     -27.413  -2.668  -1.770  1.00  0.00     0.020 C
HETATM    5  C11 UNL     1     -26.989  -3.952  -2.473  1.00  0.00     0.004 C
HETATM    6  C12 UNL     1     -28.124  -4.858  -2.805  1.00  0.00     0.040 C
HETATM    7  C13 UNL     1     -29.075  -5.116  -1.684  1.00  0.00     0.193 C
HETATM    8  C14 UNL     1     -28.527  -5.783  -0.537  1.00  0.00     0.084 C
HETATM    9  N5  UNL     1     -28.094  -6.332   0.368  1.00  0.00    -0.195 NA
ENDROOT
BRANCH   1  10
HETATM   10  C7  UNL     1     -31.608  -2.229  -1.321  1.00  0.00     0.110 A
HETATM   11  C2  UNL     1     -32.775  -1.839  -0.759  1.00  0.00     0.165 A
HETATM   12  N1  UNL     1     -33.202  -0.612  -0.942  1.00  0.00    -0.315 N
HETATM   13  C3  UNL     1     -32.489   0.223  -1.670  1.00  0.00     0.166 A
ATOM     14  H1  UNL     1     -34.081  -0.307  -0.524  1.00  0.00     0.170 HD
HETATM   15  S1  UNL     1     -31.162  -0.707  -2.132  1.00  0.00    -0.044 SA
BRANCH  11  16
HETATM   16  O1  UNL     1     -33.528  -2.752   0.035  1.00  0.00    -0.340 OA
HETATM   17  C1  UNL     1     -33.368  -2.930   1.400  1.00  0.00     0.211 C
ENDBRANCH  11  16
BRANCH  13  18
HETATM   18  N2  UNL     1     -32.755   1.478  -1.961  1.00  0.00    -0.280 N
ATOM     19  H2  UNL     1     -33.455   1.731  -2.658  1.00  0.00     0.189 HD
BRANCH  18  20
HETATM   20  N3  UNL     1     -32.030   2.444  -1.263  1.00  0.00    -0.308 N
HETATM   21  C4  UNL     1     -32.559   3.583  -1.053  1.00  0.00    -0.004 C
HETATM   22  C5  UNL     1     -33.917   3.876  -1.538  1.00  0.00     0.064 C
HETATM   23  C6  UNL     1     -31.797   4.610  -0.315  1.00  0.00     0.064 C
ATOM     24  H3  UNL     1     -31.089   2.241  -0.924  1.00  0.00     0.186 HD
ENDBRANCH  18  20
ENDBRANCH  13  18
ENDBRANCH   1  10
BRANCH   1  25
HETATM   25  O2  UNL     1     -31.592  -4.462  -1.897  1.00  0.00    -0.345 OA
ATOM     26  H2  UNL     1     -31.916  -4.276  -2.771  1.00  0.00     0.219 HD
ENDBRANCH   1  25
TORSDOF 5
ENDMDL