MODEL 1
REMARK VINA RESULT: -6.286516987      0.000      0.000
REMARK  5 active torsions:
REMARK  status: ('A' for Active; 'I' for Inactive)
REMARK    1  A    between atoms: C2_2  and  O1_3
REMARK    2  A    between atoms: O1_3  and  C3_4
REMARK    3  A    between atoms: C3_4  and  C4_6
REMARK    4  A    between atoms: C5_7  and  C6_8
REMARK    5  A    between atoms: N1_10  and  O3_12
ROOT
HETATM    1  C4  UNL     1      -4.692   2.132  14.299  1.00  0.00     0.138 A
HETATM    2  C5  UNL     1      -3.777   3.285  14.115  1.00  0.00     0.090 A
HETATM    3  C8  UNL     1      -5.080   3.567  14.703  1.00  0.00     0.123 A
HETATM    4  C9  UNL     1      -6.289   4.056  13.979  1.00  0.00     0.053 C
HETATM    5  F1  UNL     1      -5.160   3.810  16.085  1.00  0.00    -0.242 F
ENDROOT
BRANCH   2   6
HETATM    6  C6  UNL     1      -3.344   3.602  12.765  1.00  0.00     0.014 C
HETATM    7  C7  UNL     1      -4.223   3.269  11.617  1.00  0.00     0.066 C
HETATM    8  N1  UNL     1      -2.215   4.136  12.538  1.00  0.00    -0.277 N
ATOM      9  H1  UNL     1      -1.967   4.337  11.569  1.00  0.00     0.193 HD
BRANCH   8  10
HETATM   10  O3  UNL     1      -1.312   4.459  13.508  1.00  0.00    -0.290 OA
ATOM     11  H3  UNL     1      -0.887   3.825  14.073  1.00  0.00     0.244 HD
ENDBRANCH   8  10
ENDBRANCH   2   6
BRANCH   1  12
HETATM   12  C3  UNL     1      -4.497   1.201  15.440  1.00  0.00     0.267 C
HETATM   13  O2  UNL     1      -3.372   1.033  15.972  1.00  0.00    -0.265 OA
BRANCH  12  14
HETATM   14  O1  UNL     1      -5.596   0.508  15.914  1.00  0.00    -0.321 OA
BRANCH  14  15
HETATM   15  C2  UNL     1      -6.218   0.796  17.156  1.00  0.00     0.174 C
HETATM   16  C1  UNL     1      -7.480   1.562  16.873  1.00  0.00     0.034 C
ENDBRANCH  14  15
ENDBRANCH  12  14
ENDBRANCH   1  12
TORSDOF 5
ENDMDL