MODEL 1
REMARK VINA RESULT: -6.239674279      0.000      0.000
REMARK  3 active torsions:
REMARK  status: ('A' for Active; 'I' for Inactive)
REMARK    1  A    between atoms: N2_4  and  O1_6
REMARK    2  A    between atoms: O1_6  and  C3_7
REMARK    3  A    between atoms: C3_7  and  C4_8
ROOT
HETATM    1  C4  UNL     1      -4.768   1.823  15.631  1.00  0.00     0.008 C
HETATM    2  C5  UNL     1      -3.724   2.952  15.643  1.00  0.00     0.020 C
HETATM    3  C6  UNL     1      -5.999   2.396  15.019  1.00  0.00     0.046 C
HETATM    4  C7  UNL     1      -6.721   2.897  16.273  1.00  0.00     0.122 C
HETATM    5  C8  UNL     1      -7.552   1.752  16.784  1.00  0.00     0.034 C
HETATM    6  C9  UNL     1      -6.436   0.805  17.225  1.00  0.00     0.035 C
HETATM    7  C10 UNL     1      -5.192   1.620  17.045  1.00  0.00     0.132 C
HETATM    8  O2  UNL     1      -5.723   2.921  17.278  1.00  0.00    -0.380 OA
ENDROOT
BRANCH   1   9
HETATM    9  C3  UNL     1      -4.159   0.669  14.937  1.00  0.00     0.213 C
BRANCH   9  10
HETATM   10  O1  UNL     1      -4.823   0.167  13.850  1.00  0.00    -0.279 OA
BRANCH  10  11
HETATM   11  N2  UNL     1      -4.306   0.002  12.638  1.00  0.00    -0.257 N
HETATM   12  C2  UNL     1      -4.511   0.647  11.573  1.00  0.00     0.109 C
HETATM   13  C1  UNL     1      -3.780   0.241  10.321  1.00  0.00     0.087 C
HETATM   14  N1  UNL     1      -5.392   1.744  11.452  1.00  0.00    -0.086 NA
ATOM     15  H2  UNL     1      -3.639  -0.765  12.555  1.00  0.00     0.195 HD
ENDBRANCH  10  11
ENDBRANCH   9  10
ENDBRANCH   1   9
TORSDOF 3
ENDMDL