MODEL 5
REMARK VINA RESULT: -6.023569610      1.506      1.771
REMARK  4 active torsions:
REMARK  status: ('A' for Active; 'I' for Inactive)
REMARK    1  A    between atoms: N1_1  and  N2_4
REMARK    2  A    between atoms: N3_6  and  C1_8
REMARK    3  A    between atoms: C1_8  and  C2_9
REMARK    4  A    between atoms: C2_9  and  C3_10
ROOT
HETATM    1  C1  UNL     1      -4.582   2.378  13.845  1.00  0.00     0.212 C
HETATM    2  O3  UNL     1      -4.722   1.116  13.273  1.00  0.00    -0.314 OA
HETATM    3  C4  UNL     1      -4.403   1.181  11.952  1.00  0.00     0.320 C
HETATM    4  F1  UNL     1      -4.608  -0.060  11.398  1.00  0.00    -0.219 F
HETATM    5  C5  UNL     1      -5.343   2.149  11.264  1.00  0.00     0.144 C
HETATM    6  S1  UNL     1      -5.618   3.328  12.652  1.00  0.00    -0.102 SA
ENDROOT
BRANCH   1   7
HETATM    7  N3  UNL     1      -3.266   2.903  13.754  1.00  0.00    -0.278 N
HETATM    8  N2  UNL     1      -2.910   3.999  14.190  1.00  0.00    -0.251 N
ATOM      9  H2  UNL     1      -2.644   3.794  15.153  1.00  0.00     0.207 HD
ATOM     10  H3  UNL     1      -2.561   2.328  13.292  1.00  0.00     0.186 HD
BRANCH   8  11
HETATM   11  N1  UNL     1      -2.700   5.227  14.089  1.00  0.00    -0.331 N
ATOM     12  H12 UNL     1      -3.188   5.435  13.217  1.00  0.00     0.178 HD
ATOM     13  H11 UNL     1      -2.309   6.114  14.406  1.00  0.00     0.178 HD
ENDBRANCH   8  11
ENDBRANCH   1   7
BRANCH   1  14
HETATM   14  C2  UNL     1      -5.209   2.478  15.188  1.00  0.00     0.188 C
BRANCH  14  15
HETATM   15  C3  UNL     1      -4.518   1.657  16.213  1.00  0.00     0.178 C
HETATM   16  O1  UNL     1      -3.269   1.461  16.204  1.00  0.00    -0.648 OA
HETATM   17  O2  UNL     1      -5.218   1.046  17.264  1.00  0.00    -0.648 OA
ENDBRANCH  14  15
ENDBRANCH   1  14
TORSDOF 4
ENDMDL