MODEL 1
REMARK VINA RESULT: -6.940417861      0.000      0.000
REMARK  6 active torsions:
REMARK  status: ('A' for Active; 'I' for Inactive)
REMARK    1  A    between atoms: C2_2  and  C4_4
REMARK    2  A    between atoms: C4_4  and  C5_5
REMARK    3  A    between atoms: C5_5  and  O2_7
REMARK    4  A    between atoms: O2_7  and  N1_8
REMARK    5  A    between atoms: C6_10  and  O3_11
REMARK    6  A    between atoms: C6_10  and  C7_13
ROOT
HETATM    1  N1  UNL     1      -4.300   0.311  14.064  1.00  0.00    -0.236 N
ATOM      2  H1  UNL     1      -3.745  -0.543  13.993  1.00  0.00     0.197 HD
HETATM    3  C6  UNL     1      -4.327   1.121  13.062  1.00  0.00     0.177 C
ENDROOT
BRANCH   1   4
HETATM    4  O2  UNL     1      -4.985   0.554  15.217  1.00  0.00    -0.197 OA
BRANCH   4   5
HETATM    5  C5  UNL     1      -4.453   1.363  16.228  1.00  0.00     0.285 C
HETATM    6  O1  UNL     1      -3.258   1.699  16.232  1.00  0.00    -0.263 OA
BRANCH   5   7
HETATM    7  C4  UNL     1      -5.375   1.803  17.296  1.00  0.00     0.146 C
BRANCH   7   8
HETATM    8  C2  UNL     1      -6.638   2.298  16.728  1.00  0.00    -0.084 C
HETATM    9  C1  UNL     1      -7.735   1.584  16.797  1.00  0.00     0.014 C
HETATM   10  C3  UNL     1      -6.679   3.626  16.066  1.00  0.00     0.043 C
ENDBRANCH   7   8
ENDBRANCH   5   7
ENDBRANCH   4   5
ENDBRANCH   1   4
BRANCH   3  11
HETATM   11  O3  UNL     1      -5.097   2.282  13.190  1.00  0.00    -0.346 OA
ATOM     12  H3  UNL     1      -5.285   2.774  12.400  1.00  0.00     0.219 HD
ENDBRANCH   3  11
BRANCH   3  13
HETATM   13  C7  UNL     1      -3.616   0.915  11.804  1.00  0.00     0.169 C
HETATM   14  F1  UNL     1      -2.441   1.634  11.664  1.00  0.00    -0.234 F
HETATM   15  C8  UNL     1      -4.549   1.120  10.605  1.00  0.00     0.052 C
HETATM   16  C9  UNL     1      -3.769  -0.001   9.931  1.00  0.00     0.007 C
HETATM   17  C10 UNL     1      -3.463  -0.505  11.331  1.00  0.00     0.052 C
ENDBRANCH   3  13
TORSDOF 6
ENDMDL