MODEL 3
REMARK VINA RESULT: -5.091800901      3.934      5.041
REMARK  4 active torsions:
REMARK  status: ('A' for Active; 'I' for Inactive)
REMARK    1  A    between atoms: C2_2  and  C4_4
REMARK    2  A    between atoms: N1_8  and  C7_9
REMARK    3  A    between atoms: C7_9  and  C8_10
REMARK    4  A    between atoms: N2_12  and  O1_13
ROOT
HETATM    1  C4  UNL     1      -4.496   3.042  12.111  1.00  0.00     0.144 C
HETATM    2  C5  UNL     1      -4.708   4.358  11.346  1.00  0.00     0.060 C
HETATM    3  S1  UNL     1      -2.705   2.712  12.021  1.00  0.00    -0.108 SA
HETATM    4  C6  UNL     1      -2.904   1.420  10.738  1.00  0.00     0.221 C
HETATM    5  N1  UNL     1      -4.250   1.049  10.954  1.00  0.00    -0.293 N
HETATM    6  N2  UNL     1      -5.052   2.005  11.353  1.00  0.00    -0.178 N
ENDROOT
BRANCH   1   7
HETATM    7  C2  UNL     1      -4.943   3.140  13.502  1.00  0.00    -0.051 C
HETATM    8  C1  UNL     1      -5.780   4.096  13.853  1.00  0.00     0.017 C
HETATM    9  C3  UNL     1      -4.481   2.187  14.543  1.00  0.00     0.046 C
ENDBRANCH   1   7
BRANCH   6  10
HETATM   10  O1  UNL     1      -6.200   2.233  10.735  1.00  0.00    -0.271 OA
ATOM     11  H1  UNL     1      -6.937   2.528  11.257  1.00  0.00     0.246 HD
ENDBRANCH   6  10
BRANCH   5  12
HETATM   12  C7  UNL     1      -4.359  -0.247  11.543  1.00  0.00     0.177 C
BRANCH  12  13
HETATM   13  C8  UNL     1      -3.153  -1.118  11.283  1.00  0.00     0.243 C
HETATM   14  F1  UNL     1      -3.557  -2.440  11.259  1.00  0.00    -0.254 F
ENDBRANCH  12  13
ENDBRANCH   5  12
TORSDOF 4
ENDMDL