MODEL 2
REMARK VINA RESULT: -6.392817523      2.018      3.837
REMARK  3 active torsions:
REMARK  status: ('A' for Active; 'I' for Inactive)
REMARK    1  A    between atoms: C2_2  and  N1_3
REMARK    2  A    between atoms: N1_3  and  N2_4
REMARK    3  A    between atoms: N1_3  and  N4_14
ROOT
HETATM    1  N2  UNL     1      -3.568   2.615  13.427  1.00  0.00    -0.268 N
ATOM      2  H2  UNL     1      -2.695   2.745  12.917  1.00  0.00     0.190 HD
HETATM    3  C3  UNL     1      -4.301   3.619  13.735  1.00  0.00     0.095 C
HETATM    4  C4  UNL     1      -5.593   3.514  14.480  1.00  0.00     0.078 C
HETATM    5  C5  UNL     1      -6.557   4.485  13.893  1.00  0.00     0.012 C
HETATM    6  C6  UNL     1      -6.035   5.854  13.651  1.00  0.00     0.059 C
HETATM    7  C7  UNL     1      -4.567   6.032  13.948  1.00  0.00     0.270 C
HETATM    8  F1  UNL     1      -4.323   6.109  15.319  1.00  0.00    -0.227 F
HETATM    9  N3  UNL     1      -3.868   4.915  13.350  1.00  0.00    -0.348 N
ATOM     10  H3  UNL     1      -3.105   5.052  12.688  1.00  0.00     0.163 HD
ENDROOT
BRANCH   1  11
HETATM   11  N1  UNL     1      -3.988   1.337  13.802  1.00  0.00    -0.173 N
BRANCH  11  12
HETATM   12  C2  UNL     1      -4.330   0.414  12.754  1.00  0.00     0.171 C
HETATM   13  C1  UNL     1      -3.383   0.616  11.600  1.00  0.00     0.030 C
ENDBRANCH  11  12
BRANCH  11  14
HETATM   14  N4  UNL     1      -4.084   0.931  15.132  1.00  0.00    -0.021 N
HETATM   15  O1  UNL     1      -3.302   1.273  16.026  1.00  0.00    -0.515 OA
HETATM   16  O2  UNL     1      -5.139   0.087  15.443  1.00  0.00    -0.515 OA
ENDBRANCH  11  14
ENDBRANCH   1  11
TORSDOF 3
ENDMDL