MODEL 3
REMARK VINA RESULT: -5.650733947      2.727      5.018
REMARK  3 active torsions:
REMARK  status: ('A' for Active; 'I' for Inactive)
REMARK    1  A    between atoms: C3_4  and  C4_5
REMARK    2  A    between atoms: C4_5  and  O1_6
REMARK    3  A    between atoms: N1_8  and  C5_10
ROOT
HETATM    1  C4  UNL     1      -4.933   1.816  11.731  1.00  0.00     0.137 C
HETATM    2  N1  UNL     1      -4.681   2.385  12.868  1.00  0.00    -0.364 N
ATOM      3  H1  UNL     1      -4.288   1.847  13.640  1.00  0.00     0.162 HD
ENDROOT
BRANCH   2   4
HETATM    4  C5  UNL     1      -4.962   3.789  13.026  1.00  0.00     0.117 C
HETATM    5  C6  UNL     1      -3.905   4.335  13.992  1.00  0.00     0.204 C
HETATM    6  O2  UNL     1      -4.287   3.681  15.191  1.00  0.00    -0.319 OA
HETATM    7  C7  UNL     1      -5.675   3.660  15.234  1.00  0.00     0.260 C
HETATM    8  O3  UNL     1      -6.440   3.475  16.210  1.00  0.00    -0.265 OA
HETATM    9  C8  UNL     1      -6.224   3.909  13.852  1.00  0.00     0.138 C
ENDBRANCH   2   4
BRANCH   1  10
HETATM   10  C3  UNL     1      -4.637   0.412  11.613  1.00  0.00     0.074 C
HETATM   11  C2  UNL     1      -3.425  -0.008  11.347  1.00  0.00     0.012 C
HETATM   12  C1  UNL     1      -3.141  -1.490  11.228  1.00  0.00     0.062 C
HETATM   13 CL1  UNL     1      -2.150   1.156  11.132  1.00  0.00    -0.089 Cl
ENDBRANCH   1  10
BRANCH   1  14
HETATM   14  O1  UNL     1      -5.476   2.585  10.684  1.00  0.00    -0.346 OA
ATOM     15  H1  UNL     1      -5.934   3.406  10.821  1.00  0.00     0.219 HD
ENDBRANCH   1  14
TORSDOF 3
ENDMDL