MODEL 1
REMARK VINA RESULT: -6.826778163      0.000      0.000
REMARK  4 active torsions:
REMARK  status: ('A' for Active; 'I' for Inactive)
REMARK    1  A    between atoms: C2_2  and  C3_3
REMARK    2  A    between atoms: C3_3  and  N1_4
REMARK       I    between atoms: N1_4  and  C4_6
REMARK    3  A    between atoms: C4_6  and  O2_8
REMARK    4  A    between atoms: O2_8  and  C5_9
ROOT
HETATM    1  C5  UNL     1      -4.234   1.721  13.208  1.00  0.00     0.181 C
HETATM    2 CL1  UNL     1      -4.673   3.361  13.567  1.00  0.00    -0.054 Cl
HETATM    3  C6  UNL     1      -4.128   1.326  11.968  1.00  0.00     0.170 C
HETATM    4  C7  UNL     1      -4.376   2.250  10.872  1.00  0.00     0.114 C
HETATM    5  N2  UNL     1      -4.584   2.981   9.998  1.00  0.00    -0.190 NA
HETATM    6  C8  UNL     1      -3.769  -0.019  11.617  1.00  0.00     0.114 C
HETATM    7  N3  UNL     1      -3.479  -1.112  11.351  1.00  0.00    -0.190 NA
ENDROOT
BRANCH   1   8
HETATM    8  O2  UNL     1      -3.999   0.842  14.234  1.00  0.00    -0.247 OA
BRANCH   8   9
HETATM    9  C4  UNL     1      -4.235   1.066  15.563  1.00  0.00     0.366 C
HETATM   10  N1  UNL     1      -5.538   0.859  16.147  1.00  0.00    -0.333 N
ATOM     11  H1  UNL     1      -6.305   0.538  15.557  1.00  0.00     0.165 HD
HETATM   12  O1  UNL     1      -3.263   1.466  16.273  1.00  0.00    -0.238 OA
BRANCH  10  13
HETATM   13  C3  UNL     1      -5.772   1.094  17.524  1.00  0.00     0.151 C
BRANCH  13  14
HETATM   14  C2  UNL     1      -6.512   2.316  17.812  1.00  0.00    -0.018 C
HETATM   15  C1  UNL     1      -6.934   3.171  16.917  1.00  0.00     0.008 C
ENDBRANCH  13  14
ENDBRANCH  10  13
ENDBRANCH   8   9
ENDBRANCH   1   8
TORSDOF 4
ENDMDL