MODEL 5
REMARK VINA RESULT: -4.734849906      2.167      4.239
REMARK  4 active torsions:
REMARK  status: ('A' for Active; 'I' for Inactive)
REMARK       I    between atoms: C2_2  and  N1_4
REMARK    1  A    between atoms: N1_4  and  C3_6
REMARK    2  A    between atoms: C3_6  and  C4_7
REMARK    3  A    between atoms: C4_7  and  S1_8
REMARK    4  A    between atoms: S1_8  and  C5_9
ROOT
HETATM    1  C4  UNL     1      -5.388   3.448  13.528  1.00  0.00     0.101 C
ENDROOT
BRANCH   1   2
HETATM    2  C3  UNL     1      -4.011   2.856  13.672  1.00  0.00     0.133 C
BRANCH   2   3
HETATM    3  N1  UNL     1      -3.824   1.786  12.751  1.00  0.00    -0.361 N
HETATM    4  C2  UNL     1      -4.209   0.441  12.999  1.00  0.00     0.213 C
HETATM    5  C1  UNL     1      -4.005  -0.650  12.022  1.00  0.00     0.117 C
HETATM    6  O1  UNL     1      -4.748   0.155  14.098  1.00  0.00    -0.274 OA
ATOM      7  H1  UNL     1      -3.385   1.999  11.855  1.00  0.00     0.162 HD
ENDBRANCH   2   3
ENDBRANCH   1   2
BRANCH   1   8
HETATM    8  S1  UNL     1      -6.112   3.961  15.072  1.00  0.00    -0.103 SA
BRANCH   8   9
HETATM    9  C5  UNL     1      -6.111   2.540  16.227  1.00  0.00     0.113 A
HETATM   10  N2  UNL     1      -5.092   2.020  16.761  1.00  0.00    -0.349 N
HETATM   11  C6  UNL     1      -5.814   1.071  17.454  1.00  0.00     0.142 A
ATOM     12  H2  UNL     1      -4.095   2.227  16.701  1.00  0.00     0.167 HD
HETATM   13  S2  UNL     1      -7.421   1.554  16.894  1.00  0.00    -0.060 SA
ENDBRANCH   8   9
ENDBRANCH   1   8
TORSDOF 4
ENDMDL