MODEL 1
REMARK VINA RESULT: -5.472451932      0.000      0.000
REMARK  6 active torsions:
REMARK  status: ('A' for Active; 'I' for Inactive)
REMARK    1  A    between atoms: C1_2  and  C2_4
REMARK    2  A    between atoms: C2_4  and  C3_5
REMARK    3  A    between atoms: C3_5  and  S1_6
REMARK    4  A    between atoms: S1_6  and  C4_7
REMARK    5  A    between atoms: C4_7  and  S2_9
REMARK    6  A    between atoms: S2_9  and  C5_10
ROOT
HETATM    1  S1  UNL     1      -4.360   2.573  15.000  1.00  0.00    -0.080 SA
ENDROOT
BRANCH   1   2
HETATM    2  C3  UNL     1      -6.081   3.028  15.345  1.00  0.00     0.092 C
BRANCH   2   3
HETATM    3  C2  UNL     1      -6.439   2.859  16.790  1.00  0.00     0.110 C
BRANCH   3   4
HETATM    4  C1  UNL     1      -6.463   1.416  17.125  1.00  0.00     0.231 C
HETATM    5  N1  UNL     1      -5.457   0.905  17.983  1.00  0.00    -0.062 NA
HETATM    6  O1  UNL     1      -7.356   0.675  16.654  1.00  0.00    -0.277 OA
ENDBRANCH   3   4
ENDBRANCH   2   3
ENDBRANCH   1   2
BRANCH   1   7
HETATM    7  C4  UNL     1      -4.379   1.027  14.125  1.00  0.00     0.247 C
HETATM    8  O2  UNL     1      -4.728  -0.009  14.646  1.00  0.00    -0.273 OA
BRANCH   7   9
HETATM    9  S2  UNL     1      -3.872   0.979  12.422  1.00  0.00    -0.066 SA
BRANCH   9  10
HETATM   10  C5  UNL     1      -4.415  -0.575  11.674  1.00  0.00     0.197 C
HETATM   11 CL1  UNL     1      -3.000  -1.630  11.421  1.00  0.00    -0.119 Cl
ENDBRANCH   9  10
ENDBRANCH   7   9
ENDBRANCH   1   7
TORSDOF 6
ENDMDL