MODEL 3
REMARK VINA RESULT: -6.449010162      1.040      5.906
REMARK  5 active torsions:
REMARK  status: ('A' for Active; 'I' for Inactive)
REMARK    1  A    between atoms: C5_5  and  N1_6
REMARK    2  A    between atoms: N1_6  and  C6_9
REMARK    3  A    between atoms: C6_9  and  C7_10
REMARK    4  A    between atoms: C7_10  and  C8_11
REMARK    5  A    between atoms: C8_11  and  N2_12
ROOT
HETATM    1  N1  UNL     1      -4.061   3.427  13.201  1.00  0.00    -0.071 N
ATOM      2  H11 UNL     1      -3.115   3.370  13.578  1.00  0.00     0.277 HD
ATOM      3  H12 UNL     1      -4.524   2.794  13.854  1.00  0.00     0.277 HD
ENDROOT
BRANCH   1   4
HETATM    4  C5  UNL     1      -4.129   2.929  11.810  1.00  0.00     0.185 C
HETATM    5  C4  UNL     1      -2.772   3.111  11.253  1.00  0.00     0.033 C
HETATM    6  C3  UNL     1      -2.188   2.000  10.455  1.00  0.00     0.002 C
HETATM    7  C2  UNL     1      -2.222   0.685  11.207  1.00  0.00     0.000 C
HETATM    8  C1  UNL     1      -3.396  -0.165  10.739  1.00  0.00     0.000 C
HETATM    9  C15 UNL     1      -4.582   0.784  10.587  1.00  0.00     0.002 C
HETATM   10  C14 UNL     1      -4.660   1.542  11.888  1.00  0.00     0.033 C
ENDBRANCH   1   4
BRANCH   1  11
HETATM   11  C6  UNL     1      -4.592   4.765  13.286  1.00  0.00     0.234 C
BRANCH  11  12
HETATM   12  C7  UNL     1      -5.758   4.910  14.229  1.00  0.00     0.057 C
BRANCH  12  13
HETATM   13  C8  UNL     1      -5.923   3.529  14.884  1.00  0.00     0.274 C
BRANCH  13  14
HETATM   14  N2  UNL     1      -5.573   3.572  16.272  1.00  0.00     0.088 N
HETATM   15  C9  UNL     1      -4.602   2.516  16.541  1.00  0.00     0.272 C
HETATM   16  C10 UNL     1      -5.171   1.173  16.190  1.00  0.00     0.030 C
HETATM   17  C11 UNL     1      -6.324   0.907  17.140  1.00  0.00     0.003 C
HETATM   18  C12 UNL     1      -7.342   1.998  16.987  1.00  0.00     0.030 C
HETATM   19  C13 UNL     1      -6.748   3.366  17.120  1.00  0.00     0.272 C
ENDBRANCH  13  14
ENDBRANCH  12  13
ENDBRANCH  11  12
ENDBRANCH   1  11
TORSDOF 5
ENDMDL