MODEL 3
REMARK VINA RESULT: -5.561659294      1.731      5.197
REMARK  5 active torsions:
REMARK  status: ('A' for Active; 'I' for Inactive)
REMARK    1  A    between atoms: C2_2  and  C3_3
REMARK    2  A    between atoms: C10_11  and  C11_12
REMARK    3  A    between atoms: C11_12  and  C12_13
REMARK    4  A    between atoms: C12_13  and  C13_14
REMARK    5  A    between atoms: C13_14  and  N2_15
ROOT
HETATM    1  C3  UNL     1      -5.106   2.637  15.908  1.00  0.00    -0.023 C
HETATM    2  C4  UNL     1      -3.607   2.570  16.153  1.00  0.00     0.017 C
HETATM    3  C5  UNL     1      -5.697   3.439  17.015  1.00  0.00     0.016 C
HETATM    4  C6  UNL     1      -6.816   4.349  16.587  1.00  0.00     0.045 C
HETATM    5  C7  UNL     1      -6.448   5.163  15.374  1.00  0.00     0.058 C
HETATM    6  N1  UNL     1      -5.693   4.504  14.409  1.00  0.00    -0.388 N
HETATM    7  C8  UNL     1      -4.575   5.185  13.850  1.00  0.00     0.123 C
HETATM    8  C9  UNL     1      -3.859   4.166  12.996  1.00  0.00     0.026 C
HETATM    9  C10 UNL     1      -4.355   2.855  13.527  1.00  0.00     0.011 C
HETATM   10  C15 UNL     1      -5.442   3.132  14.529  1.00  0.00     0.095 C
ENDROOT
BRANCH   9  11
HETATM   11  C11 UNL     1      -4.843   1.987  12.385  1.00  0.00     0.008 C
BRANCH  11  12
HETATM   12  C12 UNL     1      -4.037   0.709  12.340  1.00  0.00     0.028 C
BRANCH  12  13
HETATM   13  C13 UNL     1      -3.123   0.738  11.119  1.00  0.00     0.231 C
BRANCH  13  14
HETATM   14  N2  UNL     1      -1.850   1.355  11.448  1.00  0.00    -0.079 N
HETATM   15  C14 UNL     1      -1.624   2.429  10.505  1.00  0.00     0.266 C
ATOM     16  H22 UNL     1      -1.797   1.661  12.419  1.00  0.00     0.276 HD
ATOM     17  H21 UNL     1      -1.081   0.685  11.476  1.00  0.00     0.276 HD
ENDBRANCH  13  14
ENDBRANCH  12  13
ENDBRANCH  11  12
ENDBRANCH   9  11
BRANCH   1  18
HETATM   18  C2  UNL     1      -5.587   1.183  16.007  1.00  0.00     0.007 C
HETATM   19  C1  UNL     1      -5.987   0.829  17.404  1.00  0.00     0.006 C
ENDBRANCH   1  18
TORSDOF 5
ENDMDL