MODEL 1
REMARK VINA RESULT: -6.663022951      0.000      0.000
REMARK  5 active torsions:
REMARK  status: ('A' for Active; 'I' for Inactive)
REMARK    1  A    between atoms: C2_2  and  C3_3
REMARK    2  A    between atoms: C3_3  and  N1_4
REMARK    3  A    between atoms: C7_8  and  C8_9
REMARK    4  A    between atoms: C8_9  and  N2_10
REMARK    5  A    between atoms: N2_10  and  C9_12
ROOT
HETATM    1  C8  UNL     1      -4.622   3.155  12.105  1.00  0.00     0.134 C
ENDROOT
BRANCH   1   2
HETATM    2  C7  UNL     1      -3.185   2.742  12.295  1.00  0.00     0.079 C
HETATM    3  N1  UNL     1      -2.849   1.447  11.863  1.00  0.00    -0.287 NA
HETATM    4  C4  UNL     1      -1.615   1.516  11.125  1.00  0.00     0.095 C
HETATM    5  C5  UNL     1      -1.663   2.908  10.536  1.00  0.00     0.017 C
HETATM    6  C6  UNL     1      -2.212   3.718  11.689  1.00  0.00     0.023 C
BRANCH   3   7
HETATM    7  C3  UNL     1      -3.803   0.669  11.177  1.00  0.00     0.059 C
BRANCH   7   8
HETATM    8  C2  UNL     1      -3.915  -0.682  11.747  1.00  0.00     0.001 C
HETATM    9  C1  UNL     1      -3.200  -1.696  11.368  1.00  0.00     0.012 C
ENDBRANCH   7   8
ENDBRANCH   3   7
ENDBRANCH   1   2
BRANCH   1  10
HETATM   10  N2  UNL     1      -5.411   2.977  13.291  1.00  0.00    -0.416 N
ATOM     11  H2  UNL     1      -6.400   2.726  13.252  1.00  0.00     0.153 HD
BRANCH  10  12
HETATM   12  C9  UNL     1      -4.732   3.171  14.523  1.00  0.00     0.077 C
HETATM   13  C10 UNL     1      -4.927   4.588  15.006  1.00  0.00     0.024 C
HETATM   14  C11 UNL     1      -6.271   4.837  15.607  1.00  0.00     0.002 C
HETATM   15  C12 UNL     1      -6.544   3.882  16.746  1.00  0.00     0.004 C
HETATM   16  C13 UNL     1      -6.521   2.492  16.145  1.00  0.00    -0.017 C
HETATM   17  C14 UNL     1      -6.857   1.493  17.205  1.00  0.00     0.010 C
HETATM   18  C15 UNL     1      -5.130   2.223  15.618  1.00  0.00     0.029 C
ENDBRANCH  10  12
ENDBRANCH   1  10
TORSDOF 5
ENDMDL