MODEL 1
REMARK VINA RESULT: -6.899610245      0.000      0.000
REMARK  5 active torsions:
REMARK  status: ('A' for Active; 'I' for Inactive)
REMARK    1  A    between atoms: N1_2  and  C2_5
REMARK    2  A    between atoms: C2_5  and  C3_6
REMARK    3  A    between atoms: C7_10  and  C8_11
REMARK    4  A    between atoms: C8_11  and  C9_12
REMARK    5  A    between atoms: C9_12  and  C10_13
ROOT
HETATM    1  C3  UNL     1      -2.335   2.345  10.966  1.00  0.00     0.147 C
HETATM    2  C4  UNL     1      -2.236   0.856  11.195  1.00  0.00     0.034 C
HETATM    3  C5  UNL     1      -3.562   0.152  11.065  1.00  0.00     0.005 C
HETATM    4  C6  UNL     1      -4.632   1.074  11.600  1.00  0.00     0.032 C
HETATM    5  C7  UNL     1      -3.971   2.077  12.526  1.00  0.00     0.122 C
HETATM    6  O1  UNL     1      -3.236   2.982  11.778  1.00  0.00    -0.379 OA
ENDROOT
BRANCH   5   7
HETATM    7  C8  UNL     1      -5.008   2.770  13.383  1.00  0.00     0.032 C
BRANCH   7   8
HETATM    8  C9  UNL     1      -4.321   3.325  14.610  1.00  0.00     0.007 C
BRANCH   8   9
HETATM    9  C10 UNL     1      -5.068   2.992  15.876  1.00  0.00    -0.014 C
HETATM   10  C11 UNL     1      -6.432   3.593  15.932  1.00  0.00     0.004 C
HETATM   11  C12 UNL     1      -6.883   3.620  17.379  1.00  0.00     0.000 C
HETATM   12  C13 UNL     1      -6.147   2.574  18.165  1.00  0.00     0.000 C
HETATM   13  C14 UNL     1      -6.000   1.290  17.359  1.00  0.00     0.000 C
HETATM   14  C15 UNL     1      -5.180   1.511  16.113  1.00  0.00     0.004 C
ENDBRANCH   8   9
ENDBRANCH   7   8
ENDBRANCH   5   7
BRANCH   1  15
HETATM   15  C2  UNL     1      -0.929   2.906  11.094  1.00  0.00     0.263 C
BRANCH  15  16
HETATM   16  N1  UNL     1      -0.801   3.699  12.321  1.00  0.00    -0.077 N
HETATM   17  C1  UNL     1      -0.507   5.053  11.943  1.00  0.00     0.267 C
ATOM     18  H12 UNL     1      -0.116   3.314  12.971  1.00  0.00     0.276 HD
ATOM     19  H11 UNL     1      -1.619   3.626  12.925  1.00  0.00     0.276 HD
ENDBRANCH  15  16
ENDBRANCH   1  15
TORSDOF 5
ENDMDL