MODEL 4
REMARK VINA RESULT: -6.288582539      1.511      5.307
REMARK  6 active torsions:
REMARK  status: ('A' for Active; 'I' for Inactive)
REMARK    1  A    between atoms: N1_2  and  C3_4
REMARK    2  A    between atoms: C3_4  and  C4_5
REMARK    3  A    between atoms: C3_4  and  C10_14
REMARK    4  A    between atoms: C4_5  and  N2_6
REMARK    5  A    between atoms: N2_6  and  C5_9
REMARK    6  A    between atoms: C5_9  and  C6_10
ROOT
HETATM    1  C3  UNL     1      -4.240   3.877  12.446  1.00  0.00     0.251 C
ENDROOT
BRANCH   1   2
HETATM    2  N1  UNL     1      -3.583   4.890  11.716  1.00  0.00     0.086 N
HETATM    3  C1  UNL     1      -4.463   5.624  10.805  1.00  0.00     0.310 C
HETATM    4  C2  UNL     1      -2.820   5.825  12.507  1.00  0.00     0.310 C
ENDBRANCH   1   2
BRANCH   1   5
HETATM    5  C4  UNL     1      -4.383   3.980  13.908  1.00  0.00     0.268 C
BRANCH   5   6
HETATM    6  N2  UNL     1      -3.913   2.868  14.696  1.00  0.00    -0.073 N
ATOM      7  H22 UNL     1      -4.114   1.973  14.251  1.00  0.00     0.277 HD
ATOM      8  H21 UNL     1      -2.895   2.807  14.701  1.00  0.00     0.277 HD
BRANCH   6   9
HETATM    9  C5  UNL     1      -4.470   2.947  16.060  1.00  0.00     0.237 C
BRANCH   9  10
HETATM   10  C6  UNL     1      -5.809   2.282  16.019  1.00  0.00     0.011 C
HETATM   11  C7  UNL     1      -6.903   2.964  16.816  1.00  0.00     0.006 C
HETATM   12  C8  UNL     1      -7.424   1.556  17.136  1.00  0.00     0.001 C
HETATM   13  C9  UNL     1      -5.959   1.116  17.006  1.00  0.00     0.006 C
ENDBRANCH   9  10
ENDBRANCH   6   9
ENDBRANCH   5   6
ENDBRANCH   1   5
BRANCH   1  14
HETATM   14  C10 UNL     1      -3.974   2.520  11.907  1.00  0.00     0.021 C
HETATM   15  C11 UNL     1      -4.970   1.863  11.046  1.00  0.00     0.007 C
HETATM   16  C12 UNL     1      -4.617   0.378  11.009  1.00  0.00     0.000 C
HETATM   17  C13 UNL     1      -3.219   0.059  10.703  1.00  0.00     0.000 C
HETATM   18  C14 UNL     1      -2.192   1.058  11.116  1.00  0.00     0.000 C
HETATM   19  C15 UNL     1      -2.644   2.469  11.140  1.00  0.00     0.007 C
ENDBRANCH   1  14
TORSDOF 6
ENDMDL