MODEL 4
REMARK VINA RESULT: -5.843341687      1.655      4.838
REMARK  5 active torsions:
REMARK  status: ('A' for Active; 'I' for Inactive)
REMARK    1  A    between atoms: C2_2  and  C3_3
REMARK    2  A    between atoms: C3_3  and  C4_4
REMARK    3  A    between atoms: C3_3  and  C6_6
REMARK    4  A    between atoms: C6_6  and  N1_7
REMARK    5  A    between atoms: C11_12  and  C12_13
ROOT
HETATM    1  N1  UNL     1      -3.543   4.503  13.536  1.00  0.00    -0.388 N
HETATM    2  C7  UNL     1      -3.524   5.915  13.374  1.00  0.00     0.122 C
HETATM    3  C8  UNL     1      -4.646   6.277  12.424  1.00  0.00     0.020 C
HETATM    4  C9  UNL     1      -4.485   5.412  11.199  1.00  0.00     0.004 C
HETATM    5  C10 UNL     1      -3.237   4.576  11.199  1.00  0.00     0.026 C
HETATM    6  C11 UNL     1      -3.093   3.734  12.482  1.00  0.00     0.089 C
ENDROOT
BRANCH   6   7
HETATM    7  C12 UNL     1      -3.665   2.409  12.181  1.00  0.00     0.036 C
HETATM    8  C13 UNL     1      -2.906   1.550  11.211  1.00  0.00     0.036 C
HETATM    9  C14 UNL     1      -4.018   0.588  10.761  1.00  0.00     0.232 C
HETATM   10  N2  UNL     1      -5.154   1.440  10.614  1.00  0.00    -0.075 N
HETATM   11  C15 UNL     1      -5.095   2.319  11.795  1.00  0.00     0.239 C
ATOM     12  H22 UNL     1      -5.193   1.937   9.724  1.00  0.00     0.277 HD
ATOM     13  H21 UNL     1      -6.038   0.944  10.505  1.00  0.00     0.277 HD
ENDBRANCH   6   7
BRANCH   1  14
HETATM   14  C6  UNL     1      -3.783   4.085  14.824  1.00  0.00     0.063 C
BRANCH  14  15
HETATM   15  C3  UNL     1      -5.185   3.586  15.130  1.00  0.00     0.023 C
BRANCH  15  16
HETATM   16  C2  UNL     1      -5.010   2.467  16.134  1.00  0.00     0.005 C
HETATM   17  C1  UNL     1      -4.693   1.143  15.524  1.00  0.00     0.006 C
ENDBRANCH  15  16
BRANCH  15  18
HETATM   18  C4  UNL     1      -6.115   4.629  15.644  1.00  0.00     0.005 C
HETATM   19  C5  UNL     1      -6.855   4.117  16.888  1.00  0.00     0.006 C
ENDBRANCH  15  18
ENDBRANCH  14  15
ENDBRANCH   1  14
TORSDOF 5
ENDMDL