MODEL 4
REMARK VINA RESULT: -6.717049585      1.132      5.763
REMARK  5 active torsions:
REMARK  status: ('A' for Active; 'I' for Inactive)
REMARK    1  A    between atoms: C4_4  and  N1_5
REMARK    2  A    between atoms: N1_5  and  C5_7
REMARK    3  A    between atoms: C5_7  and  C6_8
REMARK    4  A    between atoms: C6_8  and  C7_9
REMARK    5  A    between atoms: C7_9  and  N2_10
ROOT
HETATM    1  C5  UNL     1      -3.797   4.325  14.248  1.00  0.00     0.057 C
ENDROOT
BRANCH   1   2
HETATM    2  N1  UNL     1      -3.931   3.227  15.079  1.00  0.00    -0.398 N
ATOM      3  H1  UNL     1      -3.083   2.700  15.285  1.00  0.00     0.159 HD
BRANCH   2   4
HETATM    4  C4  UNL     1      -5.107   2.772  15.659  1.00  0.00     0.080 C
HETATM    5  C3  UNL     1      -5.879   3.614  16.599  1.00  0.00     0.025 C
HETATM    6  C2  UNL     1      -7.243   2.925  16.834  1.00  0.00     0.002 C
HETATM    7  C1  UNL     1      -7.123   1.428  16.819  1.00  0.00     0.000 C
HETATM    8  C15 UNL     1      -5.766   1.103  17.435  1.00  0.00     0.002 C
HETATM    9  C14 UNL     1      -4.738   1.468  16.416  1.00  0.00     0.025 C
ENDBRANCH   2   4
ENDBRANCH   1   2
BRANCH   1  10
HETATM   10  C6  UNL     1      -3.949   4.186  12.775  1.00  0.00     0.074 C
BRANCH  10  11
HETATM   11  C7  UNL     1      -2.972   3.182  12.187  1.00  0.00     0.278 C
BRANCH  11  12
HETATM   12  N2  UNL     1      -3.566   2.349  11.205  1.00  0.00     0.093 N
HETATM   13  C8  UNL     1      -2.676   1.405  10.564  1.00  0.00     0.277 C
HETATM   14  C9  UNL     1      -3.475   0.116  10.454  1.00  0.00     0.016 C
HETATM   15  C10 UNL     1      -3.465  -0.530  11.800  1.00  0.00     0.008 C
HETATM   16  C13 UNL     1      -4.903   0.701  10.451  1.00  0.00     0.042 C
HETATM   17  C11 UNL     1      -4.205   0.506  12.651  1.00  0.00     0.036 C
HETATM   18  C12 UNL     1      -4.651   1.588  11.697  1.00  0.00     0.223 C
ENDBRANCH  11  12
ENDBRANCH  10  11
ENDBRANCH   1  10
TORSDOF 5
ENDMDL