MODEL 1
REMARK VINA RESULT: -6.821847087      0.000      0.000
REMARK  5 active torsions:
REMARK  status: ('A' for Active; 'I' for Inactive)
REMARK    1  A    between atoms: C6_6  and  N1_7
REMARK    2  A    between atoms: N1_7  and  C7_9
REMARK    3  A    between atoms: C7_9  and  C8_10
REMARK    4  A    between atoms: C8_10  and  C9_11
REMARK    5  A    between atoms: C9_11  and  N2_12
ROOT
HETATM    1  N1  UNL     1      -5.482   3.224  13.981  1.00  0.00    -0.417 N
ATOM      2  H1  UNL     1      -5.785   2.483  13.350  1.00  0.00     0.153 HD
ENDROOT
BRANCH   1   3
HETATM    3  C6  UNL     1      -5.891   3.223  15.328  1.00  0.00     0.080 C
HETATM    4  C5  UNL     1      -6.037   4.601  15.942  1.00  0.00     0.025 C
HETATM    5  C4  UNL     1      -6.991   4.417  17.131  1.00  0.00     0.002 C
HETATM    6  C3  UNL     1      -6.514   3.372  18.084  1.00  0.00     0.005 C
HETATM    7  C2  UNL     1      -6.023   2.108  17.472  1.00  0.00    -0.013 C
HETATM    8  C1  UNL     1      -7.129   1.149  17.107  1.00  0.00     0.010 C
HETATM    9  C14 UNL     1      -5.099   2.391  16.291  1.00  0.00     0.007 C
HETATM   10  C15 UNL     1      -4.594   1.138  15.665  1.00  0.00     0.012 C
ENDBRANCH   1   3
BRANCH   1  11
HETATM   11  C7  UNL     1      -4.646   4.264  13.513  1.00  0.00     0.116 C
BRANCH  11  12
HETATM   12  C8  UNL     1      -3.640   3.791  12.487  1.00  0.00     0.049 C
BRANCH  12  13
HETATM   13  C9  UNL     1      -4.279   3.545  11.141  1.00  0.00     0.274 C
BRANCH  13  14
HETATM   14  N2  UNL     1      -3.926   2.220  10.649  1.00  0.00     0.088 N
HETATM   15  C10 UNL     1      -2.723   1.764  11.358  1.00  0.00     0.272 C
HETATM   16  C11 UNL     1      -2.782   0.276  11.159  1.00  0.00     0.032 C
HETATM   17  C12 UNL     1      -4.252  -0.031  11.318  1.00  0.00     0.032 C
HETATM   18  C13 UNL     1      -4.931   1.288  11.106  1.00  0.00     0.272 C
ENDBRANCH  13  14
ENDBRANCH  12  13
ENDBRANCH  11  12
ENDBRANCH   1  11
TORSDOF 5
ENDMDL