MODEL 4
REMARK VINA RESULT: -6.145523367      1.439      2.177
REMARK  6 active torsions:
REMARK  status: ('A' for Active; 'I' for Inactive)
REMARK    1  A    between atoms: C2_2  and  C3_3
REMARK    2  A    between atoms: C3_3  and  C5_5
REMARK    3  A    between atoms: C5_5  and  C6_6
REMARK    4  A    between atoms: C5_5  and  N2_16
REMARK    5  A    between atoms: C6_6  and  N1_7
REMARK    6  A    between atoms: N1_7  and  C7_9
ROOT
HETATM    1  C6  UNL     1      -4.322   2.547  12.613  1.00  0.00     0.081 C
ENDROOT
BRANCH   1   2
HETATM    2  C5  UNL     1      -3.062   3.114  12.074  1.00  0.00     0.120 C
BRANCH   2   3
HETATM    3  C3  UNL     1      -3.004   4.624  11.959  1.00  0.00     0.009 C
HETATM    4  C4  UNL     1      -2.286   5.183  13.209  1.00  0.00     0.012 C
BRANCH   3   5
HETATM    5  C2  UNL     1      -4.380   5.240  11.978  1.00  0.00     0.002 C
HETATM    6  C1  UNL     1      -4.575   6.301  12.993  1.00  0.00     0.005 C
ENDBRANCH   3   5
ENDBRANCH   2   3
BRANCH   2   7
HETATM    7  N2  UNL     1      -2.533   2.467  10.934  1.00  0.00    -0.412 N
HETATM    8  C14 UNL     1      -2.173   1.132  10.930  1.00  0.00     0.143 C
HETATM    9  C15 UNL     1      -1.750   3.271  10.067  1.00  0.00     0.143 C
ENDBRANCH   2   7
ENDBRANCH   1   2
BRANCH   1  10
HETATM   10  N1  UNL     1      -4.494   2.195  13.924  1.00  0.00    -0.396 N
ATOM     11  H1  UNL     1      -4.519   1.192  14.110  1.00  0.00     0.159 HD
BRANCH  10  12
HETATM   12  C7  UNL     1      -4.638   3.007  15.028  1.00  0.00     0.080 C
HETATM   13  C8  UNL     1      -6.096   3.532  15.009  1.00  0.00     0.025 C
HETATM   14  C9  UNL     1      -6.505   4.128  16.308  1.00  0.00     0.002 C
HETATM   15  C10 UNL     1      -6.963   3.125  17.321  1.00  0.00     0.000 C
HETATM   16  C11 UNL     1      -6.906   1.704  16.822  1.00  0.00     0.000 C
HETATM   17  C12 UNL     1      -5.542   1.247  16.450  1.00  0.00     0.002 C
HETATM   18  C13 UNL     1      -4.507   2.308  16.373  1.00  0.00     0.025 C
ENDBRANCH  10  12
ENDBRANCH   1  10
TORSDOF 6
ENDMDL