MODEL 5
REMARK VINA RESULT: -5.642436627      2.861      3.949
REMARK  2 active torsions:
REMARK  status: ('A' for Active; 'I' for Inactive)
REMARK    1  A    between atoms: C3_4  and  N1_5
REMARK    2  A    between atoms: N1_5  and  C4_7
ROOT
HETATM    1  F1  UNL     1      -4.806   5.579  12.127  1.00  0.00    -0.249 F
HETATM    2  C1  UNL     1      -3.758   5.045  12.867  1.00  0.00     0.180 C
HETATM    3  C2  UNL     1      -3.554   3.621  12.373  1.00  0.00     0.062 C
HETATM    4  C3  UNL     1      -4.846   2.907  12.483  1.00  0.00     0.079 C
HETATM    5  C7  UNL     1      -5.294   2.757  13.935  1.00  0.00     0.025 C
HETATM    6  C8  UNL     1      -4.169   2.709  14.906  1.00  0.00     0.003 C
HETATM    7  C9  UNL     1      -3.523   4.047  15.149  1.00  0.00     0.012 C
HETATM    8  C10 UNL     1      -4.115   5.143  14.313  1.00  0.00    -0.009 A
HETATM    9  C11 UNL     1      -5.247   5.979  14.777  1.00  0.00     0.013 A
HETATM   10  C12 UNL     1      -3.878   6.556  14.901  1.00  0.00     0.013 A
ENDROOT
BRANCH   4  11
HETATM   11  N1  UNL     1      -4.986   1.704  11.764  1.00  0.00    -0.413 N
ATOM     12  H1  UNL     1      -5.766   1.588  11.117  1.00  0.00     0.154 HD
BRANCH  11  13
HETATM   13  C4  UNL     1      -4.054   0.658  11.934  1.00  0.00     0.077 A
HETATM   14  C5  UNL     1      -4.268  -0.763  11.647  1.00  0.00     0.027 A
HETATM   15  C6  UNL     1      -3.260   0.057  10.836  1.00  0.00     0.027 A
ENDBRANCH  11  13
ENDBRANCH   4  11
TORSDOF 2
ENDMDL