MODEL 4
REMARK VINA RESULT: -5.832989162      2.945      4.326
REMARK  3 active torsions:
REMARK  status: ('A' for Active; 'I' for Inactive)
REMARK    1  A    between atoms: C2_2  and  N1_4
REMARK    2  A    between atoms: C2_2  and  C4_8
REMARK    3  A    between atoms: C4_8  and  C5_9
ROOT
HETATM    1  C5  UNL     1      -3.763   5.005  13.229  1.00  0.00    -0.002 C
HETATM    2  C6  UNL     1      -2.272   5.172  13.215  1.00  0.00     0.013 C
HETATM    3  C7  UNL     1      -1.971   6.622  13.523  1.00  0.00     0.005 C
HETATM    4  C8  UNL     1      -3.349   7.213  13.688  1.00  0.00    -0.010 C
HETATM    5  C9  UNL     1      -3.899   6.670  14.961  1.00  0.00     0.048 C
HETATM    6  C10 UNL     1      -4.322   5.230  14.601  1.00  0.00     0.108 C
HETATM    7  C11 UNL     1      -5.820   5.232  14.687  1.00  0.00     0.052 C
HETATM    8  F1  UNL     1      -3.800   4.355  15.532  1.00  0.00    -0.243 F
HETATM    9  C12 UNL     1      -4.102   6.418  12.645  1.00  0.00     0.017 C
ENDROOT
BRANCH   1  10
HETATM   10  C4  UNL     1      -4.354   4.020  12.360  1.00  0.00     0.050 C
BRANCH  10  11
HETATM   11  C2  UNL     1      -4.083   2.593  12.376  1.00  0.00     0.117 C
HETATM   12  C1  UNL     1      -5.025   1.892  11.363  1.00  0.00     0.045 C
HETATM   13  C3  UNL     1      -4.362   1.851  13.660  1.00  0.00     0.045 C
BRANCH  11  14
HETATM   14  N1  UNL     1      -2.764   2.173  11.963  1.00  0.00    -0.071 N
ATOM     15  H13 UNL     1      -2.041   2.883  12.077  1.00  0.00     0.275 HD
ATOM     16  H12 UNL     1      -2.332   1.480  12.574  1.00  0.00     0.275 HD
ATOM     17  H11 UNL     1      -2.899   1.861  11.001  1.00  0.00     0.275 HD
ENDBRANCH  11  14
ENDBRANCH  10  11
ENDBRANCH   1  10
TORSDOF 3
ENDMDL