MODEL 3
REMARK VINA RESULT: -6.028446602      3.481      4.824
REMARK  2 active torsions:
REMARK  status: ('A' for Active; 'I' for Inactive)
REMARK    1  A    between atoms: C5_6  and  C6_7
REMARK    2  A    between atoms: C6_7  and  C7_8
ROOT
HETATM    1  F1  UNL     1      -5.142   6.267  11.639  1.00  0.00    -0.249 F
HETATM    2  C1  UNL     1      -4.581   6.389  12.905  1.00  0.00     0.174 C
HETATM    3  C2  UNL     1      -3.225   5.757  12.900  1.00  0.00     0.070 C
HETATM    4  C3  UNL     1      -3.341   4.350  13.482  1.00  0.00     0.189 C
HETATM    5  C4  UNL     1      -3.305   4.503  14.983  1.00  0.00     0.039 C
HETATM    6  C5  UNL     1      -4.723   4.087  15.406  1.00  0.00     0.018 C
HETATM    7  C11 UNL     1      -5.482   4.407  14.160  1.00  0.00     0.193 C
HETATM    8  C12 UNL     1      -5.485   5.912  13.990  1.00  0.00     0.070 C
HETATM    9  N1  UNL     1      -4.639   3.862  13.126  1.00  0.00    -0.066 N
ATOM     10  H11 UNL     1      -4.699   2.850  13.016  1.00  0.00     0.278 HD
ATOM     11  H12 UNL     1      -4.932   4.086  12.175  1.00  0.00     0.278 HD
ENDROOT
BRANCH   6  12
HETATM   12  C6  UNL     1      -4.665   2.636  15.744  1.00  0.00     0.011 C
BRANCH  12  13
HETATM   13  C7  UNL     1      -5.400   2.267  16.988  1.00  0.00    -0.014 C
HETATM   14  C8  UNL     1      -6.734   3.002  17.053  1.00  0.00     0.005 C
HETATM   15  C9  UNL     1      -7.382   1.643  17.314  1.00  0.00     0.001 C
HETATM   16  C10 UNL     1      -6.068   0.937  17.021  1.00  0.00     0.005 C
ENDBRANCH  12  13
ENDBRANCH   6  12
TORSDOF 2
ENDMDL