MODEL 1
REMARK VINA RESULT: -5.136846146      0.000      0.000
REMARK  3 active torsions:
REMARK  status: ('A' for Active; 'I' for Inactive)
REMARK    1  A    between atoms: N1_1  and  C1_5
REMARK    2  A    between atoms: C1_5  and  C2_6
REMARK    3  A    between atoms: C2_6  and  C3_7
ROOT
HETATM    1  C3  UNL     1      -4.862   3.827  14.756  1.00  0.00    -0.038 C
HETATM    2  C4  UNL     1      -4.760   3.407  13.311  1.00  0.00     0.014 C
HETATM    3  C5  UNL     1      -4.063   4.487  12.521  1.00  0.00    -0.013 C
HETATM    4  C6  UNL     1      -4.808   5.794  12.539  1.00  0.00     0.009 C
HETATM    5  C7  UNL     1      -4.942   6.226  13.968  1.00  0.00    -0.013 C
HETATM    6  C8  UNL     1      -3.581   6.460  14.582  1.00  0.00     0.009 C
HETATM    7  C9  UNL     1      -2.787   5.204  14.516  1.00  0.00    -0.013 C
HETATM    8  C10 UNL     1      -2.674   4.769  13.057  1.00  0.00     0.009 C
HETATM    9  C11 UNL     1      -3.447   4.040  15.236  1.00  0.00     0.014 C
HETATM   10  C12 UNL     1      -5.625   5.167  14.758  1.00  0.00     0.014 C
ENDROOT
BRANCH   1  11
HETATM   11  C2  UNL     1      -5.654   2.921  15.610  1.00  0.00     0.036 C
BRANCH  11  12
HETATM   12  C1  UNL     1      -4.958   2.019  16.548  1.00  0.00     0.230 C
BRANCH  12  13
HETATM   13  N1  UNL     1      -4.779   0.693  15.998  1.00  0.00    -0.079 N
ATOM     14  H13 UNL     1      -5.129  -0.022  16.636  1.00  0.00     0.274 HD
ATOM     15  H12 UNL     1      -5.410   0.531  15.213  1.00  0.00     0.274 HD
ATOM     16  H11 UNL     1      -3.810   0.513  15.737  1.00  0.00     0.274 HD
ENDBRANCH  12  13
ENDBRANCH  11  12
ENDBRANCH   1  11
TORSDOF 3
ENDMDL