MODEL 3
REMARK VINA RESULT: -4.880420059      4.759      5.850
REMARK  1 active torsions:
REMARK  status: ('A' for Active; 'I' for Inactive)
REMARK    1  A    between atoms: C2_3  and  C3_4
ROOT
HETATM    1  C1  UNL     1      -1.032   3.212  10.202  1.00  0.00     0.222 C
HETATM    2  N1  UNL     1      -2.023   2.845  10.683  1.00  0.00    -0.458 NA
HETATM    3  C2  UNL     1      -3.259   2.414  11.266  1.00  0.00     0.116 A
HETATM    4  C7  UNL     1      -4.425   3.236  11.005  1.00  0.00     0.072 A
HETATM    5  C8  UNL     1      -3.721   3.350  12.345  1.00  0.00     0.056 A
HETATM    6  C9  UNL     1      -3.014   4.660  12.564  1.00  0.00     0.032 C
HETATM    7  S1  UNL     1      -4.535   2.651  13.801  1.00  0.00    -0.083 SA
ENDROOT
BRANCH   3   8
HETATM    8  C3  UNL     1      -3.235   0.961  11.574  1.00  0.00     0.063 C
HETATM    9  C4  UNL     1      -2.268   0.110  10.775  1.00  0.00     0.014 C
HETATM   10  C5  UNL     1      -3.266  -1.032  11.011  1.00  0.00     0.038 C
HETATM   11  C6  UNL     1      -4.324   0.091  10.988  1.00  0.00     0.177 C
HETATM   12  F1  UNL     1      -4.662   0.304   9.690  1.00  0.00    -0.249 F
ENDBRANCH   3   8
TORSDOF 1
ENDMDL