MODEL 1
REMARK VINA RESULT: -5.754903045      0.000      0.000
REMARK  2 active torsions:
REMARK  status: ('A' for Active; 'I' for Inactive)
REMARK    1  A    between atoms: C8_11  and  C9_12
REMARK    2  A    between atoms: C9_12  and  C10_13
ROOT
HETATM    1  C1  UNL     1      -3.889   6.424  14.754  1.00  0.00     0.017 C
HETATM    2  C2  UNL     1      -3.675   4.924  14.514  1.00  0.00    -0.020 C
HETATM    3  C3  UNL     1      -2.359   4.578  15.159  1.00  0.00     0.017 C
HETATM    4  C4  UNL     1      -3.526   4.736  13.028  1.00  0.00     0.241 C
HETATM    5  N1  UNL     1      -3.098   3.417  12.653  1.00  0.00    -0.074 N
ATOM      6  H11 UNL     1      -2.447   3.036  13.341  1.00  0.00     0.277 HD
ATOM      7  H12 UNL     1      -2.481   3.452  11.841  1.00  0.00     0.277 HD
HETATM    8  C5  UNL     1      -4.198   2.509  12.426  1.00  0.00     0.237 C
HETATM    9  C6  UNL     1      -5.075   2.347  13.636  1.00  0.00     0.012 C
HETATM   10  C7  UNL     1      -4.349   1.855  14.842  1.00  0.00     0.011 C
HETATM   11  C8  UNL     1      -4.404   2.965  15.884  1.00  0.00    -0.007 C
HETATM   12  C11 UNL     1      -4.842   4.184  15.099  1.00  0.00    -0.001 C
HETATM   13  C12 UNL     1      -5.758   3.589  14.070  1.00  0.00     0.012 C
ENDROOT
BRANCH  11  14
HETATM   14  C9  UNL     1      -5.403   2.577  16.952  1.00  0.00     0.036 C
BRANCH  14  15
HETATM   15  C10 UNL     1      -5.827   1.150  16.893  1.00  0.00     0.222 C
HETATM   16  F1  UNL     1      -7.225   1.160  16.771  1.00  0.00    -0.255 F
ENDBRANCH  14  15
ENDBRANCH  11  14
TORSDOF 2
ENDMDL