MODEL 2
REMARK VINA RESULT: -6.069706785      0.921      1.409
REMARK  2 active torsions:
REMARK  status: ('A' for Active; 'I' for Inactive)
REMARK    1  A    between atoms: C5_6  and  C6_7
REMARK    2  A    between atoms: C6_7  and  C7_8
ROOT
HETATM    1  C7  UNL     1      -3.673   1.703  12.513  1.00  0.00     0.186 C
HETATM    2  C8  UNL     1      -4.753   0.881  11.875  1.00  0.00     0.033 C
HETATM    3  C9  UNL     1      -4.312   0.503  10.483  1.00  0.00     0.004 C
HETATM    4  C10 UNL     1      -2.887  -0.020  10.595  1.00  0.00     0.027 C
HETATM    5  C11 UNL     1      -1.993   1.168  10.870  1.00  0.00     0.232 C
HETATM    6  N1  UNL     1      -2.678   2.207  11.599  1.00  0.00    -0.071 N
ATOM      7  H11 UNL     1      -2.013   2.809  12.084  1.00  0.00     0.277 HD
ATOM      8  H12 UNL     1      -3.087   2.889  10.959  1.00  0.00     0.277 HD
ENDROOT
BRANCH   1   9
HETATM    9  C6  UNL     1      -4.320   2.921  13.137  1.00  0.00     0.039 C
BRANCH   9  10
HETATM   10  C5  UNL     1      -5.079   2.606  14.390  1.00  0.00     0.006 C
HETATM   11  C1  UNL     1      -5.830   3.853  14.811  1.00  0.00     0.086 C
HETATM   12 CL1  UNL     1      -4.650   5.165  14.973  1.00  0.00    -0.125 Cl
HETATM   13  C2  UNL     1      -6.300   3.434  16.204  1.00  0.00     0.020 C
HETATM   14  C3  UNL     1      -5.208   2.519  16.720  1.00  0.00     0.002 C
HETATM   15  C4  UNL     1      -4.219   2.355  15.581  1.00  0.00     0.006 C
ENDBRANCH   9  10
ENDBRANCH   1   9
TORSDOF 2
ENDMDL