MODEL 5
REMARK VINA RESULT: -6.294272280      1.164      2.084
REMARK  2 active torsions:
REMARK  status: ('A' for Active; 'I' for Inactive)
REMARK    1  A    between atoms: C4_5  and  N1_6
REMARK    2  A    between atoms: N1_6  and  C5_9
ROOT
HETATM    1  N1  UNL     1      -3.713   2.415  14.282  1.00  0.00    -0.066 N
ATOM      2  H11 UNL     1      -2.720   2.611  14.155  1.00  0.00     0.278 HD
ATOM      3  H12 UNL     1      -3.654   1.584  14.870  1.00  0.00     0.278 HD
ENDROOT
BRANCH   1   4
HETATM    4  C4  UNL     1      -4.323   2.090  13.021  1.00  0.00     0.189 C
HETATM    5  C3  UNL     1      -3.378   2.501  11.916  1.00  0.00     0.036 C
HETATM    6  C2  UNL     1      -3.231   1.301  11.013  1.00  0.00     0.039 C
HETATM    7  C1  UNL     1      -4.130   0.214  11.521  1.00  0.00     0.172 C
HETATM    8  F1  UNL     1      -5.226   0.124  10.697  1.00  0.00    -0.249 F
HETATM    9  C12 UNL     1      -4.493   0.601  12.933  1.00  0.00     0.070 C
ENDBRANCH   1   4
BRANCH   1  10
HETATM   10  C5  UNL     1      -4.341   3.480  14.992  1.00  0.00     0.190 C
HETATM   11  C6  UNL     1      -3.877   4.852  14.632  1.00  0.00     0.033 C
HETATM   12  C7  UNL     1      -4.882   5.933  14.603  1.00  0.00     0.002 C
HETATM   13  C8  UNL     1      -6.177   5.753  15.333  1.00  0.00     0.005 C
HETATM   14  C9  UNL     1      -6.088   4.539  16.154  1.00  0.00    -0.008 A
HETATM   15  C10 UNL     1      -6.740   3.280  16.104  1.00  0.00     0.012 A
HETATM   16  C11 UNL     1      -5.804   3.459  15.047  1.00  0.00     0.020 A
ENDBRANCH   1  10
TORSDOF 2
ENDMDL