MODEL 4
REMARK VINA RESULT: -5.625626679      1.462      2.759
REMARK  2 active torsions:
REMARK  status: ('A' for Active; 'I' for Inactive)
REMARK    1  A    between atoms: N2_9  and  C6_11
REMARK    2  A    between atoms: C6_11  and  C7_12
ROOT
HETATM    1  C1  UNL     1      -4.910   2.489  11.762  1.00  0.00     0.002 C
HETATM    2  C2  UNL     1      -4.020   3.538  11.137  1.00  0.00     0.027 C
HETATM    3  C3  UNL     1      -3.677   4.642  12.103  1.00  0.00     0.232 C
HETATM    4  N1  UNL     1      -4.543   4.664  13.260  1.00  0.00    -0.070 N
ATOM      5  H11 UNL     1      -5.479   4.320  13.048  1.00  0.00     0.277 HD
ATOM      6  H12 UNL     1      -4.796   5.613  13.535  1.00  0.00     0.277 HD
HETATM    7  C4  UNL     1      -3.913   3.918  14.356  1.00  0.00     0.284 C
HETATM    8  C5  UNL     1      -4.645   2.639  14.496  1.00  0.00     0.008 C
HETATM    9  N2  UNL     1      -5.659   2.634  15.241  1.00  0.00    -0.395 N
ATOM     10  H2  UNL     1      -6.160   1.751  15.335  1.00  0.00     0.159 HD
HETATM   11  C10 UNL     1      -4.411   1.284  13.903  1.00  0.00     0.054 C
HETATM   12  C11 UNL     1      -4.123   1.381  12.409  1.00  0.00     0.006 C
ENDROOT
BRANCH   9  13
HETATM   13  C6  UNL     1      -6.175   3.748  15.967  1.00  0.00     0.123 C
BRANCH  13  14
HETATM   14  C7  UNL     1      -6.876   3.171  17.204  1.00  0.00     0.003 A
HETATM   15  C8  UNL     1      -7.332   1.753  17.023  1.00  0.00     0.007 A
HETATM   16  C9  UNL     1      -6.148   2.087  17.933  1.00  0.00     0.007 A
ENDBRANCH  13  14
ENDBRANCH   9  13
TORSDOF 2
ENDMDL