MODEL 2
REMARK VINA RESULT: -5.818767673      1.986      4.826
REMARK  3 active torsions:
REMARK  status: ('A' for Active; 'I' for Inactive)
REMARK    1  A    between atoms: C2_2  and  N1_3
REMARK    2  A    between atoms: C2_2  and  N2_11
REMARK    3  A    between atoms: N1_3  and  C3_5
ROOT
HETATM    1  N1  UNL     1      -3.522   2.712  13.001  1.00  0.00    -0.359 N
ATOM      2  H1  UNL     1      -2.675   3.278  13.065  1.00  0.00     0.158 HD
ENDROOT
BRANCH   1   3
HETATM    3  C2  UNL     1      -4.511   2.740  14.026  1.00  0.00     0.316 C
HETATM    4  C1  UNL     1      -3.990   2.818  15.420  1.00  0.00     0.066 C
BRANCH   3   5
HETATM    5  N2  UNL     1      -5.355   3.897  13.783  1.00  0.00     0.110 N
HETATM    6  C8  UNL     1      -4.594   5.050  13.372  1.00  0.00     0.275 C
HETATM    7  C9  UNL     1      -4.582   6.027  14.512  1.00  0.00     0.032 C
HETATM    8  C10 UNL     1      -5.757   5.626  15.355  1.00  0.00     0.032 C
HETATM    9  C11 UNL     1      -6.188   4.257  14.880  1.00  0.00     0.275 C
ENDBRANCH   3   5
ENDBRANCH   1   3
BRANCH   1  10
HETATM   10  C3  UNL     1      -3.756   1.876  11.899  1.00  0.00     0.173 C
HETATM   11  F1  UNL     1      -4.612   2.390  10.949  1.00  0.00    -0.220 F
HETATM   12  C4  UNL     1      -4.433   0.598  12.406  1.00  0.00     0.066 C
HETATM   13  C5  UNL     1      -4.506  -0.182  11.112  1.00  0.00     0.005 C
HETATM   14  C6  UNL     1      -3.150   0.067  10.505  1.00  0.00     0.005 C
HETATM   15  C7  UNL     1      -2.567   1.295  11.204  1.00  0.00     0.066 C
ENDBRANCH   1  10
TORSDOF 3
ENDMDL