MODEL 5
REMARK VINA RESULT: -5.910689271      1.959      5.666
REMARK  3 active torsions:
REMARK  status: ('A' for Active; 'I' for Inactive)
REMARK    1  A    between atoms: C2_3  and  C3_4
REMARK    2  A    between atoms: C3_4  and  C4_5
REMARK    3  A    between atoms: C4_5  and  C5_6
ROOT
HETATM    1  N1  UNL     1      -4.706   4.432  10.314  1.00  0.00    -0.196 NA
HETATM    2  C1  UNL     1      -4.247   3.823  11.211  1.00  0.00     0.069 C
HETATM    3  C2  UNL     1      -3.683   3.084  12.342  1.00  0.00     0.049 C
HETATM    4  C8  UNL     1      -4.172   1.688  12.413  1.00  0.00     0.024 C
HETATM    5  C9  UNL     1      -4.518   1.104  11.061  1.00  0.00     0.002 C
HETATM    6  C10 UNL     1      -3.362   0.363  10.474  1.00  0.00     0.000 C
HETATM    7  C11 UNL     1      -2.021   0.954  10.749  1.00  0.00     0.000 C
HETATM    8  C12 UNL     1      -1.953   2.438  10.719  1.00  0.00     0.002 C
HETATM    9  C13 UNL     1      -2.157   3.093  12.071  1.00  0.00     0.024 C
ENDROOT
BRANCH   3  10
HETATM   10  C3  UNL     1      -3.930   3.792  13.645  1.00  0.00     0.030 C
BRANCH  10  11
HETATM   11  C4  UNL     1      -5.368   3.835  14.025  1.00  0.00     0.060 C
BRANCH  11  12
HETATM   12  C5  UNL     1      -5.615   3.176  15.354  1.00  0.00     0.025 A
HETATM   13  C6  UNL     1      -4.900   2.189  15.987  1.00  0.00     0.113 A
HETATM   14  N2  UNL     1      -5.463   1.880  17.169  1.00  0.00    -0.360 N
HETATM   15  C7  UNL     1      -6.538   2.674  17.290  1.00  0.00     0.180 A
ATOM     16  H2  UNL     1      -5.137   1.183  17.839  1.00  0.00     0.166 HD
HETATM   17  N3  UNL     1      -6.632   3.466  16.183  1.00  0.00    -0.355 N
ATOM     18  H3  UNL     1      -7.357   4.163  16.013  1.00  0.00     0.166 HD
ENDBRANCH  11  12
ENDBRANCH  10  11
ENDBRANCH   3  10
TORSDOF 3
ENDMDL