MODEL 2
REMARK VINA RESULT: -6.380120023      1.453      2.001
REMARK  4 active torsions:
REMARK  status: ('A' for Active; 'I' for Inactive)
REMARK    1  A    between atoms: C4_4  and  C6_7
REMARK    2  A    between atoms: C6_7  and  C7_8
REMARK    3  A    between atoms: C6_7  and  C8_11
REMARK    4  A    between atoms: C7_8  and  O1_9
ROOT
HETATM    1  C1  UNL     1      -6.164   2.957  16.266  1.00  0.00     0.044 C
HETATM    2  C2  UNL     1      -5.071   2.516  15.321  1.00  0.00    -0.070 C
HETATM    3  C3  UNL     1      -4.419   1.264  15.713  1.00  0.00     0.044 C
HETATM    4  C4  UNL     1      -4.874   3.205  14.248  1.00  0.00     0.030 C
HETATM    5  C5  UNL     1      -5.832   4.364  14.144  1.00  0.00     0.096 C
HETATM    6  N1  UNL     1      -6.580   5.273  14.089  1.00  0.00    -0.192 NA
ENDROOT
BRANCH   4   7
HETATM    7  C6  UNL     1      -3.897   3.214  13.188  1.00  0.00     0.057 C
BRANCH   7   8
HETATM    8  C7  UNL     1      -3.225   4.585  13.159  1.00  0.00     0.174 C
BRANCH   8   9
HETATM    9  O1  UNL     1      -2.159   4.542  14.051  1.00  0.00    -0.400 OA
ATOM     10  H1  UNL     1      -2.526   4.530  14.927  1.00  0.00     0.209 HD
ENDBRANCH   8   9
ENDBRANCH   7   8
BRANCH   7  11
HETATM   11  C8  UNL     1      -4.301   2.760  11.835  1.00  0.00    -0.003 C
HETATM   12  C9  UNL     1      -3.138   2.765  10.850  1.00  0.00     0.005 C
HETATM   13  C10 UNL     1      -2.204   1.615  11.103  1.00  0.00     0.000 C
HETATM   14  C11 UNL     1      -2.794   0.325  10.559  1.00  0.00     0.000 C
HETATM   15  C12 UNL     1      -4.313   0.491  10.709  1.00  0.00     0.000 C
HETATM   16  C13 UNL     1      -4.534   1.231  12.001  1.00  0.00     0.005 C
ENDBRANCH   7  11
ENDBRANCH   4   7
TORSDOF 4
ENDMDL