MODEL 3
REMARK VINA RESULT: -6.532364808      1.313      1.574
REMARK  3 active torsions:
REMARK  status: ('A' for Active; 'I' for Inactive)
REMARK    1  A    between atoms: C2_2  and  C3_3
REMARK    2  A    between atoms: C5_7  and  C6_8
REMARK    3  A    between atoms: C9_11  and  C10_12
ROOT
HETATM    1  C6  UNL     1      -4.311   3.878  14.011  1.00  0.00     0.244 C
HETATM    2  C7  UNL     1      -5.789   3.996  14.152  1.00  0.00     0.040 C
HETATM    3  C8  UNL     1      -6.157   3.814  15.626  1.00  0.00     0.009 C
HETATM    4  C9  UNL     1      -5.904   2.389  15.974  1.00  0.00     0.014 C
HETATM    5  C13 UNL     1      -4.615   1.926  15.332  1.00  0.00     0.238 C
HETATM    6  N2  UNL     1      -3.788   3.092  15.109  1.00  0.00    -0.065 N
ATOM      7  H21 UNL     1      -3.679   3.649  15.957  1.00  0.00     0.278 HD
ATOM      8  H22 UNL     1      -2.809   2.843  14.965  1.00  0.00     0.278 HD
ENDROOT
BRANCH   1   9
HETATM    9  C5  UNL     1      -3.893   3.225  12.746  1.00  0.00     0.101 A
HETATM   10  C4  UNL     1      -4.776   2.777  11.787  1.00  0.00     0.124 A
HETATM   11  N1  UNL     1      -3.997   2.257  10.813  1.00  0.00    -0.348 N
HETATM   12  C3  UNL     1      -2.715   2.377  11.154  1.00  0.00     0.123 A
ATOM     13  H1  UNL     1      -4.339   1.837   9.949  1.00  0.00     0.167 HD
HETATM   14  O1  UNL     1      -2.694   2.970  12.337  1.00  0.00    -0.299 OA
BRANCH  12  15
HETATM   15  C2  UNL     1      -1.552   1.923  10.344  1.00  0.00     0.080 C
HETATM   16  C1  UNL     1      -0.821   3.096   9.748  1.00  0.00     0.013 C
ENDBRANCH  12  15
ENDBRANCH   1   9
BRANCH   4  17
HETATM   17  C10 UNL     1      -5.859   2.119  17.456  1.00  0.00    -0.017 C
HETATM   18  C11 UNL     1      -6.852   2.899  18.246  1.00  0.00     0.010 C
HETATM   19  C12 UNL     1      -6.047   0.651  17.772  1.00  0.00     0.010 C
ENDBRANCH   4  17
TORSDOF 3
ENDMDL