MODEL 2
REMARK VINA RESULT: -6.090126717      2.808      4.547
REMARK  3 active torsions:
REMARK  status: ('A' for Active; 'I' for Inactive)
REMARK    1  A    between atoms: C2_2  and  C3_3
REMARK    2  A    between atoms: C3_3  and  C4_4
REMARK    3  A    between atoms: C4_4  and  C5_5
ROOT
HETATM    1  C3  UNL     1      -4.638   3.599  14.144  1.00  0.00     0.016 C
HETATM    2  C7  UNL     1      -3.739   4.720  13.531  1.00  0.00     0.022 C
HETATM    3  C8  UNL     1      -3.563   4.479  12.015  1.00  0.00     0.002 C
HETATM    4  C9  UNL     1      -2.850   3.317  11.548  1.00  0.00     0.001 C
HETATM    5  C10 UNL     1      -3.531   2.016  11.186  1.00  0.00     0.011 C
HETATM    6  C11 UNL     1      -4.346   1.425  12.387  1.00  0.00     0.081 C
HETATM    7  C12 UNL     1      -4.526   2.474  13.305  1.00  0.00    -0.173 C
ENDROOT
BRANCH   1   8
HETATM    8  C2  UNL     1      -6.018   4.255  14.291  1.00  0.00     0.017 C
HETATM    9  C1  UNL     1      -5.975   5.626  14.834  1.00  0.00     0.007 C
ENDBRANCH   1   8
BRANCH   1  10
HETATM   10  C4  UNL     1      -4.138   3.369  15.544  1.00  0.00     0.081 C
BRANCH  10  11
HETATM   11  C5  UNL     1      -4.888   2.290  16.208  1.00  0.00     0.045 A
HETATM   12  C6  UNL     1      -6.026   2.382  16.968  1.00  0.00     0.135 A
HETATM   13  N1  UNL     1      -6.366   1.157  17.370  1.00  0.00    -0.296 N
HETATM   14  N2  UNL     1      -5.473   0.319  16.880  1.00  0.00    -0.243 N
ATOM     15  H1  UNL     1      -7.169   0.912  17.949  1.00  0.00     0.187 HD
HETATM   16  N3  UNL     1      -4.571   0.971  16.177  1.00  0.00    -0.289 N
ATOM     17  H2  UNL     1      -5.481  -0.690  17.024  1.00  0.00     0.208 HD
ATOM     18  H3  UNL     1      -3.774   0.557  15.693  1.00  0.00     0.188 HD
ENDBRANCH  10  11
ENDBRANCH   1  10
TORSDOF 3
ENDMDL