MODEL 4
REMARK VINA RESULT: -4.866550317      1.979      3.128
REMARK  4 active torsions:
REMARK  status: ('A' for Active; 'I' for Inactive)
REMARK    1  A    between atoms: N1_1  and  C1_5
REMARK    2  A    between atoms: C1_5  and  C2_6
REMARK    3  A    between atoms: C2_6  and  C3_7
REMARK    4  A    between atoms: C3_7  and  C4_8
ROOT
HETATM    1  C4  UNL     1      -3.704   4.409  14.527  1.00  0.00    -0.001 C
HETATM    2  C5  UNL     1      -3.970   3.719  13.210  1.00  0.00     0.079 C
HETATM    3  S1  UNL     1      -3.937   4.855  11.812  1.00  0.00    -0.164 SA
HETATM    4  C6  UNL     1      -4.971   6.271  12.276  1.00  0.00     0.047 C
HETATM    5  C7  UNL     1      -4.301   7.577  12.046  1.00  0.00     0.015 C
HETATM    6  C8  UNL     1      -2.831   7.597  12.269  1.00  0.00     0.001 C
HETATM    7  C9  UNL     1      -2.385   6.897  13.532  1.00  0.00     0.000 C
HETATM    8  C10 UNL     1      -3.383   6.901  14.625  1.00  0.00     0.005 C
HETATM    9  C11 UNL     1      -4.335   5.734  14.660  1.00  0.00    -0.009 C
HETATM   10  C12 UNL     1      -5.436   6.033  13.670  1.00  0.00     0.020 C
ENDROOT
BRANCH   1  11
HETATM   11  C3  UNL     1      -4.080   3.397  15.580  1.00  0.00     0.007 C
BRANCH  11  12
HETATM   12  C2  UNL     1      -5.476   2.899  15.540  1.00  0.00     0.027 C
BRANCH  12  13
HETATM   13  C1  UNL     1      -5.465   1.541  16.266  1.00  0.00     0.229 C
BRANCH  13  14
HETATM   14  N1  UNL     1      -4.364   0.737  15.783  1.00  0.00    -0.079 N
ATOM     15  H13 UNL     1      -4.683  -0.129  15.348  1.00  0.00     0.274 HD
ATOM     16  H12 UNL     1      -3.913   1.154  14.969  1.00  0.00     0.274 HD
ATOM     17  H11 UNL     1      -3.704   0.565  16.541  1.00  0.00     0.274 HD
ENDBRANCH  13  14
ENDBRANCH  12  13
ENDBRANCH  11  12
ENDBRANCH   1  11
TORSDOF 4
ENDMDL