MODEL 3
REMARK VINA RESULT: -5.728937648      2.266      3.622
REMARK  5 active torsions:
REMARK  status: ('A' for Active; 'I' for Inactive)
REMARK    1  A    between atoms: C2_2  and  C3_3
REMARK    2  A    between atoms: C3_3  and  O1_4
REMARK    3  A    between atoms: O1_4  and  C4_5
REMARK    4  A    between atoms: C4_5  and  N1_7
REMARK    5  A    between atoms: N1_7  and  C5_9
ROOT
HETATM    1  N1  UNL     1      -4.314   2.610  14.379  1.00  0.00    -0.357 N
ATOM      2  H1  UNL     1      -3.359   2.708  14.722  1.00  0.00     0.162 HD
ENDROOT
BRANCH   1   3
HETATM    3  C4  UNL     1      -4.511   2.719  12.997  1.00  0.00     0.210 C
HETATM    4  S1  UNL     1      -4.297   1.397  12.063  1.00  0.00    -0.033 SA
BRANCH   3   5
HETATM    5  O1  UNL     1      -4.877   3.878  12.362  1.00  0.00    -0.327 OA
BRANCH   5   6
HETATM    6  C3  UNL     1      -4.230   5.105  12.360  1.00  0.00     0.178 C
BRANCH   6   7
HETATM    7  C2  UNL     1      -4.785   6.138  13.297  1.00  0.00     0.022 C
HETATM    8  C1  UNL     1      -3.868   6.317  14.506  1.00  0.00     0.007 C
ENDBRANCH   6   7
ENDBRANCH   5   6
ENDBRANCH   3   5
ENDBRANCH   1   3
BRANCH   1   9
HETATM    9  C5  UNL     1      -5.340   2.373  15.357  1.00  0.00     0.084 C
HETATM   10  C6  UNL     1      -4.817   1.841  16.678  1.00  0.00     0.025 C
HETATM   11  C7  UNL     1      -5.939   0.960  17.240  1.00  0.00     0.002 C
HETATM   12  C8  UNL     1      -7.213   1.764  17.021  1.00  0.00     0.000 C
HETATM   13  C9  UNL     1      -6.909   3.269  16.971  1.00  0.00     0.002 C
HETATM   14  C10 UNL     1      -6.134   3.618  15.700  1.00  0.00     0.025 C
ENDBRANCH   1   9
TORSDOF 5
ENDMDL