MODEL 1
REMARK VINA RESULT: -6.777306802      0.000      0.000
REMARK  4 active torsions:
REMARK  status: ('A' for Active; 'I' for Inactive)
REMARK    1  A    between atoms: C2_2  and  C4_4
REMARK    2  A    between atoms: C4_4  and  C5_5
REMARK    3  A    between atoms: C5_5  and  N1_7
REMARK    4  A    between atoms: N1_7  and  N2_9
ROOT
HETATM    1  N1  UNL     1      -4.076   1.749  13.272  1.00  0.00    -0.294 N
ATOM      2  H1  UNL     1      -3.436   1.095  13.724  1.00  0.00     0.187 HD
ENDROOT
BRANCH   1   3
HETATM    3  C5  UNL     1      -4.261   1.724  11.868  1.00  0.00     0.092 C
HETATM    4  S1  UNL     1      -4.252   3.167  11.052  1.00  0.00    -0.064 SA
BRANCH   3   5
HETATM    5  C4  UNL     1      -4.457   0.455  11.136  1.00  0.00     0.075 C
BRANCH   5   6
HETATM    6  C2  UNL     1      -3.205  -0.167  10.618  1.00  0.00    -0.016 C
HETATM    7  C1  UNL     1      -2.018   0.758  10.856  1.00  0.00     0.010 C
HETATM    8  C3  UNL     1      -2.887  -1.510  11.191  1.00  0.00     0.010 C
ENDBRANCH   5   6
ENDBRANCH   3   5
ENDBRANCH   1   3
BRANCH   1   9
HETATM    9  N2  UNL     1      -4.789   2.689  14.026  1.00  0.00    -0.308 N
HETATM   10  C6  UNL     1      -5.107   2.546  15.253  1.00  0.00     0.004 C
HETATM   11  C7  UNL     1      -5.873   3.659  15.895  1.00  0.00     0.054 C
HETATM   12  C11 UNL     1      -4.736   1.343  15.998  1.00  0.00     0.054 C
HETATM   13  C8  UNL     1      -6.932   3.070  16.804  1.00  0.00     0.006 C
HETATM   14  C9  UNL     1      -6.207   2.168  17.788  1.00  0.00     0.001 C
HETATM   15  C10 UNL     1      -5.767   0.949  17.042  1.00  0.00     0.006 C
ATOM     16  H2  UNL     1      -5.075   3.550  13.560  1.00  0.00     0.186 HD
ENDBRANCH   1   9
TORSDOF 4
ENDMDL