MODEL 3
REMARK VINA RESULT: -5.448160226      1.168      1.746
REMARK  3 active torsions:
REMARK  status: ('A' for Active; 'I' for Inactive)
REMARK    1  A    between atoms: N1_4  and  C4_6
REMARK    2  A    between atoms: C5_7  and  C6_8
REMARK    3  A    between atoms: C7_9  and  N2_11
ROOT
HETATM    1  C6  UNL     1      -3.731   4.649  14.742  1.00  0.00     0.039 C
HETATM    2  C7  UNL     1      -4.975   4.319  15.070  1.00  0.00     0.079 C
HETATM    3  S1  UNL     1      -6.304   5.266  14.362  1.00  0.00    -0.033 SA
ENDROOT
BRANCH   1   4
HETATM    4  C5  UNL     1      -3.440   5.736  13.842  1.00  0.00     0.020 C
HETATM    5  C4  UNL     1      -2.795   6.797  14.277  1.00  0.00     0.088 C
BRANCH   5   6
HETATM    6  N1  UNL     1      -2.480   7.898  13.440  1.00  0.00    -0.373 N
HETATM    7  C2  UNL     1      -1.987   8.956  13.984  1.00  0.00    -0.022 C
HETATM    8  C1  UNL     1      -1.648  10.116  13.138  1.00  0.00     0.062 C
HETATM    9  C3  UNL     1      -1.749   9.046  15.439  1.00  0.00     0.062 C
ATOM     10  H1  UNL     1      -2.639   7.852  12.433  1.00  0.00     0.164 HD
ENDBRANCH   5   6
ENDBRANCH   1   4
BRANCH   2  11
HETATM   11  N2  UNL     1      -5.304   3.259  15.949  1.00  0.00    -0.375 N
HETATM   12  C8  UNL     1      -4.456   2.105  15.990  1.00  0.00     0.123 C
HETATM   13  C9  UNL     1      -5.115   0.861  16.474  1.00  0.00     0.020 C
HETATM   14  C10 UNL     1      -6.317   1.067  17.326  1.00  0.00     0.003 C
HETATM   15  C11 UNL     1      -7.257   2.094  16.758  1.00  0.00     0.020 C
HETATM   16  C12 UNL     1      -6.493   3.423  16.757  1.00  0.00     0.123 C
ENDBRANCH   2  11
TORSDOF 3
ENDMDL