MODEL 1
REMARK VINA RESULT: -5.927725124      0.000      0.000
REMARK  3 active torsions:
REMARK  status: ('A' for Active; 'I' for Inactive)
REMARK    1  A    between atoms: N1_2  and  C2_5
REMARK    2  A    between atoms: C9_12  and  C10_13
REMARK    3  A    between atoms: C11_14  and  C12_15
ROOT
HETATM    1  C2  UNL     1      -2.723   3.095  11.444  1.00  0.00     0.129 C
HETATM    2  C3  UNL     1      -3.343   3.884  10.334  1.00  0.00     0.047 C
HETATM    3  C4  UNL     1      -1.598   2.261  10.839  1.00  0.00     0.039 C
HETATM    4  C5  UNL     1      -1.924   0.798  10.793  1.00  0.00     0.003 C
HETATM    5  C6  UNL     1      -3.356   0.671  10.355  1.00  0.00     0.005 C
HETATM    6  C7  UNL     1      -4.180   1.045  11.568  1.00  0.00    -0.009 C
HETATM    7  C8  UNL     1      -4.190  -0.168  12.479  1.00  0.00     0.011 C
HETATM    8  C9  UNL     1      -3.635   2.269  12.269  1.00  0.00     0.047 C
ENDROOT
BRANCH   1   9
HETATM    9  N1  UNL     1      -2.051   4.074  12.277  1.00  0.00    -0.070 N
HETATM   10  C1  UNL     1      -0.946   4.717  11.664  1.00  0.00     0.267 C
ATOM     11  H12 UNL     1      -1.769   3.652  13.162  1.00  0.00     0.277 HD
ATOM     12  H11 UNL     1      -2.719   4.766  12.618  1.00  0.00     0.277 HD
ENDBRANCH   1   9
BRANCH   8  13
HETATM   13  C10 UNL     1      -4.710   2.887  13.003  1.00  0.00    -0.023 C
HETATM   14  C11 UNL     1      -4.890   3.170  14.258  1.00  0.00    -0.026 C
BRANCH  14  15
HETATM   15  C12 UNL     1      -6.084   3.821  14.847  1.00  0.00    -0.001 C
HETATM   16  C13 UNL     1      -6.394   3.322  16.243  1.00  0.00     0.013 C
HETATM   17  C14 UNL     1      -5.879   5.317  14.961  1.00  0.00     0.013 C
ENDBRANCH  14  15
ENDBRANCH   8  13
TORSDOF 3
ENDMDL