MODEL 5
REMARK VINA RESULT: -6.646536837      4.936      7.288
REMARK  4 active torsions:
REMARK  status: ('A' for Active; 'I' for Inactive)
REMARK    1  A    between atoms: O1_2  and  C2_3
REMARK    2  A    between atoms: C2_3  and  C3_5
REMARK    3  A    between atoms: C5_7  and  N1_8
REMARK       I    between atoms: N1_8  and  C6_10
REMARK       I    between atoms: C6_10  and  N3_14
REMARK    4  A    between atoms: N3_14  and  C7_16
ROOT
HETATM    1  N1  UNL     1       7.468  12.920  23.680  1.00  0.00    -0.188 N
ATOM      2  H1  UNL     1       8.076  13.346  22.981  1.00  0.00     0.184 HD
HETATM    3  C6  UNL     1       6.988  13.705  24.770  1.00  0.00     0.702 C
HETATM    4  N2  UNL     1       7.600  13.687  25.881  1.00  0.00    -0.054 N
ATOM      5  H2  UNL     1       7.251  14.251  26.656  1.00  0.00     0.218 HD
HETATM    6  F1  UNL     1       8.699  12.937  26.054  1.00  0.00    -0.086 F
HETATM    7  N3  UNL     1       5.820  14.486  24.545  1.00  0.00    -0.220 N
ATOM      8  H3  UNL     1       5.765  15.009  23.671  1.00  0.00     0.178 HD
ENDROOT
BRANCH   1   9
HETATM    9  C5  UNL     1       7.110  11.556  23.556  1.00  0.00     0.074 A
HETATM   10  C4  UNL     1       5.840  11.075  23.348  1.00  0.00     0.075 A
HETATM   11  C3  UNL     1       5.917   9.680  23.284  1.00  0.00     0.152 A
HETATM   12  O3  UNL     1       7.165   9.386  23.446  1.00  0.00    -0.314 OA
HETATM   13  C10 UNL     1       7.919  10.446  23.611  1.00  0.00     0.173 A
BRANCH  11  14
HETATM   14  C2  UNL     1       4.780   8.779  23.073  1.00  0.00     0.317 C
HETATM   15  O2  UNL     1       4.352   8.133  24.063  1.00  0.00    -0.257 OA
BRANCH  14  16
HETATM   16  O1  UNL     1       4.164   8.606  21.866  1.00  0.00    -0.321 OA
HETATM   17  C1  UNL     1       4.804   8.764  20.614  1.00  0.00     0.213 C
ENDBRANCH  14  16
ENDBRANCH  11  14
ENDBRANCH   1   9
BRANCH   7  18
HETATM   18  C7  UNL     1       4.724  14.594  25.442  1.00  0.00     0.091 C
HETATM   19  C8  UNL     1       4.510  15.986  25.977  1.00  0.00     0.032 C
HETATM   20  C9  UNL     1       3.450  14.186  24.733  1.00  0.00     0.032 C
ENDBRANCH   7  18
TORSDOF 4
ENDMDL