MODEL 3
REMARK VINA RESULT: -7.344824246      5.588      7.596
REMARK  4 active torsions:
REMARK  status: ('A' for Active; 'I' for Inactive)
REMARK    1  A    between atoms: N1_1  and  C1_4
REMARK    2  A    between atoms: C3_10  and  C4_11
REMARK    3  A    between atoms: N3_12  and  O2_14
REMARK    4  A    between atoms: O2_14  and  C5_15
ROOT
HETATM    1  C1  UNL     1       5.374  14.767  25.036  1.00  0.00     0.135 A
HETATM    2  N2  UNL     1       4.441  13.982  24.406  1.00  0.00    -0.243 N
ATOM      3  H2  UNL     1       3.454  14.214  24.288  1.00  0.00     0.196 HD
HETATM    4  O1  UNL     1       5.006  12.913  23.992  1.00  0.00    -0.223 OA
HETATM    5  C2  UNL     1       6.272  12.896  24.289  1.00  0.00     0.183 A
HETATM    6 CL1  UNL     1       7.460  11.643  23.930  1.00  0.00    -0.053 Cl
HETATM    7  C3  UNL     1       6.570  14.068  24.964  1.00  0.00     0.074 A
ENDROOT
BRANCH   7   8
HETATM    8  C4  UNL     1       7.880  14.431  25.467  1.00  0.00     0.133 C
HETATM    9  N3  UNL     1       8.823  14.731  24.667  1.00  0.00    -0.277 N
ATOM     10  H3  UNL     1       8.658  14.718  23.661  1.00  0.00     0.193 HD
BRANCH   9  11
HETATM   11  O2  UNL     1      10.053  15.071  25.150  1.00  0.00    -0.275 OA
BRANCH  11  12
HETATM   12  C5  UNL     1      10.735  14.148  25.975  1.00  0.00     0.152 C
HETATM   13  C6  UNL     1      12.096  13.898  25.366  1.00  0.00     0.034 C
HETATM   14  C7  UNL     1      13.189  14.675  26.066  1.00  0.00     0.002 C
HETATM   15  C8  UNL     1      13.307  14.280  27.523  1.00  0.00     0.000 C
HETATM   16  C9  UNL     1      11.929  14.056  28.138  1.00  0.00     0.002 C
HETATM   17  C10 UNL     1      10.949  14.845  27.320  1.00  0.00     0.034 C
ENDBRANCH  11  12
ENDBRANCH   9  11
ENDBRANCH   7   8
BRANCH   1  18
HETATM   18  N1  UNL     1       5.142  15.894  25.560  1.00  0.00    -0.383 N
ATOM     19  H12 UNL     1       4.273  16.250  25.958  1.00  0.00     0.157 HD
ATOM     20  H11 UNL     1       5.825  16.644  25.665  1.00  0.00     0.157 HD
ENDBRANCH   1  18
TORSDOF 4
ENDMDL