MODEL 1
REMARK VINA RESULT: -6.734815291      0.000      0.000
REMARK  5 active torsions:
REMARK  status: ('A' for Active; 'I' for Inactive)
REMARK    1  A    between atoms: C2_2  and  C4_4
REMARK    2  A    between atoms: C4_4  and  C5_5
REMARK    3  A    between atoms: C9_9  and  C10_10
REMARK    4  A    between atoms: C10_10  and  O2_15
REMARK    5  A    between atoms: N1_11  and  O1_13
ROOT
HETATM    1  C5  UNL     1       8.683  14.330  26.036  1.00  0.00     0.122 C
HETATM    2  C6  UNL     1       9.012  12.857  25.680  1.00  0.00     0.046 C
HETATM    3  C7  UNL     1       7.448  14.317  26.831  1.00  0.00     0.039 C
HETATM    4  C8  UNL     1       6.316  15.137  26.187  1.00  0.00     0.017 C
HETATM    5  C9  UNL     1       6.070  14.724  24.778  1.00  0.00     0.089 C
HETATM    6  C11 UNL     1       7.368  14.286  24.090  1.00  0.00     0.246 C
HETATM    7  N2  UNL     1       8.468  14.965  24.720  1.00  0.00    -0.066 N
ATOM      8  H21 UNL     1       9.309  14.981  24.143  1.00  0.00     0.278 HD
ATOM      9  H22 UNL     1       8.330  15.974  24.782  1.00  0.00     0.278 HD
ENDROOT
BRANCH   5  10
HETATM   10  C10 UNL     1       5.033  13.671  24.648  1.00  0.00     0.165 C
HETATM   11  N1  UNL     1       5.268  12.605  23.963  1.00  0.00    -0.249 N
ATOM     12  H1  UNL     1       6.179  12.504  23.516  1.00  0.00     0.196 HD
BRANCH  11  13
HETATM   13  O1  UNL     1       4.354  11.607  23.810  1.00  0.00    -0.288 OA
ATOM     14  H1  UNL     1       3.544  11.719  23.327  1.00  0.00     0.244 HD
ENDBRANCH  11  13
BRANCH  10  15
HETATM   15  O2  UNL     1       3.803  13.802  25.250  1.00  0.00    -0.225 OA
HETATM   16 CL1  UNL     1       2.416  14.449  24.426  1.00  0.00     0.069 Cl
ENDBRANCH  10  15
ENDBRANCH   5  10
BRANCH   1  17
HETATM   17  C4  UNL     1       9.928  14.872  26.606  1.00  0.00     0.042 C
BRANCH  17  18
HETATM   18  C2  UNL     1      11.135  14.026  26.687  1.00  0.00    -0.020 C
HETATM   19  C1  UNL     1      11.695  14.201  28.128  1.00  0.00     0.009 C
HETATM   20  C3  UNL     1      12.303  14.471  25.820  1.00  0.00     0.009 C
ENDBRANCH  17  18
ENDBRANCH   1  17
TORSDOF 5
ENDMDL