MODEL 5
REMARK VINA RESULT: -6.424911289      3.439      5.488
REMARK  3 active torsions:
REMARK  status: ('A' for Active; 'I' for Inactive)
REMARK    1  A    between atoms: C2_7  and  C3_8
REMARK    2  A    between atoms: N3_14  and  N4_15
REMARK    3  A    between atoms: N4_15  and  C9_17
ROOT
HETATM    1  S1  UNL     1       8.239   9.086  22.983  1.00  0.00    -0.037 SA
HETATM    2  C1  UNL     1       7.854  10.570  23.597  1.00  0.00     0.213 A
HETATM    3  N1  UNL     1       8.705  11.353  24.311  1.00  0.00    -0.273 N
ATOM      4  H1  UNL     1       9.665  11.113  24.559  1.00  0.00     0.189 HD
HETATM    5  N2  UNL     1       8.094  12.462  24.629  1.00  0.00    -0.285 N
ATOM      6  H2  UNL     1       8.497  13.231  25.164  1.00  0.00     0.188 HD
HETATM    7  C2  UNL     1       6.852  12.421  24.134  1.00  0.00     0.124 A
HETATM    8  N3  UNL     1       6.716  11.233  23.493  1.00  0.00    -0.218 N
ENDROOT
BRANCH   7   9
HETATM    9  C3  UNL     1       5.921  13.538  24.333  1.00  0.00     0.057 C
HETATM   10  C4  UNL     1       6.089  13.998  25.787  1.00  0.00     0.012 C
HETATM   11  C5  UNL     1       5.632  15.451  25.776  1.00  0.00     0.001 C
HETATM   12  C6  UNL     1       4.243  15.469  25.199  1.00  0.00     0.000 C
HETATM   13  C7  UNL     1       3.655  14.087  25.052  1.00  0.00     0.001 C
HETATM   14  C8  UNL     1       4.485  13.198  24.147  1.00  0.00     0.012 C
ENDBRANCH   7   9
BRANCH   8  15
HETATM   15  N4  UNL     1       5.548  10.866  22.889  1.00  0.00    -0.312 N
ATOM     16  H4  UNL     1       5.230  11.443  22.110  1.00  0.00     0.182 HD
BRANCH  15  17
HETATM   17  C9  UNL     1       4.729   9.750  23.244  1.00  0.00     0.254 C
HETATM   18 CL1  UNL     1       4.567   8.553  21.919  1.00  0.00    -0.107 Cl
ENDBRANCH  15  17
ENDBRANCH   8  15
TORSDOF 3
ENDMDL