MODEL 2
REMARK VINA RESULT: -6.490760919      2.523      3.679
REMARK  5 active torsions:
REMARK  status: ('A' for Active; 'I' for Inactive)
REMARK    1  A    between atoms: S1_2  and  C2_3
REMARK    2  A    between atoms: C2_3  and  C3_7
REMARK    3  A    between atoms: C3_7  and  C4_8
REMARK    4  A    between atoms: C3_7  and  N2_10
REMARK    5  A    between atoms: N2_10  and  N3_12
ROOT
HETATM    1  N2  UNL     1       8.954  14.601  24.968  1.00  0.00    -0.324 N
ATOM      2  H2  UNL     1       9.333  15.320  24.351  1.00  0.00     0.181 HD
ENDROOT
BRANCH   1   3
HETATM    3  C3  UNL     1       9.489  14.415  26.300  1.00  0.00     0.169 C
BRANCH   3   4
HETATM    4  C2  UNL     1      10.957  14.263  26.189  1.00  0.00     0.065 C
HETATM    5  N1  UNL     1      11.542  14.121  25.078  1.00  0.00    -0.395 N
ATOM      6  H12 UNL     1      12.554  14.016  25.001  1.00  0.00     0.156 HD
ATOM      7  H11 UNL     1      10.991  14.110  24.220  1.00  0.00     0.156 HD
BRANCH   4   8
HETATM    8  S1  UNL     1      11.918  14.283  27.686  1.00  0.00    -0.119 SA
HETATM    9  C1  UNL     1      13.669  14.336  27.239  1.00  0.00     0.097 C
ENDBRANCH   4   8
ENDBRANCH   3   4
BRANCH   3  10
HETATM   10  C4  UNL     1       8.876  13.236  27.014  1.00  0.00     0.148 C
HETATM   11 CL1  UNL     1       7.290  13.730  27.640  1.00  0.00    -0.128 Cl
ENDBRANCH   3  10
ENDBRANCH   1   3
BRANCH   1  12
HETATM   12  N3  UNL     1       7.922  13.790  24.550  1.00  0.00    -0.312 N
HETATM   13  C5  UNL     1       6.690  14.121  24.501  1.00  0.00     0.003 C
HETATM   14  C6  UNL     1       6.297  15.476  24.917  1.00  0.00     0.054 C
HETATM   15  C10 UNL     1       5.750  13.096  24.021  1.00  0.00     0.054 C
HETATM   16  C7  UNL     1       4.804  15.638  25.029  1.00  0.00     0.006 C
HETATM   17  C8  UNL     1       4.259  14.304  25.543  1.00  0.00     0.001 C
HETATM   18  C9  UNL     1       4.327  13.344  24.401  1.00  0.00     0.006 C
ATOM     19  H3  UNL     1       8.163  12.844  24.255  1.00  0.00     0.186 HD
ENDBRANCH   1  12
TORSDOF 5
ENDMDL