MODEL 5
REMARK VINA RESULT: -5.797518407      1.132      1.898
REMARK  4 active torsions:
REMARK  status: ('A' for Active; 'I' for Inactive)
REMARK    1  A    between atoms: C2_2  and  O1_3
REMARK    2  A    between atoms: O1_3  and  C3_4
REMARK    3  A    between atoms: C4_5  and  C5_6
REMARK    4  A    between atoms: C9_15  and  N4_16
ROOT
HETATM    1  C5  UNL     1       4.915   9.184  22.767  1.00  0.00     0.171 C
HETATM    2  C6  UNL     1       4.955   7.799  23.217  1.00  0.00     0.054 C
HETATM    3  C7  UNL     1       3.631   9.795  23.216  1.00  0.00     0.089 C
HETATM    4  N1  UNL     1       2.639  10.274  23.568  1.00  0.00    -0.195 NA
HETATM    5  C8  UNL     1       4.907   9.146  21.270  1.00  0.00     0.089 C
HETATM    6  N2  UNL     1       4.901   9.137  20.123  1.00  0.00    -0.195 NA
ENDROOT
BRANCH   1   7
HETATM    7  C4  UNL     1       6.033  10.075  23.180  1.00  0.00     0.073 A
HETATM    8  C3  UNL     1       6.133  11.375  23.549  1.00  0.00     0.130 A
HETATM    9  C9  UNL     1       7.382  11.809  23.939  1.00  0.00     0.140 A
HETATM   10  N3  UNL     1       8.375  10.944  23.922  1.00  0.00    -0.310 N
HETATM   11  S1  UNL     1       7.676   9.524  23.386  1.00  0.00    -0.012 SA
ATOM     12  H3  UNL     1       9.350  11.104  24.178  1.00  0.00     0.176 HD
BRANCH   8  13
HETATM   13  O1  UNL     1       5.042  12.294  23.546  1.00  0.00    -0.347 OA
BRANCH  13  14
HETATM   14  C2  UNL     1       4.484  12.874  24.670  1.00  0.00     0.171 C
HETATM   15  C1  UNL     1       4.218  14.331  24.719  1.00  0.00     0.034 C
ENDBRANCH  13  14
ENDBRANCH   8  13
BRANCH   9  16
HETATM   16  N4  UNL     1       7.603  13.059  24.326  1.00  0.00    -0.383 N
ATOM     17  H42 UNL     1       7.185  13.403  25.191  1.00  0.00     0.157 HD
ATOM     18  H41 UNL     1       8.181  13.699  23.782  1.00  0.00     0.157 HD
ENDBRANCH   9  16
ENDBRANCH   1   7
TORSDOF 4
ENDMDL