MODEL 2
REMARK VINA RESULT: -7.519629249      0.886      1.758
REMARK  4 active torsions:
REMARK  status: ('A' for Active; 'I' for Inactive)
REMARK    1  A    between atoms: C1_4  and  O1_5
REMARK    2  A    between atoms: O1_5  and  N2_6
REMARK    3  A    between atoms: N2_6  and  C2_8
REMARK    4  A    between atoms: C3_13  and  N5_14
ROOT
HETATM    1  C2  UNL     1      10.173  14.001  26.946  1.00  0.00     0.166 A
HETATM    2  N3  UNL     1       9.441  13.265  27.788  1.00  0.00    -0.281 N
ATOM      3  H3  UNL     1       9.816  12.730  28.571  1.00  0.00     0.188 HD
HETATM    4  N4  UNL     1       8.169  13.328  27.463  1.00  0.00    -0.282 N
ATOM      5  H4  UNL     1       7.414  12.850  27.955  1.00  0.00     0.188 HD
HETATM    6  C3  UNL     1       8.011  14.117  26.383  1.00  0.00     0.144 A
HETATM    7  C10 UNL     1       9.297  14.549  26.051  1.00  0.00     0.126 A
HETATM    8 CL1  UNL     1       9.706  15.610  24.717  1.00  0.00    -0.076 Cl
ENDROOT
BRANCH   1   9
HETATM    9  N2  UNL     1      11.456  14.133  27.012  1.00  0.00    -0.241 N
ATOM     10  H2  UNL     1      11.991  14.142  26.143  1.00  0.00     0.196 HD
BRANCH   9  11
HETATM   11  O1  UNL     1      12.129  14.262  28.193  1.00  0.00    -0.232 OA
BRANCH  11  12
HETATM   12  C1  UNL     1      13.495  14.039  28.239  1.00  0.00     0.252 C
HETATM   13  N1  UNL     1      13.935  13.240  29.155  1.00  0.00    -0.388 N
ATOM     14  H12 UNL     1      13.289  12.800  29.810  1.00  0.00     0.157 HD
ATOM     15  H11 UNL     1      14.941  13.076  29.189  1.00  0.00     0.157 HD
ENDBRANCH  11  12
ENDBRANCH   9  11
ENDBRANCH   1   9
BRANCH   6  16
HETATM   16  N5  UNL     1       6.802  14.451  25.709  1.00  0.00    -0.365 N
HETATM   17  C4  UNL     1       6.746  13.999  24.343  1.00  0.00     0.124 C
HETATM   18  C5  UNL     1       5.649  12.961  24.256  1.00  0.00     0.020 C
HETATM   19  C6  UNL     1       4.401  13.394  24.982  1.00  0.00     0.002 C
HETATM   20  C7  UNL     1       4.093  14.852  24.779  1.00  0.00     0.002 C
HETATM   21  C8  UNL     1       4.710  15.745  25.802  1.00  0.00     0.020 C
HETATM   22  C9  UNL     1       5.877  15.173  26.520  1.00  0.00     0.124 C
ENDBRANCH   6  16
TORSDOF 4
ENDMDL