MODEL 4
REMARK VINA RESULT: -6.133748023      2.548      3.632
REMARK  4 active torsions:
REMARK  status: ('A' for Active; 'I' for Inactive)
REMARK    1  A    between atoms: C2_2  and  C3_3
REMARK    2  A    between atoms: C3_3  and  C4_4
REMARK    3  A    between atoms: C4_4  and  S1_5
REMARK    4  A    between atoms: S1_5  and  C5_6
ROOT
HETATM    1  C5  UNL     1       0.473   9.994  25.287  1.00  0.00     0.184 C
HETATM    2  N1  UNL     1      -0.246   8.925  24.628  1.00  0.00    -0.211 N
ATOM      3  H1  UNL     1      -0.893   9.140  23.868  1.00  0.00     0.179 HD
HETATM    4  C6  UNL     1      -0.052   7.568  25.039  1.00  0.00     0.672 C
HETATM    5  N2  UNL     1      -0.268   6.626  24.199  1.00  0.00    -0.235 N
ATOM      6  H21 UNL     1      -0.130   5.659  24.492  1.00  0.00     0.174 HD
ATOM      7  H22 UNL     1      -0.576   6.783  23.239  1.00  0.00     0.174 HD
HETATM    8  N3  UNL     1       0.376   7.348  26.375  1.00  0.00    -0.199 N
ATOM      9  H3  UNL     1       0.527   6.397  26.709  1.00  0.00     0.183 HD
HETATM   10  C7  UNL     1       0.572   8.338  27.160  1.00  0.00     0.021 C
HETATM   11  C8  UNL     1       1.023   8.032  28.557  1.00  0.00     0.065 C
HETATM   12  C9  UNL     1       0.375   9.746  26.774  1.00  0.00     0.171 C
HETATM   13  C10 UNL     1      -0.951  10.244  27.185  1.00  0.00     0.072 C
HETATM   14  N4  UNL     1      -2.001  10.620  27.504  1.00  0.00    -0.196 NA
ENDROOT
BRANCH   1  15
HETATM   15  S1  UNL     1      -0.314  11.562  24.920  1.00  0.00    -0.141 SA
BRANCH  15  16
HETATM   16  C4  UNL     1       0.466  12.421  23.534  1.00  0.00     0.076 C
BRANCH  16  17
HETATM   17  C3  UNL     1       1.323  13.547  24.050  1.00  0.00     0.010 C
BRANCH  17  18
HETATM   18  C2  UNL     1       2.769  13.175  24.175  1.00  0.00    -0.004 C
HETATM   19  C1  UNL     1       3.611  14.271  24.775  1.00  0.00     0.005 C
ENDBRANCH  17  18
ENDBRANCH  16  17
ENDBRANCH  15  16
ENDBRANCH   1  15
TORSDOF 4
ENDMDL