MODEL 3
REMARK VINA RESULT: -5.640844924      2.786      4.296
REMARK  4 active torsions:
REMARK  status: ('A' for Active; 'I' for Inactive)
REMARK    1  A    between atoms: C2_2  and  N1_3
REMARK    2  A    between atoms: C3_4  and  C4_5
REMARK    3  A    between atoms: C4_5  and  O1_7
REMARK    4  A    between atoms: C6_9  and  C7_10
ROOT
HETATM    1  N1  UNL     1       5.142  12.188  24.058  1.00  0.00    -0.320 N
HETATM    2  C3  UNL     1       3.933  11.711  23.744  1.00  0.00     0.090 A
HETATM    3  C6  UNL     1       2.974  12.717  23.996  1.00  0.00     0.064 A
HETATM    4  N2  UNL     1       3.706  13.736  24.463  1.00  0.00    -0.333 N
ATOM      5  H2  UNL     1       3.316  14.633  24.755  1.00  0.00     0.168 HD
HETATM    6  C10 UNL     1       4.961  13.450  24.502  1.00  0.00     0.179 A
HETATM    7  S1  UNL     1       6.192  14.432  25.064  1.00  0.00    -0.040 SA
ENDROOT
BRANCH   2   8
HETATM    8  C4  UNL     1       3.563  10.324  23.479  1.00  0.00     0.068 C
HETATM    9  C5  UNL     1       3.174   9.385  24.562  1.00  0.00     0.078 C
BRANCH   8  10
HETATM   10  O1  UNL     1       3.832   9.793  22.228  1.00  0.00    -0.363 OA
ATOM     11  H1  UNL     1       3.231   9.151  21.867  1.00  0.00     0.217 HD
ENDBRANCH   8  10
ENDBRANCH   2   8
BRANCH   1  12
HETATM   12  C2  UNL     1       6.435  11.557  23.962  1.00  0.00     0.127 C
HETATM   13  C1  UNL     1       6.924  11.457  22.502  1.00  0.00     0.027 C
ENDBRANCH   1  12
BRANCH   3  14
HETATM   14  C7  UNL     1       1.571  12.823  23.659  1.00  0.00     0.074 C
HETATM   15  C8  UNL     1       1.106  14.284  24.054  1.00  0.00     0.039 C
HETATM   16  C9  UNL     1       0.989  12.521  22.361  1.00  0.00     0.039 C
HETATM   17 CL1  UNL     1       0.642  11.810  24.814  1.00  0.00    -0.113 Cl
ENDBRANCH   3  14
TORSDOF 4
ENDMDL