MODEL 2
REMARK VINA RESULT: -6.970937707      4.123      6.070
REMARK  5 active torsions:
REMARK  status: ('A' for Active; 'I' for Inactive)
REMARK    1  A    between atoms: C2_2  and  C3_3
REMARK    2  A    between atoms: C3_3  and  C4_4
REMARK    3  A    between atoms: N1_6  and  N2_8
REMARK    4  A    between atoms: N2_8  and  C6_10
REMARK    5  A    between atoms: C7_13  and  O1_14
ROOT
HETATM    1  C6  UNL     1       7.786  11.653  24.116  1.00  0.00     0.166 A
HETATM    2  N3  UNL     1       8.434  10.586  23.656  1.00  0.00    -0.315 N
ATOM      3  H3  UNL     1       9.350  10.336  24.026  1.00  0.00     0.170 HD
HETATM    4  C7  UNL     1       7.876   9.864  22.722  1.00  0.00     0.170 A
HETATM    5  C8  UNL     1       6.645  10.250  22.266  1.00  0.00     0.139 A
HETATM    6  C9  UNL     1       5.812   9.632  21.244  1.00  0.00     0.111 C
HETATM    7  N4  UNL     1       5.139   9.147  20.438  1.00  0.00    -0.191 NA
HETATM    8  S1  UNL     1       6.344  11.643  23.206  1.00  0.00    -0.037 SA
ENDROOT
BRANCH   4   9
HETATM    9  O1  UNL     1       8.483   8.705  22.161  1.00  0.00    -0.344 OA
ATOM     10  H1  UNL     1       8.723   8.632  21.245  1.00  0.00     0.219 HD
ENDBRANCH   4   9
BRANCH   1  11
HETATM   11  N2  UNL     1       8.122  12.521  25.029  1.00  0.00    -0.280 N
ATOM     12  H2  UNL     1       9.112  12.616  25.258  1.00  0.00     0.189 HD
BRANCH  11  13
HETATM   13  N1  UNL     1       7.228  13.314  25.701  1.00  0.00    -0.307 N
HETATM   14  C4  UNL     1       6.936  14.533  25.429  1.00  0.00    -0.000 C
HETATM   15  C5  UNL     1       7.604  15.187  24.291  1.00  0.00     0.065 C
ATOM     16  H1  UNL     1       6.747  12.893  26.495  1.00  0.00     0.186 HD
BRANCH  14  17
HETATM   17  C3  UNL     1       5.946  15.247  26.256  1.00  0.00     0.053 C
BRANCH  17  18
HETATM   18  C2  UNL     1       4.870  15.901  25.436  1.00  0.00     0.001 C
HETATM   19  C1  UNL     1       3.864  14.824  25.066  1.00  0.00     0.005 C
ENDBRANCH  17  18
ENDBRANCH  14  17
ENDBRANCH  11  13
ENDBRANCH   1  11
TORSDOF 5
ENDMDL