MODEL 3
REMARK VINA RESULT: -6.504579987      1.430      1.456
REMARK  3 active torsions:
REMARK  status: ('A' for Active; 'I' for Inactive)
REMARK    1  A    between atoms: C3_5  and  N2_6
REMARK    2  A    between atoms: N2_6  and  C4_8
REMARK    3  A    between atoms: C10_16  and  O1_17
ROOT
HETATM    1  N1  UNL     1      33.964   7.159  29.435  1.00  0.00    -0.191 NA
HETATM    2  C1  UNL     1      33.547   7.479  28.406  1.00  0.00     0.111 C
HETATM    3  C2  UNL     1      33.003   7.895  27.119  1.00  0.00     0.139 A
HETATM    4  S1  UNL     1      31.511   8.646  26.775  1.00  0.00    -0.039 SA
HETATM    5  C3  UNL     1      31.682   8.776  25.057  1.00  0.00     0.148 A
HETATM    6  N3  UNL     1      32.881   8.230  24.859  1.00  0.00    -0.316 N
ATOM      7  H3  UNL     1      33.266   8.163  23.917  1.00  0.00     0.170 HD
HETATM    8  C10 UNL     1      33.558   7.784  25.876  1.00  0.00     0.170 A
ENDROOT
BRANCH   8   9
HETATM    9  O1  UNL     1      34.844   7.188  25.755  1.00  0.00    -0.344 OA
ATOM     10  H1  UNL     1      35.181   7.005  24.885  1.00  0.00     0.219 HD
ENDBRANCH   8   9
BRANCH   5  11
HETATM   11  N2  UNL     1      30.839   9.280  24.209  1.00  0.00    -0.366 N
ATOM     12  H2  UNL     1      30.018   8.707  24.015  1.00  0.00     0.162 HD
BRANCH  11  13
HETATM   13  C4  UNL     1      30.897  10.503  23.518  1.00  0.00     0.083 C
HETATM   14  C5  UNL     1      31.964  11.474  23.995  1.00  0.00     0.025 C
HETATM   15  C6  UNL     1      31.740  12.758  23.203  1.00  0.00     0.002 C
HETATM   16  C7  UNL     1      31.089  12.472  21.860  1.00  0.00     0.000 C
HETATM   17  C8  UNL     1      29.666  11.972  22.006  1.00  0.00     0.002 C
HETATM   18  C9  UNL     1      29.624  11.269  23.373  1.00  0.00     0.025 C
ENDBRANCH  11  13
ENDBRANCH   5  11
TORSDOF 3
ENDMDL