MODEL 2
REMARK VINA RESULT: -6.683254981      4.025      7.028
REMARK  4 active torsions:
REMARK  status: ('A' for Active; 'I' for Inactive)
REMARK    1  A    between atoms: O1_1  and  C1_3
REMARK    2  A    between atoms: C3_6  and  N1_7
REMARK    3  A    between atoms: N1_7  and  N2_9
REMARK    4  A    between atoms: C4_11  and  C5_12
ROOT
HETATM    1  N1  UNL     1      31.162   8.088  26.335  1.00  0.00    -0.280 N
ATOM      2  H1  UNL     1      30.568   7.383  25.899  1.00  0.00     0.189 HD
ENDROOT
BRANCH   1   3
HETATM    3  C3  UNL     1      31.920   7.830  27.383  1.00  0.00     0.165 A
HETATM    4  S1  UNL     1      33.607   7.596  27.480  1.00  0.00    -0.060 SA
HETATM    5  C2  UNL     1      33.727   7.325  29.160  1.00  0.00     0.109 A
HETATM    6  C1  UNL     1      32.422   7.434  29.560  1.00  0.00     0.148 A
HETATM    7  N3  UNL     1      31.526   7.689  28.649  1.00  0.00    -0.316 N
ATOM      8  H3  UNL     1      30.541   7.780  28.900  1.00  0.00     0.170 HD
BRANCH   6   9
HETATM    9  O1  UNL     1      32.096   7.266  30.941  1.00  0.00    -0.346 OA
ATOM     10  H1  UNL     1      31.719   6.445  31.235  1.00  0.00     0.219 HD
ENDBRANCH   6   9
ENDBRANCH   1   3
BRANCH   1  11
HETATM   11  N2  UNL     1      31.235   9.404  25.867  1.00  0.00    -0.313 N
HETATM   12  C4  UNL     1      30.556   9.696  24.810  1.00  0.00     0.084 C
ATOM     13  H2  UNL     1      31.803  10.105  26.344  1.00  0.00     0.185 HD
BRANCH  12  14
HETATM   14  C5  UNL     1      30.596  11.100  24.260  1.00  0.00     0.025 C
HETATM   15  C6  UNL     1      32.012  11.392  23.893  1.00  0.00     0.010 C
HETATM   16  C7  UNL     1      32.020  12.797  23.274  1.00  0.00     0.001 C
HETATM   17  C8  UNL     1      31.375  12.544  21.908  1.00  0.00     0.000 C
HETATM   18  C9  UNL     1      29.962  12.086  22.018  1.00  0.00     0.001 C
HETATM   19  C10 UNL     1      29.605  11.268  23.180  1.00  0.00     0.010 C
ENDBRANCH  12  14
ENDBRANCH   1  11
TORSDOF 4
ENDMDL