MODEL 5
REMARK VINA RESULT: -6.511138837      3.909      6.436
REMARK  2 active torsions:
REMARK  status: ('A' for Active; 'I' for Inactive)
REMARK    1  A    between atoms: C2_2  and  O1_5
REMARK    2  A    between atoms: O1_5  and  C5_6
ROOT
HETATM    1  C5  UNL     1      31.616   9.864  24.106  1.00  0.00     0.122 C
HETATM    2  C6  UNL     1      32.021   8.413  23.827  1.00  0.00     0.037 C
HETATM    3  C7  UNL     1      31.302   7.579  24.901  1.00  0.00     0.066 C
HETATM    4  C8  UNL     1      32.095   7.760  26.170  1.00  0.00     0.163 C
HETATM    5  C9  UNL     1      32.804   9.093  26.181  1.00  0.00     0.066 C
HETATM    6  C10 UNL     1      31.907  10.171  25.555  1.00  0.00     0.037 C
HETATM    7  N1  UNL     1      31.275   7.685  27.353  1.00  0.00    -0.327 N
ATOM      8  H1  UNL     1      30.302   7.980  27.436  1.00  0.00     0.165 HD
HETATM    9  C11 UNL     1      32.077   7.121  28.381  1.00  0.00     0.195 C
HETATM   10  N2  UNL     1      31.834   7.043  29.649  1.00  0.00    -0.370 N
ATOM     11  H21 UNL     1      32.410   6.637  30.387  1.00  0.00     0.159 HD
ATOM     12  H22 UNL     1      31.007   7.380  30.142  1.00  0.00     0.159 HD
HETATM   13  N3  UNL     1      33.247   6.643  27.683  1.00  0.00    -0.234 N
ATOM     14  H3  UNL     1      34.096   6.281  28.117  1.00  0.00     0.197 HD
HETATM   15  O2  UNL     1      33.022   6.761  26.342  1.00  0.00    -0.244 OA
ENDROOT
BRANCH   1  16
HETATM   16  O1  UNL     1      31.972  10.751  23.208  1.00  0.00    -0.376 OA
BRANCH  16  17
HETATM   17  C2  UNL     1      31.502  11.979  23.065  1.00  0.00     0.050 C
HETATM   18  C1  UNL     1      29.975  11.888  23.261  1.00  0.00     0.045 C
HETATM   19  C3  UNL     1      31.976  13.082  23.911  1.00  0.00     0.045 C
HETATM   20  C4  UNL     1      31.679  12.417  21.610  1.00  0.00     0.045 C
ENDBRANCH  16  17
ENDBRANCH   1  16
TORSDOF 2
ENDMDL