MODEL 2
REMARK VINA RESULT: -6.330979616      1.968      2.477
REMARK  1 active torsions:
REMARK  status: ('A' for Active; 'I' for Inactive)
REMARK    1  A    between atoms: C5_5  and  C6_6
ROOT
HETATM    1  C1  UNL     1      31.218   7.733  27.066  1.00  0.00     0.046 C
HETATM    2  C2  UNL     1      31.682   7.972  25.639  1.00  0.00     0.062 C
HETATM    3  C3  UNL     1      31.125   6.795  24.828  1.00  0.00     0.046 C
HETATM    4  C4  UNL     1      31.072   9.258  25.182  1.00  0.00     0.094 C
HETATM    5  C5  UNL     1      31.945  10.081  24.348  1.00  0.00     0.036 C
HETATM    6  N2  UNL     1      33.123   9.709  24.107  1.00  0.00    -0.358 N
ATOM      7  H2  UNL     1      33.704  10.309  23.522  1.00  0.00     0.162 HD
HETATM    8  C10 UNL     1      33.696   8.496  24.605  1.00  0.00     0.297 C
HETATM    9  S1  UNL     1      33.987   7.403  23.189  1.00  0.00    -0.040 SA
HETATM   10  O2  UNL     1      33.034   7.915  25.630  1.00  0.00    -0.346 OA
ENDROOT
BRANCH   5  11
HETATM   11  C6  UNL     1      31.450  11.362  23.778  1.00  0.00     0.267 C
HETATM   12  N1  UNL     1      30.055  11.380  23.579  1.00  0.00    -0.372 N
HETATM   13  C7  UNL     1      29.449  11.755  22.535  1.00  0.00     0.060 C
ATOM     14  H1  UNL     1      29.476  11.059  24.354  1.00  0.00     0.161 HD
HETATM   15  C8  UNL     1      30.227  12.234  21.372  1.00  0.00     0.070 C
HETATM   16  C9  UNL     1      31.593  12.641  21.864  1.00  0.00     0.175 C
HETATM   17  O1  UNL     1      32.120  11.580  22.591  1.00  0.00    -0.361 OA
ENDBRANCH   5  11
TORSDOF 1
ENDMDL