MODEL 1
REMARK VINA RESULT: -7.195066687      0.000      0.000
REMARK  3 active torsions:
REMARK  status: ('A' for Active; 'I' for Inactive)
REMARK    1  A    between atoms: O1_1  and  C1_3
REMARK    2  A    between atoms: C5_8  and  O3_9
REMARK    3  A    between atoms: C6_11  and  C7_12
ROOT
HETATM    1  C1  UNL     1      31.696   7.119  27.087  1.00  0.00     0.194 A
HETATM    2  O2  UNL     1      32.851   7.219  27.704  1.00  0.00    -0.297 OA
HETATM    3  C2  UNL     1      33.542   8.226  27.226  1.00  0.00     0.182 A
HETATM    4  C3  UNL     1      32.795   8.828  26.231  1.00  0.00     0.105 A
HETATM    5  C4  UNL     1      31.621   8.107  26.159  1.00  0.00     0.066 A
HETATM    6  C5  UNL     1      30.825   8.787  25.060  1.00  0.00     0.188 C
HETATM    7  C6  UNL     1      31.353  10.165  25.190  1.00  0.00     0.166 C
HETATM    8  O4  UNL     1      32.762   9.874  25.277  1.00  0.00    -0.340 OA
ENDROOT
BRANCH   7   9
HETATM    9  C7  UNL     1      30.993  11.172  24.190  1.00  0.00     0.018 C
HETATM   10  C8  UNL     1      29.744  10.982  23.409  1.00  0.00     0.007 C
HETATM   11  C9  UNL     1      29.455  12.325  22.706  1.00  0.00     0.000 C
HETATM   12  C10 UNL     1      30.515  12.442  21.632  1.00  0.00     0.000 C
HETATM   13  C11 UNL     1      31.871  12.565  22.298  1.00  0.00     0.000 C
HETATM   14  C12 UNL     1      32.156  11.454  23.246  1.00  0.00     0.007 C
ENDBRANCH   7   9
BRANCH   6  15
HETATM   15  O3  UNL     1      31.232   8.115  23.912  1.00  0.00    -0.388 OA
ATOM     16  H3  UNL     1      31.913   8.678  23.563  1.00  0.00     0.210 HD
ENDBRANCH   6  15
BRANCH   1  17
HETATM   17  O1  UNL     1      30.683   6.185  27.302  1.00  0.00    -0.340 OA
ATOM     18  H1  UNL     1      30.573   5.334  26.894  1.00  0.00     0.220 HD
ENDBRANCH   1  17
TORSDOF 3
ENDMDL