MODEL 2
REMARK VINA RESULT: -6.419474037      0.871      1.613
REMARK  3 active torsions:
REMARK  status: ('A' for Active; 'I' for Inactive)
REMARK    1  A    between atoms: O1_1  and  C1_3
REMARK    2  A    between atoms: C3_6  and  N1_7
REMARK    3  A    between atoms: N1_7  and  N2_9
ROOT
HETATM    1  N1  UNL     1      29.036  10.337  24.279  1.00  0.00    -0.280 N
ATOM      2  H1  UNL     1      28.307   9.669  24.028  1.00  0.00     0.189 HD
ENDROOT
BRANCH   1   3
HETATM    3  C3  UNL     1      29.552  11.120  23.351  1.00  0.00     0.165 A
HETATM    4  S1  UNL     1      31.161  11.654  23.154  1.00  0.00    -0.060 SA
HETATM    5  C2  UNL     1      30.936  12.594  21.745  1.00  0.00     0.109 A
HETATM    6  C1  UNL     1      29.594  12.433  21.504  1.00  0.00     0.148 A
HETATM    7  N3  UNL     1      28.920  11.686  22.327  1.00  0.00    -0.316 N
ATOM      8  H3  UNL     1      27.920  11.538  22.190  1.00  0.00     0.170 HD
BRANCH   6   9
HETATM    9  O1  UNL     1      29.031  13.095  20.371  1.00  0.00    -0.346 OA
ATOM     10  H1  UNL     1      28.161  13.465  20.458  1.00  0.00     0.219 HD
ENDBRANCH   6   9
ENDBRANCH   1   3
BRANCH   1  11
HETATM   11  N2  UNL     1      29.470  10.413  25.582  1.00  0.00    -0.307 N
HETATM   12  C4  UNL     1      30.276   9.527  26.038  1.00  0.00     0.004 C
HETATM   13  C5  UNL     1      30.729   8.429  25.150  1.00  0.00     0.054 C
HETATM   14  C9  UNL     1      30.798   9.529  27.432  1.00  0.00     0.054 C
HETATM   15  C6  UNL     1      32.164   8.111  25.550  1.00  0.00     0.006 C
HETATM   16  C7  UNL     1      32.102   7.449  26.911  1.00  0.00     0.001 C
HETATM   17  C8  UNL     1      31.126   8.118  27.825  1.00  0.00     0.006 C
ATOM     18  H2  UNL     1      29.152  11.173  26.184  1.00  0.00     0.186 HD
ENDBRANCH   1  11
TORSDOF 3
ENDMDL