MODEL 3
REMARK VINA RESULT: -6.765100651      2.137      4.124
REMARK  1 active torsions:
REMARK  status: ('A' for Active; 'I' for Inactive)
REMARK    1  A    between atoms: C8_10  and  C9_11
ROOT
HETATM    1  N1  UNL     1      28.183  13.353  22.039  1.00  0.00    -0.195 NA
HETATM    2  C1  UNL     1      29.099  12.684  22.309  1.00  0.00     0.093 C
HETATM    3  C2  UNL     1      30.252  11.843  22.676  1.00  0.00     0.297 C
HETATM    4  C3  UNL     1      31.450  12.732  22.930  1.00  0.00     0.089 C
HETATM    5  C4  UNL     1      32.580  11.873  23.351  1.00  0.00    -0.021 A
HETATM    6  C5  UNL     1      33.889  11.652  23.041  1.00  0.00     0.034 A
HETATM    7  C6  UNL     1      34.369  10.652  23.874  1.00  0.00     0.143 A
HETATM    8  O1  UNL     1      33.370  10.302  24.646  1.00  0.00    -0.324 OA
HETATM    9  C7  UNL     1      32.289  10.978  24.395  1.00  0.00     0.096 A
HETATM   10  C8  UNL     1      30.885  11.075  24.870  1.00  0.00     0.301 C
HETATM   11  N2  UNL     1      29.947  10.959  23.757  1.00  0.00    -0.042 N
ATOM     12  H21 UNL     1      29.886   9.994  23.432  1.00  0.00     0.280 HD
ATOM     13  H22 UNL     1      28.987  11.088  24.075  1.00  0.00     0.280 HD
ENDROOT
BRANCH  10  14
HETATM   14  C9  UNL     1      30.538  10.186  25.967  1.00  0.00     0.089 A
HETATM   15  C10 UNL     1      31.302   9.194  26.498  1.00  0.00     0.037 A
HETATM   16  C11 UNL     1      30.549   8.613  27.529  1.00  0.00     0.027 A
HETATM   17  C12 UNL     1      29.369   9.325  27.526  1.00  0.00     0.142 A
HETATM   18  O2  UNL     1      29.406  10.228  26.603  1.00  0.00    -0.325 OA
ENDBRANCH  10  14
TORSDOF 1
ENDMDL