MODEL 5
REMARK VINA RESULT: -6.042500846      3.584      4.926
REMARK  4 active torsions:
REMARK  status: ('A' for Active; 'I' for Inactive)
REMARK    1  A    between atoms: O1_1  and  C1_3
REMARK    2  A    between atoms: N1_8  and  C4_9
REMARK    3  A    between atoms: C4_9  and  O3_10
REMARK    4  A    between atoms: C4_9  and  C5_12
ROOT
HETATM    1  C4  UNL     1      31.361   8.662  24.688  1.00  0.00     0.264 C
ENDROOT
BRANCH   1   2
HETATM    2  N1  UNL     1      31.572   8.174  26.039  1.00  0.00    -0.265 N
HETATM    3  C1  UNL     1      32.403   7.188  26.419  1.00  0.00     0.170 A
HETATM    4  C2  UNL     1      32.292   7.050  27.786  1.00  0.00     0.201 A
HETATM    5  O2  UNL     1      31.418   7.928  28.215  1.00  0.00    -0.292 OA
HETATM    6  C3  UNL     1      30.974   8.614  27.180  1.00  0.00     0.225 A
HETATM    7  S1  UNL     1      29.875   9.820  27.198  1.00  0.00    -0.032 SA
BRANCH   3   8
HETATM    8  O1  UNL     1      33.247   6.413  25.612  1.00  0.00    -0.344 OA
ATOM      9  H1  UNL     1      34.188   6.527  25.558  1.00  0.00     0.219 HD
ENDBRANCH   3   8
ENDBRANCH   1   2
BRANCH   1  10
HETATM   10  O3  UNL     1      31.577   7.569  23.821  1.00  0.00    -0.372 OA
ATOM     11  H3  UNL     1      32.401   7.729  23.376  1.00  0.00     0.212 HD
ENDBRANCH   1  10
BRANCH   1  12
HETATM   12  C5  UNL     1      32.358   9.690  24.288  1.00  0.00    -0.010 A
HETATM   13  C6  UNL     1      32.068  11.034  24.388  1.00  0.00     0.011 A
HETATM   14  C7  UNL     1      32.979  12.026  24.024  1.00  0.00     0.001 A
HETATM   15  C8  UNL     1      34.222  11.671  23.543  1.00  0.00     0.000 A
HETATM   16  C9  UNL     1      34.511  10.324  23.443  1.00  0.00     0.001 A
HETATM   17  C10 UNL     1      33.599   9.336  23.808  1.00  0.00     0.011 A
ENDBRANCH   1  12
TORSDOF 4
ENDMDL