MODEL 3
REMARK VINA RESULT: -7.017951208      2.783      4.861
REMARK  2 active torsions:
REMARK  status: ('A' for Active; 'I' for Inactive)
REMARK    1  A    between atoms: C6_6  and  C7_7
REMARK    2  A    between atoms: C11_14  and  O1_15
ROOT
HETATM    1  C7  UNL     1      32.266  11.700  23.172  1.00  0.00     0.077 C
HETATM    2  N1  UNL     1      31.538  12.255  22.265  1.00  0.00    -0.308 N
ATOM      3  H1  UNL     1      31.950  12.963  21.656  1.00  0.00     0.177 HD
HETATM    4  C8  UNL     1      30.196  11.905  22.098  1.00  0.00     0.181 C
HETATM    5  N2  UNL     1      29.079  11.631  21.971  1.00  0.00    -0.172 NA
ENDROOT
BRANCH   1   6
HETATM    6  C6  UNL     1      31.685  10.688  24.041  1.00  0.00     0.029 C
HETATM    7  C5  UNL     1      30.797  11.329  25.116  1.00  0.00     0.010 C
HETATM    8  C4  UNL     1      30.017  10.178  25.707  1.00  0.00     0.001 C
HETATM    9  C3  UNL     1      30.863   9.109  26.282  1.00  0.00     0.010 C
HETATM   10  C2  UNL     1      32.098   8.753  25.542  1.00  0.00    -0.040 C
HETATM   11  C1  UNL     1      33.089   8.271  26.612  1.00  0.00     0.015 C
HETATM   12  C9  UNL     1      32.742   9.920  24.838  1.00  0.00     0.005 C
HETATM   13  C13 UNL     1      31.827   7.587  24.647  1.00  0.00     0.012 C
HETATM   14  C10 UNL     1      33.911   9.569  24.021  1.00  0.00     0.037 C
HETATM   15  C11 UNL     1      34.013   8.171  23.547  1.00  0.00     0.118 C
HETATM   16  C12 UNL     1      32.727   7.417  23.500  1.00  0.00     0.032 C
BRANCH  15  17
HETATM   17  O1  UNL     1      34.530   8.166  22.231  1.00  0.00    -0.396 OA
ATOM     18  H1  UNL     1      35.232   7.529  22.176  1.00  0.00     0.210 HD
ENDBRANCH  15  17
ENDBRANCH   1   6
TORSDOF 2
ENDMDL