MODEL 4
REMARK VINA RESULT: -6.657342021      2.448      3.695
REMARK  3 active torsions:
REMARK  status: ('A' for Active; 'I' for Inactive)
REMARK    1  A    between atoms: N1_1  and  C1_4
REMARK    2  A    between atoms: C3_8  and  C4_9
REMARK    3  A    between atoms: C12_17  and  O3_18
ROOT
HETATM    1  C4  UNL     1      32.333   9.972  25.601  1.00  0.00     0.054 C
HETATM    2  C5  UNL     1      33.327  10.153  24.571  1.00  0.00     0.012 C
HETATM    3  C6  UNL     1      33.846  11.189  23.741  1.00  0.00     0.004 C
HETATM    4  C7  UNL     1      35.194  10.539  23.273  1.00  0.00     0.027 C
HETATM    5  C8  UNL     1      35.028   9.211  22.655  1.00  0.00    -0.031 C
HETATM    6  C9  UNL     1      34.704   8.026  23.037  1.00  0.00    -0.031 C
HETATM    7  C10 UNL     1      34.325   7.417  24.348  1.00  0.00     0.029 C
HETATM    8  C11 UNL     1      32.944   7.582  24.824  1.00  0.00     0.036 C
HETATM    9  C12 UNL     1      32.604   8.473  25.967  1.00  0.00     0.127 C
ENDROOT
BRANCH   1  10
HETATM   10  C3  UNL     1      30.930  10.120  25.227  1.00  0.00     0.027 A
HETATM   11  C1  UNL     1      29.891  10.273  26.122  1.00  0.00     0.181 A
HETATM   12  O1  UNL     1      28.779  10.369  25.436  1.00  0.00    -0.174 OA
HETATM   13  O2  UNL     1      29.050  10.288  24.189  1.00  0.00    -0.202 OA
HETATM   14  C2  UNL     1      30.334  10.135  23.980  1.00  0.00     0.188 A
BRANCH  11  15
HETATM   15  N1  UNL     1      29.967  10.319  27.420  1.00  0.00    -0.377 N
ATOM     16  H12 UNL     1      30.771  10.597  27.982  1.00  0.00     0.158 HD
ATOM     17  H11 UNL     1      29.209  10.074  28.056  1.00  0.00     0.158 HD
ENDBRANCH  11  15
ENDBRANCH   1  10
BRANCH   9  18
HETATM   18  O3  UNL     1      33.636   8.452  26.873  1.00  0.00    -0.395 OA
ATOM     19  H3  UNL     1      34.286   7.839  26.550  1.00  0.00     0.210 HD
ENDBRANCH   9  18
TORSDOF 3
ENDMDL