MODEL 2
REMARK VINA RESULT: -5.332685990      2.701      5.637
REMARK  5 active torsions:
REMARK  status: ('A' for Active; 'I' for Inactive)
REMARK    1  A    between atoms: S1_2  and  C2_3
REMARK    2  A    between atoms: C2_3  and  C3_7
REMARK    3  A    between atoms: C3_7  and  S2_8
REMARK    4  A    between atoms: S2_8  and  C4_9
REMARK    5  A    between atoms: C5_12  and  N3_13
ROOT
HETATM    1  C4  UNL     1      -0.582  12.042  23.736  1.00  0.00     0.085 A
HETATM    2  N2  UNL     1      -1.582  12.384  22.967  1.00  0.00    -0.331 N
ATOM      3  H2  UNL     1      -2.543  12.214  23.262  1.00  0.00     0.168 HD
HETATM    4  C5  UNL     1      -1.328  12.956  21.793  1.00  0.00     0.143 A
HETATM    5  S3  UNL     1       0.375  13.019  21.762  1.00  0.00    -0.057 SA
HETATM    6  C6  UNL     1       0.684  12.299  23.277  1.00  0.00     0.016 A
HETATM    7  C7  UNL     1       2.011  12.026  23.921  1.00  0.00     0.059 C
ENDROOT
BRANCH   1   8
HETATM    8  S2  UNL     1      -0.773  11.250  25.373  1.00  0.00    -0.105 SA
BRANCH   8   9
HETATM    9  C3  UNL     1      -0.038   9.593  25.238  1.00  0.00     0.144 C
BRANCH   9  10
HETATM   10  C2  UNL     1       0.389   9.131  26.582  1.00  0.00     0.049 C
HETATM   11  N1  UNL     1      -0.346   9.360  27.596  1.00  0.00    -0.396 N
ATOM     12  H12 UNL     1      -0.052   9.043  28.520  1.00  0.00     0.156 HD
ATOM     13  H11 UNL     1      -1.227   9.860  27.479  1.00  0.00     0.156 HD
BRANCH  10  14
HETATM   14  S1  UNL     1       1.935   8.252  26.788  1.00  0.00    -0.121 SA
HETATM   15  C1  UNL     1       2.121   7.747  28.507  1.00  0.00     0.097 C
ENDBRANCH  10  14
ENDBRANCH   9  10
ENDBRANCH   8   9
ENDBRANCH   1   8
BRANCH   4  16
HETATM   16  N3  UNL     1      -2.194  13.369  20.886  1.00  0.00    -0.380 N
ATOM     17  H32 UNL     1      -2.125  13.338  19.869  1.00  0.00     0.158 HD
ATOM     18  H31 UNL     1      -3.104  13.804  21.039  1.00  0.00     0.158 HD
ENDBRANCH   4  16
TORSDOF 5
ENDMDL