MODEL 1
REMARK VINA RESULT: -5.815585185      0.000      0.000
REMARK  3 active torsions:
REMARK  status: ('A' for Active; 'I' for Inactive)
REMARK    1  A    between atoms: N1_2  and  C2_4
REMARK    2  A    between atoms: C3_8  and  C4_9
REMARK       I    between atoms: C4_9  and  N3_11
REMARK    3  A    between atoms: N3_11  and  C5_13
ROOT
HETATM    1  C2  UNL     1       6.898  14.047  24.770  1.00  0.00     0.113 A
HETATM    2  S1  UNL     1       8.506  13.855  25.290  1.00  0.00     0.006 SA
HETATM    3  N2  UNL     1       8.727  12.258  24.852  1.00  0.00    -0.319 N
ATOM      4  H2  UNL     1       9.568  11.693  24.973  1.00  0.00     0.174 HD
HETATM    5  C3  UNL     1       7.572  11.881  24.312  1.00  0.00     0.134 A
HETATM    6  C9  UNL     1       6.582  12.817  24.257  1.00  0.00     0.114 A
HETATM    7  N4  UNL     1       5.260  12.553  23.692  1.00  0.00    -0.097 NA
ENDROOT
BRANCH   5   8
HETATM    8  C4  UNL     1       7.419  10.481  23.800  1.00  0.00     0.271 C
HETATM    9  O1  UNL     1       8.296   9.960  23.070  1.00  0.00    -0.266 OA
HETATM   10  N3  UNL     1       6.283   9.716  24.128  1.00  0.00    -0.348 N
ATOM     11  H3  UNL     1       5.568  10.138  24.722  1.00  0.00     0.163 HD
BRANCH  10  12
HETATM   12  C5  UNL     1       6.082   8.371  23.666  1.00  0.00     0.022 C
HETATM   13  C6  UNL     1       7.239   7.466  23.954  1.00  0.00     0.037 C
HETATM   14  C7  UNL     1       4.866   7.788  24.383  1.00  0.00     0.037 C
HETATM   15  C8  UNL     1       5.801   8.307  22.180  1.00  0.00     0.037 C
ENDBRANCH  10  12
ENDBRANCH   5   8
BRANCH   1  16
HETATM   16  N1  UNL     1       6.039  15.207  24.837  1.00  0.00    -0.386 N
HETATM   17  C1  UNL     1       5.031  15.211  25.858  1.00  0.00     0.147 C
ATOM     18  H1  UNL     1       6.144  15.988  24.188  1.00  0.00     0.159 HD
ENDBRANCH   1  16
TORSDOF 3
ENDMDL