MODEL 5
REMARK VINA RESULT: -5.355426219      3.256      4.209
REMARK  3 active torsions:
REMARK  status: ('A' for Active; 'I' for Inactive)
REMARK    1  A    between atoms: N1_1  and  C1_5
REMARK    2  A    between atoms: C5_9  and  N2_10
REMARK    3  A    between atoms: C7_13  and  C8_14
ROOT
HETATM    1  C1  UNL     1       7.245  12.239  25.719  1.00  0.00     0.207 C
HETATM    2  C2  UNL     1       8.730  12.562  25.621  1.00  0.00     0.035 C
HETATM    3  C3  UNL     1       8.703  13.987  25.124  1.00  0.00     0.004 C
HETATM    4  C4  UNL     1       7.447  14.085  24.275  1.00  0.00     0.028 C
HETATM    5  C5  UNL     1       6.767  12.745  24.389  1.00  0.00     0.131 C
ENDROOT
BRANCH   5   6
HETATM    6  N2  UNL     1       5.334  12.892  24.300  1.00  0.00    -0.277 N
HETATM    7  S1  UNL     1       4.461  14.295  24.678  1.00  0.00    -0.020 SA
HETATM    8  C6  UNL     1       2.885  13.744  24.311  1.00  0.00     0.081 A
HETATM    9  C7  UNL     1       3.122  12.467  23.900  1.00  0.00     0.028 A
HETATM   10  C9  UNL     1       4.395  12.044  23.903  1.00  0.00     0.261 A
HETATM   11  O1  UNL     1       4.742  10.864  23.536  1.00  0.00    -0.267 OA
BRANCH   9  12
HETATM   12  C8  UNL     1       1.955  11.541  23.535  1.00  0.00     0.131 C
HETATM   13  S2  UNL     1       0.392  12.516  23.639  1.00  0.00    -0.092 SA
ENDBRANCH   9  12
ENDBRANCH   5   6
BRANCH   1  14
HETATM   14  N1  UNL     1       6.684  12.963  26.827  1.00  0.00    -0.073 N
ATOM     15  H13 UNL     1       6.048  13.701  26.528  1.00  0.00     0.274 HD
ATOM     16  H12 UNL     1       6.015  12.406  27.358  1.00  0.00     0.274 HD
ATOM     17  H11 UNL     1       7.444  13.317  27.408  1.00  0.00     0.274 HD
ENDBRANCH   1  14
TORSDOF 3
ENDMDL