MODEL 4
REMARK VINA RESULT: -6.465194327      4.758      5.867
REMARK  4 active torsions:
REMARK  status: ('A' for Active; 'I' for Inactive)
REMARK    1  A    between atoms: C2_7  and  N3_8
REMARK    2  A    between atoms: N3_8  and  C3_10
REMARK    3  A    between atoms: C9_17  and  C10_18
REMARK    4  A    between atoms: C10_18  and  N4_19
ROOT
HETATM    1  N1  UNL     1       7.928   8.742  20.881  1.00  0.00    -0.388 N
ATOM      2  H11 UNL     1       7.620   7.915  20.370  1.00  0.00     0.157 HD
ATOM      3  H12 UNL     1       8.540   9.376  20.368  1.00  0.00     0.157 HD
HETATM    4  C1  UNL     1       7.559   8.979  22.118  1.00  0.00     0.092 C
HETATM    5  N2  UNL     1       7.977  10.106  22.812  1.00  0.00    -0.326 N
ATOM      6  H2  UNL     1       8.798  10.629  22.509  1.00  0.00     0.169 HD
HETATM    7  C2  UNL     1       7.321  10.469  23.826  1.00  0.00     0.142 C
HETATM    8  S1  UNL     1       5.985   9.308  24.040  1.00  0.00    -0.080 SA
HETATM    9  C9  UNL     1       6.670   8.058  22.864  1.00  0.00     0.147 C
ENDROOT
BRANCH   7  10
HETATM   10  N3  UNL     1       7.568  11.571  24.665  1.00  0.00    -0.366 N
ATOM     11  H3  UNL     1       8.523  11.727  24.987  1.00  0.00     0.162 HD
BRANCH  10  12
HETATM   12  C3  UNL     1       6.543  12.491  25.094  1.00  0.00     0.083 C
HETATM   13  C4  UNL     1       5.599  12.855  23.965  1.00  0.00     0.025 C
HETATM   14  C5  UNL     1       4.520  13.739  24.560  1.00  0.00     0.002 C
HETATM   15  C6  UNL     1       5.182  15.047  24.956  1.00  0.00     0.000 C
HETATM   16  C7  UNL     1       6.143  14.739  26.074  1.00  0.00     0.002 C
HETATM   17  C8  UNL     1       7.194  13.775  25.553  1.00  0.00     0.025 C
ENDBRANCH  10  12
ENDBRANCH   7  10
BRANCH   9  18
HETATM   18  C10 UNL     1       7.428   7.006  23.627  1.00  0.00     0.253 C
BRANCH  18  19
HETATM   19  N4  UNL     1       7.956   5.971  22.798  1.00  0.00    -0.078 N
ATOM     20  H43 UNL     1       7.262   5.667  22.114  1.00  0.00     0.274 HD
ATOM     21  H42 UNL     1       8.666   6.341  22.166  1.00  0.00     0.274 HD
ATOM     22  H41 UNL     1       8.319   5.175  23.322  1.00  0.00     0.274 HD
ENDBRANCH  18  19
ENDBRANCH   9  18
TORSDOF 4
ENDMDL