MODEL 2
REMARK VINA RESULT: -5.543852091      1.786      4.225
REMARK  3 active torsions:
REMARK  status: ('A' for Active; 'I' for Inactive)
REMARK    1  A    between atoms: C2_2  and  N1_3
REMARK    2  A    between atoms: C4_8  and  N3_9
REMARK    3  A    between atoms: N4_12  and  C5_13
ROOT
HETATM    1  N1  UNL     1       5.826  10.452  23.108  1.00  0.00    -0.300 N
HETATM    2  C3  UNL     1       7.098  10.025  23.019  1.00  0.00     0.195 A
HETATM    3  S1  UNL     1       7.453   8.727  22.077  1.00  0.00    -0.040 SA
HETATM    4  N2  UNL     1       8.099  10.633  23.682  1.00  0.00    -0.166 N
ATOM      5  H2  UNL     1       9.060  10.299  23.606  1.00  0.00     0.186 HD
HETATM    6  C4  UNL     1       7.790  11.691  24.445  1.00  0.00     0.682 A
HETATM    7  N4  UNL     1       6.496  12.123  24.535  1.00  0.00    -0.154 N
HETATM    8  C8  UNL     1       5.495  11.509  23.866  1.00  0.00     0.198 A
HETATM    9  S2  UNL     1       3.953  12.048  23.991  1.00  0.00    -0.040 SA
ENDROOT
BRANCH   6  10
HETATM   10  N3  UNL     1       8.730  12.283  25.085  1.00  0.00    -0.234 N
ATOM     11  H32 UNL     1       9.685  11.922  25.071  1.00  0.00     0.174 HD
ATOM     12  H31 UNL     1       8.507  13.128  25.613  1.00  0.00     0.174 HD
ENDBRANCH   6  10
BRANCH   7  13
HETATM   13  C5  UNL     1       6.168  13.250  25.348  1.00  0.00     0.102 C
HETATM   14  C6  UNL     1       6.645  13.082  26.783  1.00  0.00     0.033 C
HETATM   15  C7  UNL     1       6.659  14.558  24.757  1.00  0.00     0.033 C
ENDBRANCH   7  13
BRANCH   1  16
HETATM   16  C2  UNL     1       4.776   9.758  22.368  1.00  0.00     0.129 C
HETATM   17  C1  UNL     1       4.123   8.677  23.179  1.00  0.00     0.027 C
ENDBRANCH   1  16
TORSDOF 3
ENDMDL