MODEL 5
REMARK VINA RESULT: -6.858595129      4.123      6.341
REMARK  3 active torsions:
REMARK  status: ('A' for Active; 'I' for Inactive)
REMARK    1  A    between atoms: C2_2  and  C3_3
REMARK    2  A    between atoms: N3_8  and  C5_9
REMARK    3  A    between atoms: C12_16  and  N4_17
ROOT
HETATM    1  C3  UNL     1       0.141  11.701  24.160  1.00  0.00     0.122 A
HETATM    2  N1  UNL     1       0.871  10.668  23.765  1.00  0.00    -0.316 N
ATOM      3  H1  UNL     1       1.345  10.704  22.862  1.00  0.00     0.170 HD
HETATM    4  C4  UNL     1       0.996   9.573  24.537  1.00  0.00     0.211 A
HETATM    5  N2  UNL     1       1.776   8.514  24.076  1.00  0.00    -0.062 NA
HETATM    6  N3  UNL     1       0.392   9.470  25.738  1.00  0.00    -0.150 N
HETATM    7  C12 UNL     1      -0.344  10.535  26.112  1.00  0.00     0.682 A
HETATM    8  N5  UNL     1      -0.476  11.632  25.354  1.00  0.00    -0.177 N
ATOM      9  H5  UNL     1      -1.043  12.414  25.681  1.00  0.00     0.186 HD
ENDROOT
BRANCH   6  10
HETATM   10  C5  UNL     1       0.467   8.361  26.614  1.00  0.00     0.111 C
HETATM   11  C6  UNL     1       0.260   7.011  26.042  1.00  0.00     0.026 C
HETATM   12  C7  UNL     1      -0.186   6.109  27.210  1.00  0.00     0.002 C
HETATM   13  C8  UNL     1       0.855   6.205  28.280  1.00  0.00     0.004 C
HETATM   14  C9  UNL     1       2.093   6.932  27.868  1.00  0.00    -0.017 C
HETATM   15  C10 UNL     1       2.963   7.079  29.124  1.00  0.00     0.010 C
HETATM   16  C11 UNL     1       1.776   8.332  27.411  1.00  0.00     0.030 C
ENDBRANCH   6  10
BRANCH   7  17
HETATM   17  N4  UNL     1      -0.967  10.527  27.261  1.00  0.00    -0.234 N
ATOM     18  H42 UNL     1      -1.759   9.891  27.355  1.00  0.00     0.174 HD
ATOM     19  H41 UNL     1      -0.655  11.140  28.014  1.00  0.00     0.174 HD
ENDBRANCH   7  17
BRANCH   1  20
HETATM   20  C2  UNL     1       0.003  12.897  23.321  1.00  0.00     0.039 C
HETATM   21  C1  UNL     1       0.479  12.926  22.096  1.00  0.00     0.015 C
ENDBRANCH   1  20
TORSDOF 3
ENDMDL