MODEL 4
REMARK VINA RESULT: -6.197751201      2.646      3.827
REMARK  3 active torsions:
REMARK  status: ('A' for Active; 'I' for Inactive)
REMARK    1  A    between atoms: C2_2  and  O1_3
REMARK    2  A    between atoms: O1_3  and  C3_4
REMARK    3  A    between atoms: C3_4  and  C4_6
ROOT
HETATM    1  C4  UNL     1       2.277  10.444  23.612  1.00  0.00     0.135 C
HETATM    2  N1  UNL     1       2.920  11.306  22.687  1.00  0.00    -0.095 NA
HETATM    3  C5  UNL     1       1.166  10.834  24.181  1.00  0.00     0.021 C
HETATM    4  S1  UNL     1       0.411   9.696  25.356  1.00  0.00    -0.112 SA
HETATM    5  C6  UNL     1      -0.907  10.608  26.175  1.00  0.00     0.200 C
HETATM    6  N2  UNL     1      -1.599  11.490  25.257  1.00  0.00    -0.370 N
ATOM      7  H2  UNL     1      -2.520  11.844  25.516  1.00  0.00     0.161 HD
HETATM    8  C7  UNL     1      -1.044  11.877  24.015  1.00  0.00     0.080 C
HETATM    9  N3  UNL     1      -1.785  12.030  22.976  1.00  0.00    -0.389 N
ATOM     10  H31 UNL     1      -1.385  12.310  22.081  1.00  0.00     0.157 HD
ATOM     11  H32 UNL     1      -2.794  11.885  22.998  1.00  0.00     0.157 HD
HETATM   12  C8  UNL     1       0.455  12.094  23.984  1.00  0.00     0.090 C
HETATM   13  C9  UNL     1       0.746  12.833  22.727  1.00  0.00     0.023 C
ENDROOT
BRANCH   1  14
HETATM   14  C3  UNL     1       2.889   9.128  23.917  1.00  0.00     0.308 C
HETATM   15  O2  UNL     1       3.570   9.049  24.965  1.00  0.00    -0.258 OA
BRANCH  14  16
HETATM   16  O1  UNL     1       2.759   8.008  23.141  1.00  0.00    -0.317 OA
BRANCH  16  17
HETATM   17  C2  UNL     1       3.850   7.320  22.558  1.00  0.00     0.174 C
HETATM   18  C1  UNL     1       4.732   8.210  21.751  1.00  0.00     0.034 C
ENDBRANCH  16  17
ENDBRANCH  14  16
ENDBRANCH   1  14
TORSDOF 3
ENDMDL