MODEL 1
REMARK VINA RESULT: -6.960320395      0.000      0.000
REMARK  3 active torsions:
REMARK  status: ('A' for Active; 'I' for Inactive)
REMARK    1  A    between atoms: C8_8  and  C9_9
REMARK    2  A    between atoms: C9_9  and  O1_10
REMARK    3  A    between atoms: C10_13  and  N1_14
ROOT
HETATM    1  N1  UNL     1       3.471  12.723  24.196  1.00  0.00    -0.273 N
ATOM      2  H1  UNL     1       3.314  13.393  24.948  1.00  0.00     0.180 HD
HETATM    3  C11 UNL     1       2.352  12.317  23.443  1.00  0.00     0.183 C
HETATM    4  N2  UNL     1       1.432  11.961  22.797  1.00  0.00    -0.172 NA
ENDROOT
BRANCH   1   5
HETATM    5  C10 UNL     1       4.775  12.280  23.993  1.00  0.00     0.166 A
HETATM    6  O2  UNL     1       5.127  11.286  23.142  1.00  0.00    -0.294 OA
HETATM    7  C8  UNL     1       6.403  11.106  23.158  1.00  0.00     0.086 A
HETATM    8  C7  UNL     1       6.909  12.004  24.063  1.00  0.00    -0.010 A
HETATM    9  C6  UNL     1       8.293  11.937  24.716  1.00  0.00     0.074 C
HETATM   10  C12 UNL     1       5.928  12.773  24.576  1.00  0.00     0.037 A
HETATM   11  C5  UNL     1       8.368  13.089  25.675  1.00  0.00     0.127 C
HETATM   12  C4  UNL     1       7.534  12.790  26.894  1.00  0.00     0.035 C
HETATM   13  O3  UNL     1       7.738  14.147  25.016  1.00  0.00    -0.370 OA
HETATM   14  C3  UNL     1       6.426  13.864  26.783  1.00  0.00     0.045 C
HETATM   15  C2  UNL     1       6.330  13.982  25.332  1.00  0.00     0.089 C
HETATM   16  C1  UNL     1       5.688  15.239  24.766  1.00  0.00     0.051 C
BRANCH   7  17
HETATM   17  C9  UNL     1       7.260  10.164  22.357  1.00  0.00     0.229 C
BRANCH  17  18
HETATM   18  O1  UNL     1       7.349   8.974  22.996  1.00  0.00    -0.394 OA
ATOM     19  H1  UNL     1       8.247   8.665  22.972  1.00  0.00     0.209 HD
ENDBRANCH  17  18
ENDBRANCH   7  17
ENDBRANCH   1   5
TORSDOF 3
ENDMDL