MODEL 4
REMARK VINA RESULT: -4.870167370      5.356      7.311
REMARK  4 active torsions:
REMARK  status: ('A' for Active; 'I' for Inactive)
REMARK    1  A    between atoms: O1_1  and  C1_3
REMARK    2  A    between atoms: C2_4  and  N1_5
REMARK    3  A    between atoms: N1_5  and  C3_7
REMARK    4  A    between atoms: C6_11  and  C7_12
ROOT
HETATM    1  C1  UNL     1       4.810   9.740  23.276  1.00  0.00     0.155 C
HETATM    2  C2  UNL     1       6.128   9.060  23.186  1.00  0.00     0.111 C
HETATM    3  C4  UNL     1       7.302   9.974  23.055  1.00  0.00     0.028 C
HETATM    4  C5  UNL     1       7.221  11.211  23.899  1.00  0.00     0.009 C
HETATM    5  C6  UNL     1       5.921  11.929  23.521  1.00  0.00     0.013 C
HETATM    6  C8  UNL     1       4.810  11.046  23.984  1.00  0.00     0.094 C
HETATM    7  S3  UNL     1       3.197  11.835  23.732  1.00  0.00    -0.089 SA
ENDROOT
BRANCH   2   8
HETATM    8  N1  UNL     1       6.330   8.077  24.254  1.00  0.00    -0.383 N
ATOM      9  H1  UNL     1       5.774   8.083  25.109  1.00  0.00     0.160 HD
BRANCH   8  10
HETATM   10  C3  UNL     1       7.243   7.217  24.044  1.00  0.00     0.166 C
HETATM   11  S1  UNL     1       7.970   6.101  23.131  1.00  0.00    -0.075 SA
ENDBRANCH   8  10
ENDBRANCH   2   8
BRANCH   1  12
HETATM   12  O1  UNL     1       4.217   9.813  22.003  1.00  0.00    -0.392 OA
ATOM     13  H1  UNL     1       3.309  10.081  22.081  1.00  0.00     0.210 HD
ENDBRANCH   1  12
BRANCH   5  14
HETATM   14  C7  UNL     1       5.934  13.243  24.266  1.00  0.00     0.092 C
HETATM   15  S2  UNL     1       7.615  13.925  24.308  1.00  0.00    -0.097 SA
ENDBRANCH   5  14
TORSDOF 4
ENDMDL