MODEL 3
REMARK VINA RESULT: -5.521426468      2.016      2.595
REMARK  4 active torsions:
REMARK  status: ('A' for Active; 'I' for Inactive)
REMARK    1  A    between atoms: C2_2  and  N1_4
REMARK    2  A    between atoms: C3_6  and  O1_8
REMARK    3  A    between atoms: O1_8  and  C5_9
REMARK    4  A    between atoms: C5_9  and  C6_10
ROOT
HETATM    1  N1  UNL     1      -4.232   0.989  12.470  1.00  0.00    -0.335 N
ATOM      2  H1  UNL     1      -5.000   0.844  13.126  1.00  0.00     0.168 HD
HETATM    3  C3  UNL     1      -3.399   1.948  12.637  1.00  0.00     0.115 C
HETATM    4  C4  UNL     1      -2.304   2.130  11.677  1.00  0.00     0.097 C
ENDROOT
BRANCH   3   5
HETATM    5  O1  UNL     1      -3.620   2.748  13.746  1.00  0.00    -0.329 OA
BRANCH   5   6
HETATM    6  C5  UNL     1      -4.589   2.480  14.712  1.00  0.00     0.290 C
BRANCH   6   7
HETATM    7  C6  UNL     1      -4.248   1.293  15.537  1.00  0.00     0.198 C
HETATM    8  O2  UNL     1      -3.353   1.444  16.421  1.00  0.00    -0.646 OA
HETATM    9  O3  UNL     1      -4.871   0.064  15.361  1.00  0.00    -0.646 OA
ENDBRANCH   6   7
ENDBRANCH   5   6
ENDBRANCH   3   5
BRANCH   1  10
HETATM   10  C2  UNL     1      -4.061   0.135  11.353  1.00  0.00     0.075 C
HETATM   11  C1  UNL     1      -4.640   0.575  10.051  1.00  0.00     0.081 C
HETATM   12  S1  UNL     1      -3.278  -1.284  11.417  1.00  0.00    -0.066 SA
ENDBRANCH   1  10
TORSDOF 4
ENDMDL