MODEL 5
REMARK VINA RESULT: -5.439546872      0.551      1.114
REMARK  3 active torsions:
REMARK  status: ('A' for Active; 'I' for Inactive)
REMARK    1  A    between atoms: C2_2  and  C4_4
REMARK    2  A    between atoms: C4_4  and  C5_5
REMARK    3  A    between atoms: C5_5  and  O1_6
ROOT
HETATM    1  C4  UNL     1      -5.033   2.733  15.601  1.00  0.00     0.153 C
HETATM    2  O2  UNL     1      -3.966   3.620  15.723  1.00  0.00    -0.223 OA
HETATM    3  O3  UNL     1      -3.376   3.451  14.556  1.00  0.00    -0.226 OA
HETATM    4  C6  UNL     1      -4.378   3.825  13.653  1.00  0.00     0.123 C
HETATM    5  C7  UNL     1      -4.121   3.311  12.266  1.00  0.00     0.052 C
HETATM    6  C8  UNL     1      -4.506   5.320  13.718  1.00  0.00     0.052 C
HETATM    7  C9  UNL     1      -5.607   3.140  14.268  1.00  0.00     0.247 C
HETATM    8  F1  UNL     1      -6.625   4.032  14.335  1.00  0.00    -0.243 F
ENDROOT
BRANCH   1   9
HETATM    9  C2  UNL     1      -6.045   2.858  16.696  1.00  0.00     0.020 C
HETATM   10  C1  UNL     1      -7.021   1.705  16.546  1.00  0.00     0.013 C
HETATM   11  C3  UNL     1      -6.742   4.161  16.765  1.00  0.00     0.013 C
ENDBRANCH   1   9
BRANCH   1  12
HETATM   12  C5  UNL     1      -4.433   1.347  15.535  1.00  0.00     0.209 C
BRANCH  12  13
HETATM   13  O1  UNL     1      -3.351   1.210  16.389  1.00  0.00    -0.398 OA
ATOM     14  H1  UNL     1      -3.586   0.757  17.190  1.00  0.00     0.209 HD
ENDBRANCH  12  13
ENDBRANCH   1  12
TORSDOF 3
ENDMDL