MODEL 3
REMARK VINA RESULT: -5.397491440      1.812      2.006
REMARK  2 active torsions:
REMARK  status: ('A' for Active; 'I' for Inactive)
REMARK    1  A    between atoms: C2_2  and  N1_4
REMARK    2  A    between atoms: C4_6  and  C5_8
ROOT
HETATM    1  N1  UNL     1      -4.027   4.704  14.467  1.00  0.00    -0.380 N
ATOM      2  H1  UNL     1      -3.520   3.843  14.263  1.00  0.00     0.160 HD
HETATM    3  C4  UNL     1      -5.134   4.562  15.048  1.00  0.00     0.080 C
HETATM    4 CL1  UNL     1      -6.090   5.966  15.450  1.00  0.00    -0.069 Cl
ENDROOT
BRANCH   3   5
HETATM    5  C5  UNL     1      -5.583   3.177  15.372  1.00  0.00     0.051 C
HETATM    6  C6  UNL     1      -6.725   3.210  16.388  1.00  0.00     0.038 C
HETATM    7  C7  UNL     1      -6.908   1.857  17.016  1.00  0.00     0.168 C
HETATM    8  O1  UNL     1      -6.339   0.831  16.284  1.00  0.00    -0.391 OA
HETATM    9  C8  UNL     1      -4.990   0.934  16.099  1.00  0.00     0.168 C
HETATM   10  C9  UNL     1      -4.485   2.351  15.997  1.00  0.00     0.038 C
ENDBRANCH   3   5
BRANCH   1  11
HETATM   11  C2  UNL     1      -3.395   5.899  14.060  1.00  0.00     0.074 C
HETATM   12  C1  UNL     1      -3.849   6.441  12.746  1.00  0.00     0.031 C
HETATM   13  C3  UNL     1      -1.883   5.697  14.074  1.00  0.00     0.031 C
ENDBRANCH   1  11
TORSDOF 2
ENDMDL