MODEL 3
REMARK VINA RESULT: -5.895747760      2.969      3.825
REMARK  3 active torsions:
REMARK  status: ('A' for Active; 'I' for Inactive)
REMARK    1  A    between atoms: C2_2  and  C3_3
REMARK    2  A    between atoms: C6_9  and  N1_10
REMARK    3  A    between atoms: N1_10  and  N2_12
ROOT
HETATM    1  C1  UNL     1      -2.650   1.788  11.664  1.00  0.00     0.058 C
HETATM    2  C2  UNL     1      -4.140   1.703  11.950  1.00  0.00     0.150 C
HETATM    3  C4  UNL     1      -4.347   0.388  12.695  1.00  0.00     0.091 C
HETATM    4  C5  UNL     1      -3.889   0.855  14.086  1.00  0.00     0.223 C
HETATM    5  F1  UNL     1      -4.378   0.048  15.068  1.00  0.00    -0.245 F
HETATM    6  C6  UNL     1      -4.524   2.234  14.090  1.00  0.00     0.273 C
HETATM    7  O3  UNL     1      -4.491   2.711  12.806  1.00  0.00    -0.341 OA
ENDROOT
BRANCH   6   8
HETATM    8  N1  UNL     1      -3.993   3.109  15.070  1.00  0.00    -0.291 N
ATOM      9  H1  UNL     1      -4.440   3.146  15.986  1.00  0.00     0.184 HD
BRANCH   8  10
HETATM   10  N2  UNL     1      -3.017   3.825  14.862  1.00  0.00    -0.251 N
HETATM   11  N3  UNL     1      -2.292   4.548  14.158  1.00  0.00    -0.331 N
ATOM     12  H32 UNL     1      -2.802   4.520  13.275  1.00  0.00     0.178 HD
ATOM     13  H31 UNL     1      -1.482   5.143  13.986  1.00  0.00     0.178 HD
ATOM     14  H2  UNL     1      -2.538   3.828  15.762  1.00  0.00     0.207 HD
ENDBRANCH   8  10
ENDBRANCH   6   8
BRANCH   2  15
HETATM   15  C3  UNL     1      -4.871   1.761  10.689  1.00  0.00     0.209 C
HETATM   16  O1  UNL     1      -5.937   2.386  10.564  1.00  0.00    -0.646 OA
HETATM   17  O2  UNL     1      -4.346   1.088   9.595  1.00  0.00    -0.646 OA
ENDBRANCH   2  15
TORSDOF 3
ENDMDL