MODEL 1
REMARK VINA RESULT: -5.562629995      0.000      0.000
REMARK  4 active torsions:
REMARK  status: ('A' for Active; 'I' for Inactive)
REMARK    1  A    between atoms: O1_2  and  C2_3
REMARK    2  A    between atoms: C2_3  and  N1_5
REMARK    3  A    between atoms: N1_5  and  C3_7
REMARK    4  A    between atoms: C3_7  and  C4_8
ROOT
HETATM    1  C3  UNL     1      -4.466   1.114  14.966  1.00  0.00     0.196 C
ENDROOT
BRANCH   1   2
HETATM    2  N1  UNL     1      -3.947   1.742  13.768  1.00  0.00    -0.356 N
ATOM      3  H1  UNL     1      -3.350   2.568  13.821  1.00  0.00     0.162 HD
BRANCH   2   4
HETATM    4  C2  UNL     1      -4.298   1.167  12.516  1.00  0.00     0.209 C
HETATM    5  S1  UNL     1      -4.623   2.083  11.203  1.00  0.00    -0.033 SA
BRANCH   4   6
HETATM    6  O1  UNL     1      -4.383  -0.217  12.337  1.00  0.00    -0.332 OA
HETATM    7  C1  UNL     1      -3.426  -0.871  11.530  1.00  0.00     0.212 C
ENDBRANCH   4   6
ENDBRANCH   2   4
ENDBRANCH   1   2
BRANCH   1   8
HETATM    8  C4  UNL     1      -4.587   2.123  16.105  1.00  0.00     0.221 C
HETATM    9  F1  UNL     1      -3.355   2.487  16.562  1.00  0.00    -0.210 F
HETATM   10  C5  UNL     1      -5.388   1.442  17.193  1.00  0.00     0.077 C
HETATM   11  C6  UNL     1      -6.806   1.769  16.735  1.00  0.00     0.032 C
HETATM   12  C7  UNL     1      -6.570   3.161  16.170  1.00  0.00     0.172 C
HETATM   13  O2  UNL     1      -5.307   3.192  15.651  1.00  0.00    -0.350 OA
ENDBRANCH   1   8
TORSDOF 4
ENDMDL