MODEL 4
REMARK VINA RESULT: -5.648183872      1.549      2.022
REMARK  3 active torsions:
REMARK  status: ('A' for Active; 'I' for Inactive)
REMARK    1  A    between atoms: C4_8  and  C5_9
REMARK    2  A    between atoms: C5_9  and  N2_10
REMARK    3  A    between atoms: C9_14  and  C10_15
ROOT
HETATM    1  N1  UNL     1      -4.349   0.518  15.246  1.00  0.00    -0.383 N
ATOM      2  H11 UNL     1      -4.194   0.662  14.249  1.00  0.00     0.158 HD
ATOM      3  H12 UNL     1      -4.013  -0.415  15.485  1.00  0.00     0.158 HD
HETATM    4  C1  UNL     1      -4.862   1.320  16.108  1.00  0.00     0.117 C
HETATM    5  O1  UNL     1      -5.070   1.126  17.453  1.00  0.00    -0.339 OA
HETATM    6  C2  UNL     1      -6.082   1.979  17.946  1.00  0.00     0.178 C
HETATM    7  C3  UNL     1      -6.221   3.075  16.865  1.00  0.00     0.041 C
HETATM    8  C4  UNL     1      -5.357   2.697  15.756  1.00  0.00     0.090 C
ENDROOT
BRANCH   8   9
HETATM    9  C5  UNL     1      -4.301   3.544  15.207  1.00  0.00     0.285 C
BRANCH   9  10
HETATM   10  N2  UNL     1      -4.558   4.486  14.175  1.00  0.00     0.096 N
HETATM   11  C6  UNL     1      -3.386   4.416  13.265  1.00  0.00     0.273 C
HETATM   12  C7  UNL     1      -3.906   4.105  11.894  1.00  0.00     0.032 C
HETATM   13  C8  UNL     1      -5.185   3.378  12.234  1.00  0.00     0.040 C
HETATM   14  C9  UNL     1      -5.705   4.287  13.365  1.00  0.00     0.251 C
BRANCH  14  15
HETATM   15  C10 UNL     1      -6.236   5.592  12.787  1.00  0.00     0.257 C
HETATM   16  F1  UNL     1      -7.545   5.710  13.140  1.00  0.00    -0.253 F
ENDBRANCH  14  15
ENDBRANCH   9  10
ENDBRANCH   8   9
TORSDOF 3
ENDMDL