MODEL 1
REMARK VINA RESULT: -6.176293592      0.000      0.000
REMARK  3 active torsions:
REMARK  status: ('A' for Active; 'I' for Inactive)
REMARK    1  A    between atoms: C2_2  and  N1_5
REMARK    2  A    between atoms: N1_5  and  O1_6
REMARK    3  A    between atoms: O1_6  and  S1_7
ROOT
HETATM    1  N1  UNL     1      -4.331   0.567  13.065  1.00  0.00    -0.056 NA
ENDROOT
BRANCH   1   2
HETATM    2  C2  UNL     1      -3.708   0.427  11.762  1.00  0.00     0.127 C
HETATM    3  C1  UNL     1      -3.303  -0.994  11.479  1.00  0.00     0.054 C
HETATM    4  C3  UNL     1      -4.765   0.830  10.738  1.00  0.00     0.054 C
HETATM    5 CL1  UNL     1      -2.272   1.462  11.620  1.00  0.00    -0.099 Cl
ENDBRANCH   1   2
BRANCH   1   6
HETATM    6  O1  UNL     1      -3.781   1.577  13.781  1.00  0.00    -0.158 OA
BRANCH   6   7
HETATM    7  S1  UNL     1      -4.341   1.427  15.356  1.00  0.00     0.278 S
HETATM    8  C4  UNL     1      -5.621   2.605  15.708  1.00  0.00     0.195 C
HETATM    9  O2  UNL     1      -4.952   0.056  15.475  1.00  0.00    -0.198 OA
HETATM   10  O3  UNL     1      -3.244   1.514  16.365  1.00  0.00    -0.198 OA
ENDBRANCH   6   7
ENDBRANCH   1   6
TORSDOF 3
ENDMDL