MODEL 3
REMARK VINA RESULT: -4.919838222      1.324      2.850
REMARK  5 active torsions:
REMARK  status: ('A' for Active; 'I' for Inactive)
REMARK    1  A    between atoms: C2_2  and  C3_3
REMARK    2  A    between atoms: C3_3  and  N1_4
REMARK    3  A    between atoms: C3_3  and  C4_8
REMARK    4  A    between atoms: C3_3  and  C6_12
REMARK    5  A    between atoms: C4_8  and  O2_10
ROOT
HETATM    1  C3  UNL     1      -5.458   2.600  16.051  1.00  0.00     0.230 C
ENDROOT
BRANCH   1   2
HETATM    2  C2  UNL     1      -5.417   2.967  17.494  1.00  0.00     0.047 C
HETATM    3  C1  UNL     1      -6.219   2.169  18.439  1.00  0.00     0.008 C
ENDBRANCH   1   2
BRANCH   1   4
HETATM    4  N1  UNL     1      -6.823   2.058  15.862  1.00  0.00    -0.059 N
ATOM      5  H13 UNL     1      -7.270   1.736  16.721  1.00  0.00     0.275 HD
ATOM      6  H12 UNL     1      -7.526   2.760  15.629  1.00  0.00     0.275 HD
ATOM      7  H11 UNL     1      -6.702   1.333  15.154  1.00  0.00     0.275 HD
ENDBRANCH   1   4
BRANCH   1   8
HETATM    8  C4  UNL     1      -4.534   1.499  15.703  1.00  0.00     0.296 C
HETATM    9  O1  UNL     1      -3.444   1.375  16.291  1.00  0.00    -0.262 OA
BRANCH   8  10
HETATM   10  O2  UNL     1      -4.840   0.571  14.720  1.00  0.00    -0.324 OA
HETATM   11  C5  UNL     1      -4.116   0.483  13.504  1.00  0.00     0.213 C
ENDBRANCH   8  10
ENDBRANCH   1   8
BRANCH   1  12
HETATM   12  C6  UNL     1      -5.280   3.747  15.099  1.00  0.00     0.072 C
HETATM   13  C7  UNL     1      -3.825   4.113  14.902  1.00  0.00     0.035 C
HETATM   14  C8  UNL     1      -5.873   3.478  13.741  1.00  0.00     0.035 C
HETATM   15 CL1  UNL     1      -6.069   5.192  15.768  1.00  0.00    -0.117 Cl
ENDBRANCH   1  12
TORSDOF 5
ENDMDL