MODEL 3
REMARK VINA RESULT: -6.353137050      1.065      1.065
REMARK  3 active torsions:
REMARK  status: ('A' for Active; 'I' for Inactive)
REMARK    1  A    between atoms: C2_2  and  O1_3
REMARK    2  A    between atoms: O1_3  and  C3_4
REMARK    3  A    between atoms: C3_4  and  C4_6
ROOT
HETATM    1  C4  UNL     1      -4.724   2.081  14.647  1.00  0.00     0.285 C
HETATM    2  C5  UNL     1      -5.326   3.416  14.300  1.00  0.00     0.046 C
HETATM    3  C6  UNL     1      -5.510   3.651  12.859  1.00  0.00     0.042 C
HETATM    4  C7  UNL     1      -4.765   2.804  11.916  1.00  0.00     0.200 C
HETATM    5  F1  UNL     1      -5.594   2.330  10.888  1.00  0.00    -0.247 F
HETATM    6  C8  UNL     1      -4.066   1.618  12.490  1.00  0.00     0.216 C
HETATM    7  C9  UNL     1      -2.912   1.144  11.640  1.00  0.00     0.043 C
HETATM    8  N1  UNL     1      -3.564   1.899  13.802  1.00  0.00    -0.055 N
ATOM      9  H11 UNL     1      -2.915   1.192  14.150  1.00  0.00     0.278 HD
ATOM     10  H12 UNL     1      -2.915   2.685  13.829  1.00  0.00     0.278 HD
ENDROOT
BRANCH   1  11
HETATM   11  C3  UNL     1      -4.336   1.946  16.040  1.00  0.00     0.289 C
HETATM   12  O2  UNL     1      -3.252   1.364  16.309  1.00  0.00    -0.263 OA
BRANCH  11  13
HETATM   13  O1  UNL     1      -5.107   2.431  17.110  1.00  0.00    -0.320 OA
BRANCH  13  14
HETATM   14  C2  UNL     1      -6.055   1.551  17.679  1.00  0.00     0.174 C
HETATM   15  C1  UNL     1      -7.359   1.550  16.934  1.00  0.00     0.034 C
ENDBRANCH  13  14
ENDBRANCH  11  13
ENDBRANCH   1  11
TORSDOF 3
ENDMDL