MODEL 3
REMARK VINA RESULT: -6.892710662      3.267      4.432
REMARK  4 active torsions:
REMARK  status: ('A' for Active; 'I' for Inactive)
REMARK    1  A    between atoms: C2_2  and  N1_3
REMARK    2  A    between atoms: C2_2  and  C6_15
REMARK    3  A    between atoms: N1_3  and  S1_5
REMARK    4  A    between atoms: S1_5  and  C3_8
ROOT
HETATM    1  N1  UNL     1      20.938  61.220  35.008  1.00  0.00    -0.310 N
ATOM      2  H1  UNL     1      19.947  60.982  34.967  1.00  0.00     0.172 HD
ENDROOT
BRANCH   1   3
HETATM    3  C2  UNL     1      21.418  62.336  34.299  1.00  0.00     0.093 C
HETATM    4  C1  UNL     1      21.991  61.924  32.928  1.00  0.00     0.033 C
BRANCH   3   5
HETATM    5  C6  UNL     1      20.346  63.361  34.120  1.00  0.00     0.009 C
HETATM    6  C7  UNL     1      19.823  63.405  32.699  1.00  0.00     0.007 C
HETATM    7  C8  UNL     1      19.057  64.699  32.538  1.00  0.00     0.000 C
HETATM    8  C9  UNL     1      17.908  64.789  33.522  1.00  0.00     0.000 C
HETATM    9  C10 UNL     1      18.308  64.447  34.914  1.00  0.00     0.000 C
HETATM   10  C11 UNL     1      19.165  63.201  35.032  1.00  0.00     0.007 C
ENDBRANCH   3   5
ENDBRANCH   1   3
BRANCH   1  11
HETATM   11  S1  UNL     1      21.978  60.284  35.914  1.00  0.00     0.268 S
HETATM   12  O1  UNL     1      21.247  59.251  36.754  1.00  0.00    -0.200 OA
HETATM   13  O2  UNL     1      22.989  59.505  35.125  1.00  0.00    -0.200 OA
BRANCH  11  14
HETATM   14  C3  UNL     1      22.882  61.265  37.042  1.00  0.00     0.159 A
HETATM   15  S2  UNL     1      24.585  61.545  37.146  1.00  0.00    -0.068 SA
HETATM   16  C4  UNL     1      24.593  62.580  38.501  1.00  0.00     0.140 A
HETATM   17  N2  UNL     1      23.305  62.659  38.803  1.00  0.00    -0.349 N
HETATM   18  C5  UNL     1      22.433  62.019  38.099  1.00  0.00     0.134 A
ATOM     19  H2  UNL     1      23.001  63.227  39.594  1.00  0.00     0.166 HD
HETATM   20 CL1  UNL     1      20.689  62.090  38.463  1.00  0.00    -0.062 Cl
ENDBRANCH  11  14
ENDBRANCH   1  11
TORSDOF 4
ENDMDL