MODEL 2
REMARK VINA RESULT: -6.264923721      1.689      2.583
REMARK  5 active torsions:
REMARK  status: ('A' for Active; 'I' for Inactive)
REMARK    1  A    between atoms: C1_2  and  C2_3
REMARK    2  A    between atoms: C1_2  and  C3_6
REMARK    3  A    between atoms: C2_3  and  O2_4
REMARK    4  A    between atoms: C3_6  and  S1_7
REMARK    5  A    between atoms: S1_7  and  C4_8
ROOT
HETATM    1  C4  UNL     1      15.486  65.178  31.491  1.00  0.00     0.049 A
HETATM    2  S2  UNL     1      15.477  64.812  29.802  1.00  0.00    -0.075 SA
HETATM    3  C5  UNL     1      17.075  64.267  29.644  1.00  0.00     0.059 A
HETATM    4 BR1  UNL     1      17.831  63.669  28.012  1.00  0.00    -0.042 Br
HETATM    5  C6  UNL     1      17.582  64.381  30.913  1.00  0.00    -0.026 A
HETATM    6  C7  UNL     1      16.760  64.850  31.858  1.00  0.00    -0.026 A
HETATM    7  C8  UNL     1      17.533  64.885  33.160  1.00  0.00     0.041 C
HETATM    8  C9  UNL     1      18.526  63.733  32.935  1.00  0.00     0.009 C
HETATM    9  C10 UNL     1      18.925  64.086  31.512  1.00  0.00     0.041 C
ENDROOT
BRANCH   1  10
HETATM   10  S1  UNL     1      14.129  65.825  32.469  1.00  0.00    -0.115 SA
BRANCH  10  11
HETATM   11  C3  UNL     1      13.168  66.940  31.411  1.00  0.00     0.160 C
BRANCH  11  12
HETATM   12  C1  UNL     1      13.138  68.302  31.996  1.00  0.00     0.159 C
HETATM   13  O1  UNL     1      12.109  68.766  32.441  1.00  0.00    -0.295 OA
BRANCH  12  14
HETATM   14  C2  UNL     1      14.367  69.129  32.050  1.00  0.00     0.243 C
BRANCH  14  15
HETATM   15  O2  UNL     1      14.171  70.295  32.785  1.00  0.00    -0.394 OA
ATOM     16  H2  UNL     1      14.695  71.013  32.451  1.00  0.00     0.209 HD
ENDBRANCH  14  15
ENDBRANCH  12  14
ENDBRANCH  11  12
ENDBRANCH  10  11
ENDBRANCH   1  10
TORSDOF 5
ENDMDL