MODEL 2
REMARK VINA RESULT: -7.037564232      2.088      2.961
REMARK  5 active torsions:
REMARK  status: ('A' for Active; 'I' for Inactive)
REMARK    1  A    between atoms: C1_2  and  C2_3
REMARK    2  A    between atoms: C1_2  and  O2_7
REMARK    3  A    between atoms: C2_3  and  C3_4
REMARK    4  A    between atoms: C3_4  and  C4_5
REMARK    5  A    between atoms: O2_7  and  N1_8
ROOT
HETATM    1  N1  UNL     1      20.840  61.141  34.454  1.00  0.00    -0.263 N
ATOM      2  H1  UNL     1      21.596  60.662  33.966  1.00  0.00     0.194 HD
HETATM    3  C5  UNL     1      20.952  61.442  35.701  1.00  0.00     0.048 C
HETATM    4  C6  UNL     1      20.012  62.128  36.626  1.00  0.00     0.084 C
HETATM    5  C7  UNL     1      20.246  61.356  37.918  1.00  0.00     0.239 C
HETATM    6  N2  UNL     1      21.419  60.542  37.721  1.00  0.00    -0.061 N
ATOM      7  H21 UNL     1      21.215  59.552  37.585  1.00  0.00     0.278 HD
ATOM      8  H22 UNL     1      21.988  60.432  38.561  1.00  0.00     0.278 HD
HETATM    9  C8  UNL     1      22.136  61.157  36.598  1.00  0.00     0.165 C
HETATM   10  C9  UNL     1      23.042  60.174  36.006  1.00  0.00     0.045 C
HETATM   11  C10 UNL     1      24.510  60.442  36.131  1.00  0.00     0.003 C
HETATM   12  C11 UNL     1      24.826  61.927  36.070  1.00  0.00     0.000 C
HETATM   13  C12 UNL     1      24.138  62.508  37.312  1.00  0.00     0.003 C
HETATM   14  C13 UNL     1      22.672  62.449  37.048  1.00  0.00     0.045 C
ENDROOT
BRANCH   1  15
HETATM   15  O2  UNL     1      19.685  61.477  33.793  1.00  0.00    -0.200 OA
BRANCH  15  16
HETATM   16  C1  UNL     1      19.437  62.721  33.231  1.00  0.00     0.281 C
HETATM   17  O1  UNL     1      20.296  63.162  32.419  1.00  0.00    -0.263 OA
BRANCH  16  18
HETATM   18  C2  UNL     1      18.253  63.533  33.526  1.00  0.00     0.114 C
BRANCH  18  19
HETATM   19  C3  UNL     1      18.066  64.802  32.806  1.00  0.00     0.020 C
BRANCH  19  20
HETATM   20  C4  UNL     1      17.004  64.802  31.759  1.00  0.00     0.085 C
HETATM   21 BR1  UNL     1      17.755  64.363  30.049  1.00  0.00    -0.097 Br
ENDBRANCH  19  20
ENDBRANCH  18  19
ENDBRANCH  16  18
ENDBRANCH  15  16
ENDBRANCH   1  15
TORSDOF 5
ENDMDL