MODEL 5
REMARK VINA RESULT: -6.864187303      5.070      9.243
REMARK  5 active torsions:
REMARK  status: ('A' for Active; 'I' for Inactive)
REMARK    1  A    between atoms: C2_2  and  C3_3
REMARK    2  A    between atoms: C4_6  and  C5_7
REMARK    3  A    between atoms: C5_7  and  N2_8
REMARK    4  A    between atoms: C12_15  and  N3_16
REMARK    5  A    between atoms: C14_22  and  C15_23
ROOT
HETATM    1  N2  UNL     1      13.901  62.809  27.643  1.00  0.00    -0.356 N
HETATM    2  C6  UNL     1      13.392  61.815  26.794  1.00  0.00     0.066 C
HETATM    3  C7  UNL     1      13.146  62.200  25.380  1.00  0.00     0.030 C
HETATM    4  C8  UNL     1      11.745  61.849  24.930  1.00  0.00     0.010 C
HETATM    5  C9  UNL     1      11.369  62.824  23.846  1.00  0.00     0.001 C
HETATM    6  C10 UNL     1      12.435  63.910  23.832  1.00  0.00     0.007 C
HETATM    7  C11 UNL     1      13.229  63.672  25.100  1.00  0.00     0.029 C
HETATM    8  C12 UNL     1      12.719  64.481  26.251  1.00  0.00     0.241 C
HETATM    9  C13 UNL     1      13.491  64.143  27.478  1.00  0.00     0.302 C
HETATM   10  F1  UNL     1      12.802  64.538  28.636  1.00  0.00    -0.225 F
ENDROOT
BRANCH   1  11
HETATM   11  C5  UNL     1      15.129  62.584  28.303  1.00  0.00     0.183 C
BRANCH  11  12
HETATM   12  C4  UNL     1      16.193  63.537  27.786  1.00  0.00     0.041 A
HETATM   13  N1  UNL     1      16.508  63.594  26.519  1.00  0.00    -0.355 N
HETATM   14  C3  UNL     1      17.435  64.433  26.107  1.00  0.00     0.051 A
ATOM     15  H1  UNL     1      16.034  62.988  25.849  1.00  0.00     0.166 HD
HETATM   16  S1  UNL     1      17.912  65.195  27.554  1.00  0.00    -0.079 SA
HETATM   17  C14 UNL     1      16.875  64.381  28.634  1.00  0.00     0.008 A
BRANCH  14  18
HETATM   18  C2  UNL     1      17.922  64.633  24.699  1.00  0.00     0.060 C
HETATM   19  C1  UNL     1      18.121  66.144  24.555  1.00  0.00     0.012 C
ENDBRANCH  14  18
BRANCH  17  20
HETATM   20  C15 UNL     1      16.727  64.529  30.114  1.00  0.00     0.043 C
HETATM   21  C16 UNL     1      18.018  64.080  30.755  1.00  0.00     0.010 C
ENDBRANCH  17  20
ENDBRANCH  11  12
ENDBRANCH   1  11
BRANCH   8  22
HETATM   22  N3  UNL     1      11.291  64.320  26.454  1.00  0.00    -0.070 N
ATOM     23  H33 UNL     1      10.973  63.411  26.119  1.00  0.00     0.274 HD
ATOM     24  H32 UNL     1      11.070  64.217  27.445  1.00  0.00     0.274 HD
ATOM     25  H31 UNL     1      10.749  65.076  26.034  1.00  0.00     0.274 HD
ENDBRANCH   8  22
TORSDOF 5
ENDMDL