MODEL 5
REMARK VINA RESULT: -7.841104207      4.137      7.168
REMARK  4 active torsions:
REMARK  status: ('A' for Active; 'I' for Inactive)
REMARK    1  A    between atoms: C3_3  and  O1_4
REMARK    2  A    between atoms: O1_4  and  C4_5
REMARK    3  A    between atoms: C4_5  and  C5_6
REMARK    4  A    between atoms: C12_20  and  N4_21
ROOT
HETATM    1  C1  UNL     1      14.119  64.931  28.967  1.00  0.00     0.054 C
HETATM    2  C2  UNL     1      14.755  65.158  30.271  1.00  0.00     0.007 A
HETATM    3  C3  UNL     1      14.054  65.711  31.375  1.00  0.00     0.150 A
HETATM    4  N1  UNL     1      14.924  65.760  32.391  1.00  0.00    -0.322 N
ATOM      5  H1  UNL     1      14.694  66.116  33.318  1.00  0.00     0.169 HD
HETATM    6  C10 UNL     1      16.132  65.287  32.049  1.00  0.00     0.122 A
HETATM    7  N2  UNL     1      17.289  65.141  32.761  1.00  0.00    -0.338 N
ATOM      8  H2  UNL     1      17.336  65.427  33.739  1.00  0.00     0.168 HD
HETATM    9  C11 UNL     1      18.360  64.617  32.154  1.00  0.00     0.183 A
HETATM   10  N3  UNL     1      18.283  64.248  30.877  1.00  0.00    -0.338 N
ATOM     11  H3  UNL     1      19.111  63.850  30.432  1.00  0.00     0.168 HD
HETATM   12  C12 UNL     1      17.141  64.380  30.136  1.00  0.00     0.119 A
HETATM   13  C17 UNL     1      16.024  64.911  30.717  1.00  0.00     0.062 A
ENDROOT
BRANCH   3  14
HETATM   14  O1  UNL     1      12.779  66.088  31.327  1.00  0.00    -0.335 OA
BRANCH  14  15
HETATM   15  C4  UNL     1      11.516  65.774  31.542  1.00  0.00     0.182 C
BRANCH  15  16
HETATM   16  C5  UNL     1      10.628  65.135  30.559  1.00  0.00     0.013 C
HETATM   17  C6  UNL     1      11.013  63.814  30.000  1.00  0.00     0.009 C
HETATM   18  C7  UNL     1      10.025  63.604  28.835  1.00  0.00     0.037 C
HETATM   19  C8  UNL     1       9.707  64.991  28.341  1.00  0.00     0.170 C
HETATM   20  F1  UNL     1       8.325  65.136  28.388  1.00  0.00    -0.249 F
HETATM   21  C9  UNL     1      10.278  65.987  29.346  1.00  0.00     0.044 C
ENDBRANCH  15  16
ENDBRANCH  14  15
ENDBRANCH   3  14
BRANCH  12  22
HETATM   22  N4  UNL     1      17.156  64.001  28.770  1.00  0.00    -0.366 N
HETATM   23  C13 UNL     1      17.553  64.791  27.656  1.00  0.00     0.124 C
HETATM   24  C14 UNL     1      17.029  64.100  26.437  1.00  0.00     0.021 C
HETATM   25  C15 UNL     1      17.059  62.630  26.840  1.00  0.00     0.021 C
HETATM   26  C16 UNL     1      16.791  62.683  28.324  1.00  0.00     0.124 C
ENDBRANCH  12  22
TORSDOF 4
ENDMDL