MODEL 4
REMARK VINA RESULT: -7.464530191      1.090      2.755
REMARK  5 active torsions:
REMARK  status: ('A' for Active; 'I' for Inactive)
REMARK    1  A    between atoms: C2_5  and  C3_6
REMARK    2  A    between atoms: C3_6  and  N4_9
REMARK    3  A    between atoms: C3_6  and  C11_17
REMARK    4  A    between atoms: N4_9  and  C5_11
REMARK    5  A    between atoms: C13_21  and  C14_22
ROOT
HETATM    1  C3  UNL     1      16.156  63.996  28.114  1.00  0.00     0.220 C
HETATM    2  C4  UNL     1      17.011  65.039  27.448  1.00  0.00     0.103 C
HETATM    3  N3  UNL     1      17.674  65.842  26.959  1.00  0.00    -0.194 NA
ENDROOT
BRANCH   1   4
HETATM    4  C2  UNL     1      16.080  64.505  29.553  1.00  0.00     0.075 A
HETATM    5  N2  UNL     1      17.095  64.414  30.407  1.00  0.00    -0.299 N
HETATM    6  N1  UNL     1      16.745  64.935  31.573  1.00  0.00    -0.300 N
ATOM      7  H2  UNL     1      18.006  64.006  30.196  1.00  0.00     0.187 HD
HETATM    8  C1  UNL     1      17.641  64.979  32.686  1.00  0.00     0.177 C
HETATM    9  C13 UNL     1      15.478  65.387  31.505  1.00  0.00     0.034 A
HETATM   10  C12 UNL     1      15.067  65.099  30.192  1.00  0.00     0.057 A
BRANCH   9  11
HETATM   11  C14 UNL     1      14.685  66.044  32.520  1.00  0.00     0.037 C
HETATM   12  C15 UNL     1      13.233  65.628  32.625  1.00  0.00     0.011 C
HETATM   13  C16 UNL     1      12.820  67.093  32.708  1.00  0.00     0.001 C
HETATM   14  C17 UNL     1      14.253  67.444  32.356  1.00  0.00     0.011 C
ENDBRANCH   9  11
ENDBRANCH   1   4
BRANCH   1  15
HETATM   15  N4  UNL     1      14.893  63.991  27.521  1.00  0.00    -0.388 N
ATOM     16  H4  UNL     1      14.127  64.429  28.033  1.00  0.00     0.155 HD
BRANCH  15  17
HETATM   17  C5  UNL     1      14.607  63.435  26.288  1.00  0.00     0.078 C
HETATM   18  C6  UNL     1      13.797  64.420  25.418  1.00  0.00     0.024 C
HETATM   19  C7  UNL     1      12.473  64.586  26.066  1.00  0.00     0.002 C
HETATM   20  C8  UNL     1      11.712  63.347  26.366  1.00  0.00     0.000 C
HETATM   21  C9  UNL     1      12.456  62.090  26.389  1.00  0.00     0.002 C
HETATM   22  C10 UNL     1      13.918  62.141  26.113  1.00  0.00     0.024 C
ENDBRANCH  15  17
ENDBRANCH   1  15
BRANCH   1  23
HETATM   23  C11 UNL     1      16.863  62.684  28.242  1.00  0.00     0.401 C
HETATM   24  F1  UNL     1      17.199  62.250  26.968  1.00  0.00    -0.210 F
HETATM   25  F2  UNL     1      15.899  61.768  28.716  1.00  0.00    -0.210 F
ENDBRANCH   1  23
TORSDOF 5
ENDMDL