MODEL 3
REMARK VINA RESULT: -6.935723786      3.904      6.622
REMARK  5 active torsions:
REMARK  status: ('A' for Active; 'I' for Inactive)
REMARK    1  A    between atoms: C2_2  and  O1_4
REMARK    2  A    between atoms: O1_4  and  C4_5
REMARK    3  A    between atoms: C4_5  and  C5_6
REMARK    4  A    between atoms: C5_6  and  N1_7
REMARK    5  A    between atoms: N1_7  and  C6_9
ROOT
HETATM    1  C6  UNL     1      14.226  65.555  31.423  1.00  0.00     0.679 A
HETATM    2  N2  UNL     1      15.233  65.578  32.312  1.00  0.00    -0.180 N
ATOM      3  H2  UNL     1      15.099  65.895  33.272  1.00  0.00     0.185 HD
HETATM    4  C7  UNL     1      16.425  65.161  31.865  1.00  0.00     0.138 A
HETATM    5 CL1  UNL     1      17.842  65.126  32.888  1.00  0.00    -0.062 Cl
HETATM    6  C8  UNL     1      16.589  64.728  30.541  1.00  0.00     0.072 A
HETATM    7  S1  UNL     1      17.912  64.143  29.640  1.00  0.00    -0.089 SA
HETATM    8  C9  UNL     1      17.138  63.883  28.144  1.00  0.00    -0.008 A
HETATM    9  C10 UNL     1      15.856  64.262  28.385  1.00  0.00    -0.016 A
HETATM   10  C11 UNL     1      15.562  64.705  29.641  1.00  0.00     0.076 A
HETATM   11  N3  UNL     1      14.366  65.146  30.163  1.00  0.00    -0.190 N
ATOM     12  H3  UNL     1      13.547  65.160  29.556  1.00  0.00     0.184 HD
HETATM   13  C12 UNL     1      15.068  64.062  27.084  1.00  0.00     0.042 C
HETATM   14  C13 UNL     1      16.085  63.910  26.011  1.00  0.00     0.010 C
HETATM   15  C14 UNL     1      17.327  63.418  26.715  1.00  0.00     0.047 C
ENDROOT
BRANCH   1  16
HETATM   16  N1  UNL     1      13.029  65.943  31.762  1.00  0.00    -0.224 N
ATOM     17  H1  UNL     1      12.777  65.943  32.751  1.00  0.00     0.177 HD
BRANCH  16  18
HETATM   18  C5  UNL     1      12.055  66.367  30.808  1.00  0.00     0.164 C
BRANCH  18  19
HETATM   19  C4  UNL     1      10.934  65.352  30.657  1.00  0.00     0.188 C
BRANCH  19  20
HETATM   20  O1  UNL     1      11.409  64.056  30.678  1.00  0.00    -0.385 OA
BRANCH  20  21
HETATM   21  C2  UNL     1      10.931  63.225  29.731  1.00  0.00     0.113 C
HETATM   22  C1  UNL     1       9.960  63.789  28.758  1.00  0.00     0.039 C
HETATM   23  C3  UNL     1      12.110  62.654  28.941  1.00  0.00     0.039 C
ENDBRANCH  20  21
ENDBRANCH  19  20
ENDBRANCH  18  19
ENDBRANCH  16  18
ENDBRANCH   1  16
TORSDOF 5
ENDMDL