MODEL 5
REMARK VINA RESULT: -8.208209725      1.049      1.912
REMARK  4 active torsions:
REMARK  status: ('A' for Active; 'I' for Inactive)
REMARK    1  A    between atoms: N2_4  and  C2_5
REMARK    2  A    between atoms: C13_19  and  C14_20
REMARK    3  A    between atoms: C14_20  and  N5_21
REMARK    4  A    between atoms: N5_21  and  C15_24
ROOT
HETATM    1  C1  UNL     1      18.933  64.116  35.672  1.00  0.00     0.137 A
HETATM    2  N1  UNL     1      19.442  63.254  36.563  1.00  0.00    -0.291 N
ATOM      3  H1  UNL     1      19.109  63.102  37.514  1.00  0.00     0.188 HD
HETATM    4  N2  UNL     1      20.467  62.630  35.975  1.00  0.00    -0.193 N
HETATM    5  N4  UNL     1      20.587  63.099  34.746  1.00  0.00    -0.283 N
ATOM      6  H4  UNL     1      21.292  62.795  34.075  1.00  0.00     0.188 HD
HETATM    7  C13 UNL     1      19.652  64.032  34.503  1.00  0.00     0.070 A
ENDROOT
BRANCH   4   8
HETATM    8  C2  UNL     1      21.325  61.617  36.541  1.00  0.00     0.267 C
HETATM    9  C3  UNL     1      21.043  61.431  37.994  1.00  0.00     0.069 C
HETATM   10  C4  UNL     1      22.018  60.606  38.734  1.00  0.00     0.011 C
HETATM   11  C5  UNL     1      23.265  60.246  38.029  1.00  0.00     0.019 C
HETATM   12  C6  UNL     1      24.524  60.791  38.681  1.00  0.00     0.007 C
HETATM   13  C10 UNL     1      23.315  60.607  36.576  1.00  0.00     0.230 C
HETATM   14  C7  UNL     1      24.515  62.282  38.805  1.00  0.00     0.002 C
HETATM   15  C8  UNL     1      24.641  62.885  37.403  1.00  0.00     0.030 C
HETATM   16  C9  UNL     1      23.260  63.012  36.857  1.00  0.00     0.276 C
HETATM   17  N3  UNL     1      22.720  61.849  36.246  1.00  0.00     0.126 N
HETATM   18  C11 UNL     1      22.445  59.601  35.832  1.00  0.00     0.041 C
HETATM   19  C12 UNL     1      21.085  60.307  35.824  1.00  0.00     0.070 C
ENDBRANCH   4   8
BRANCH   7  20
HETATM   20  C14 UNL     1      19.462  64.790  33.239  1.00  0.00     0.292 C
BRANCH  20  21
HETATM   21  N5  UNL     1      19.483  63.919  32.085  1.00  0.00    -0.066 N
ATOM     22  H52 UNL     1      20.055  64.289  31.325  1.00  0.00     0.278 HD
ATOM     23  H51 UNL     1      20.010  63.061  32.252  1.00  0.00     0.278 HD
BRANCH  21  24
HETATM   24  C15 UNL     1      18.107  63.659  31.675  1.00  0.00     0.186 A
HETATM   25  C16 UNL     1      17.571  64.345  30.464  1.00  0.00     0.035 A
HETATM   26  C17 UNL     1      17.171  64.778  31.829  1.00  0.00     0.035 A
ENDBRANCH  21  24
ENDBRANCH  20  21
ENDBRANCH   7  20
TORSDOF 4
ENDMDL