MODEL 3
REMARK VINA RESULT: -6.424224025      2.420      4.069
REMARK  7 active torsions:
REMARK  status: ('A' for Active; 'I' for Inactive)
REMARK    1  A    between atoms: O1_2  and  C2_3
REMARK    2  A    between atoms: N2_7  and  C4_9
REMARK    3  A    between atoms: C5_11  and  C6_12
REMARK    4  A    between atoms: C6_12  and  C7_13
REMARK    5  A    between atoms: C7_13  and  C8_14
REMARK    6  A    between atoms: C12_18  and  S1_19
REMARK    7  A    between atoms: S1_19  and  C13_20
ROOT
HETATM    1  C2  UNL     1      16.896  65.239  32.152  1.00  0.00     0.225 A
HETATM    2  N1  UNL     1      16.971  64.830  30.885  1.00  0.00    -0.307 N
ATOM      3  H1  UNL     1      17.886  64.578  30.510  1.00  0.00     0.171 HD
HETATM    4  C3  UNL     1      15.887  64.731  30.065  1.00  0.00     0.131 A
HETATM    5  N2  UNL     1      16.088  64.334  28.897  1.00  0.00    -0.328 N
ATOM      6  H2  UNL     1      17.079  64.140  28.751  1.00  0.00     0.169 HD
HETATM    7  C5  UNL     1      14.653  65.082  30.605  1.00  0.00     0.095 A
HETATM    8  C12 UNL     1      14.577  65.499  31.903  1.00  0.00     0.096 A
HETATM    9  N3  UNL     1      15.688  65.566  32.635  1.00  0.00    -0.315 N
ATOM     10  H3  UNL     1      15.617  65.880  33.603  1.00  0.00     0.170 HD
ENDROOT
BRANCH   7  11
HETATM   11  C6  UNL     1      13.458  65.033  29.811  1.00  0.00    -0.060 C
BRANCH  11  12
HETATM   12  C7  UNL     1      12.447  64.970  29.159  1.00  0.00    -0.096 C
BRANCH  12  13
HETATM   13  C8  UNL     1      11.220  64.866  28.376  1.00  0.00     0.065 C
HETATM   14  C9  UNL     1      10.982  63.453  27.938  1.00  0.00     0.017 C
HETATM   15  C10 UNL     1       9.491  63.682  28.227  1.00  0.00     0.002 C
HETATM   16  C11 UNL     1       9.955  64.748  29.227  1.00  0.00     0.017 C
ENDBRANCH  12  13
ENDBRANCH  11  12
ENDBRANCH   7  11
BRANCH   8  17
HETATM   17  S1  UNL     1      13.017  65.955  32.595  1.00  0.00    -0.106 SA
BRANCH  17  18
HETATM   18  C13 UNL     1      12.532  67.648  32.301  1.00  0.00     0.045 C
HETATM   19  C14 UNL     1      13.630  68.528  31.760  1.00  0.00     0.021 C
HETATM   20  C15 UNL     1      11.360  67.761  31.342  1.00  0.00     0.021 C
ENDBRANCH  17  18
ENDBRANCH   8  17
BRANCH   5  21
HETATM   21  C4  UNL     1      15.364  64.077  27.738  1.00  0.00     0.282 C
HETATM   22  F1  UNL     1      14.856  62.766  27.827  1.00  0.00    -0.201 F
ENDBRANCH   5  21
BRANCH   1  23
HETATM   23  O1  UNL     1      18.073  65.296  32.883  1.00  0.00    -0.327 OA
HETATM   24  C1  UNL     1      19.218  64.564  32.585  1.00  0.00     0.213 C
ENDBRANCH   1  23
TORSDOF 7
ENDMDL