MODEL 1
REMARK VINA RESULT: -8.352106383      0.000      0.000
REMARK  7 active torsions:
REMARK  status: ('A' for Active; 'I' for Inactive)
REMARK    1  A    between atoms: C3_3  and  C4_4
REMARK    2  A    between atoms: C4_4  and  C5_5
REMARK    3  A    between atoms: C5_5  and  C6_6
REMARK       I    between atoms: C6_6  and  N1_8
REMARK       I    between atoms: N1_8  and  C7_10
REMARK    4  A    between atoms: C7_10  and  C8_12
REMARK    5  A    between atoms: C8_12  and  O3_13
REMARK    6  A    between atoms: O3_13  and  C9_14
REMARK    7  A    between atoms: C9_14  and  C10_16
ROOT
HETATM    1  C1  UNL     1      11.591  65.819  31.281  1.00  0.00     0.012 C
HETATM    2  C2  UNL     1      11.297  64.844  30.639  1.00  0.00    -0.117 C
HETATM    3  C3  UNL     1      10.949  63.627  29.863  1.00  0.00     0.093 C
ENDROOT
BRANCH   3   4
HETATM    4  C4  UNL     1      11.428  63.822  28.469  1.00  0.00     0.021 C
BRANCH   4   5
HETATM    5  C5  UNL     1      12.004  62.583  27.885  1.00  0.00     0.104 C
BRANCH   5   6
HETATM    6  C6  UNL     1      13.447  62.722  27.525  1.00  0.00     0.224 C
HETATM    7  O1  UNL     1      13.796  63.395  26.525  1.00  0.00    -0.273 OA
HETATM    8  N1  UNL     1      14.446  62.097  28.305  1.00  0.00    -0.296 N
HETATM    9  C7  UNL     1      15.808  62.176  28.040  1.00  0.00     0.248 C
ATOM     10  H1  UNL     1      14.148  61.552  29.115  1.00  0.00     0.171 HD
HETATM   11  O2  UNL     1      16.622  61.544  28.818  1.00  0.00    -0.271 OA
BRANCH   9  12
HETATM   12  C8  UNL     1      16.343  62.954  26.904  1.00  0.00     0.282 C
BRANCH  12  13
HETATM   13  O3  UNL     1      17.563  63.629  27.260  1.00  0.00    -0.308 OA
BRANCH  13  14
HETATM   14  C9  UNL     1      17.481  64.803  27.945  1.00  0.00     0.295 C
HETATM   15  O4  UNL     1      17.379  65.916  27.370  1.00  0.00    -0.259 OA
BRANCH  14  16
HETATM   16  C10 UNL     1      17.506  64.853  29.427  1.00  0.00     0.060 A
HETATM   17  C11 UNL     1      18.632  64.510  30.138  1.00  0.00     0.058 A
HETATM   18  C12 UNL     1      18.623  64.567  31.510  1.00  0.00     0.103 A
HETATM   19  C13 UNL     1      17.485  64.969  32.189  1.00  0.00     0.109 A
HETATM   20  O6  UNL     1      19.849  64.187  32.098  1.00  0.00    -0.348 OA
HETATM   21  C14 UNL     1      16.330  65.323  31.490  1.00  0.00    -0.007 A
HETATM   22  O5  UNL     1      17.367  65.062  33.569  1.00  0.00    -0.348 OA
HETATM   23  C15 UNL     1      15.151  65.742  32.244  1.00  0.00     0.052 C
HETATM   24  C16 UNL     1      16.383  65.252  30.127  1.00  0.00     0.036 A
HETATM   25 BR1  UNL     1      14.838  65.722  29.120  1.00  0.00    -0.049 Br
HETATM   26  C17 UNL     1      18.072  64.292  34.503  1.00  0.00     0.178 C
HETATM   27  C18 UNL     1      19.526  64.362  34.526  1.00  0.00     0.053 C
HETATM   28  C19 UNL     1      20.306  64.691  33.328  1.00  0.00     0.178 C
ENDBRANCH  14  16
ENDBRANCH  13  14
ENDBRANCH  12  13
ENDBRANCH   9  12
ENDBRANCH   5   6
ENDBRANCH   4   5
ENDBRANCH   3   4
TORSDOF 7
ENDMDL