MODEL 5
REMARK VINA RESULT: -9.033897735      1.112      1.481
REMARK  8 active torsions:
REMARK  status: ('A' for Active; 'I' for Inactive)
REMARK    1  A    between atoms: C2_2  and  C4_5
REMARK    2  A    between atoms: C4_5  and  N1_6
REMARK    3  A    between atoms: N1_6  and  C5_8
REMARK    4  A    between atoms: C6_11  and  C7_12
REMARK    5  A    between atoms: C7_12  and  N3_13
REMARK    6  A    between atoms: N4_16  and  C10_17
REMARK    7  A    between atoms: C17_25  and  C18_26
REMARK    8  A    between atoms: C18_26  and  C19_27
ROOT
HETATM    1  C5  UNL     1      17.304  64.073  28.719  1.00  0.00     0.151 A
HETATM    2  N2  UNL     1      18.179  64.277  29.755  1.00  0.00    -0.340 N
ATOM      3  H2  UNL     1      19.165  64.060  29.607  1.00  0.00     0.167 HD
HETATM    4  C6  UNL     1      17.803  64.746  30.947  1.00  0.00     0.055 A
HETATM    5  C16 UNL     1      16.469  65.037  31.151  1.00  0.00     0.125 A
HETATM    6  N5  UNL     1      15.562  64.852  30.158  1.00  0.00    -0.306 N
HETATM    7  C17 UNL     1      14.233  65.049  30.105  1.00  0.00     0.034 A
HETATM    8  C23 UNL     1      13.856  64.676  28.835  1.00  0.00     0.115 A
HETATM    9  N6  UNL     1      14.928  64.264  28.136  1.00  0.00    -0.347 N
ATOM     10  H6  UNL     1      14.939  63.933  27.171  1.00  0.00     0.167 HD
HETATM   11  C24 UNL     1      15.983  64.376  28.964  1.00  0.00     0.157 A
ENDROOT
BRANCH   4  12
HETATM   12  C7  UNL     1      18.788  64.951  32.038  1.00  0.00     0.330 C
BRANCH  12  13
HETATM   13  N3  UNL     1      19.612  63.796  32.239  1.00  0.00     0.097 N
HETATM   14  C8  UNL     1      18.942  62.773  33.006  1.00  0.00     0.303 C
HETATM   15  C9  UNL     1      19.365  62.812  34.458  1.00  0.00     0.303 C
HETATM   16  N4  UNL     1      20.768  62.473  34.625  1.00  0.00     0.096 N
HETATM   17  C14 UNL     1      21.465  62.941  33.453  1.00  0.00     0.303 C
HETATM   18  C15 UNL     1      20.831  64.201  32.901  1.00  0.00     0.303 C
BRANCH  16  19
HETATM   19  C10 UNL     1      21.211  63.065  35.849  1.00  0.00     0.223 C
HETATM   20  C11 UNL     1      22.634  62.766  36.255  1.00  0.00     0.036 C
HETATM   21  C12 UNL     1      22.110  62.559  37.679  1.00  0.00     0.004 C
HETATM   22  C13 UNL     1      20.763  62.221  37.040  1.00  0.00     0.036 C
ENDBRANCH  16  19
ENDBRANCH  12  13
ENDBRANCH   4  12
BRANCH   1  23
HETATM   23  N1  UNL     1      17.815  63.627  27.659  1.00  0.00    -0.350 N
ATOM     24  H1  UNL     1      18.830  63.542  27.702  1.00  0.00     0.166 HD
BRANCH  23  25
HETATM   25  C4  UNL     1      17.270  63.222  26.425  1.00  0.00     0.105 C
BRANCH  25  26
HETATM   26  C2  UNL     1      17.333  64.296  25.351  1.00  0.00     0.128 C
HETATM   27  C1  UNL     1      17.951  65.526  25.993  1.00  0.00     0.057 C
HETATM   28  C3  UNL     1      15.903  64.677  24.945  1.00  0.00     0.057 C
HETATM   29  F1  UNL     1      17.980  63.903  24.218  1.00  0.00    -0.238 F
ENDBRANCH  25  26
ENDBRANCH  23  25
ENDBRANCH   1  23
BRANCH   7  30
HETATM   30  C18 UNL     1      13.386  65.562  31.186  1.00  0.00     0.066 C
BRANCH  30  31
HETATM   31  C19 UNL     1      12.796  66.895  31.015  1.00  0.00     0.017 C
HETATM   32  C20 UNL     1      11.308  66.994  30.902  1.00  0.00     0.033 C
HETATM   33  C21 UNL     1      11.162  68.510  31.184  1.00  0.00     0.168 C
HETATM   34  O1  UNL     1      11.912  68.606  32.351  1.00  0.00    -0.391 OA
HETATM   35  C22 UNL     1      13.086  67.910  32.085  1.00  0.00     0.172 C
ENDBRANCH  30  31
ENDBRANCH   7  30
TORSDOF 8
ENDMDL