MODEL 5
REMARK VINA RESULT: -9.268988188      1.184      1.957
REMARK  7 active torsions:
REMARK  status: ('A' for Active; 'I' for Inactive)
REMARK    1  A    between atoms: N1_7  and  C7_8
REMARK    2  A    between atoms: C7_8  and  C8_9
REMARK    3  A    between atoms: C8_9  and  C9_10
REMARK    4  A    between atoms: C9_10  and  N2_11
REMARK    5  A    between atoms: C13_17  and  C14_18
REMARK    6  A    between atoms: C14_18  and  N4_19
REMARK    7  A    between atoms: N6_27  and  C19_28
ROOT
HETATM    1  N2  UNL     1      15.376  65.787  28.460  1.00  0.00    -0.373 N
ATOM      2  H2  UNL     1      14.473  66.259  28.516  1.00  0.00     0.161 HD
HETATM    3  C10 UNL     1      15.921  65.493  29.602  1.00  0.00     0.146 A
HETATM    4  C11 UNL     1      17.108  64.861  29.848  1.00  0.00     0.119 A
HETATM    5  C12 UNL     1      18.038  64.329  28.898  1.00  0.00     0.106 C
HETATM    6  N3  UNL     1      18.790  63.865  28.148  1.00  0.00    -0.191 NA
HETATM    7  C13 UNL     1      17.271  64.769  31.216  1.00  0.00     0.088 A
HETATM    8  N5  UNL     1      16.179  65.344  31.725  1.00  0.00    -0.289 N
ATOM      9  H5  UNL     1      16.000  65.427  32.726  1.00  0.00     0.188 HD
HETATM   10  N6  UNL     1      15.358  65.793  30.801  1.00  0.00    -0.235 N
ENDROOT
BRANCH   7  11
HETATM   11  C14 UNL     1      18.505  64.315  31.927  1.00  0.00     0.122 C
BRANCH  11  12
HETATM   12  N4  UNL     1      18.541  64.432  33.299  1.00  0.00    -0.364 N
HETATM   13  C15 UNL     1      19.613  65.002  33.973  1.00  0.00     0.089 C
HETATM   14  C16 UNL     1      20.518  63.860  34.438  1.00  0.00     0.212 C
HETATM   15  O1  UNL     1      19.920  63.166  35.443  1.00  0.00    -0.385 OA
HETATM   16  C17 UNL     1      18.572  63.080  35.350  1.00  0.00     0.188 C
HETATM   17  C18 UNL     1      17.945  63.341  34.018  1.00  0.00     0.153 C
ENDBRANCH  11  12
ENDBRANCH   7  11
BRANCH   1  18
HETATM   18  C9  UNL     1      15.854  65.547  27.154  1.00  0.00     0.123 C
BRANCH  18  19
HETATM   19  C8  UNL     1      14.938  64.646  26.342  1.00  0.00     0.050 C
BRANCH  19  20
HETATM   20  C7  UNL     1      14.859  63.322  27.073  1.00  0.00     0.275 C
BRANCH  20  21
HETATM   21  N1  UNL     1      13.547  62.796  27.171  1.00  0.00     0.097 N
HETATM   22  C2  UNL     1      12.738  62.697  26.029  1.00  0.00     0.219 C
HETATM   23  C1  UNL     1      12.372  61.278  25.641  1.00  0.00     0.043 C
HETATM   24  C3  UNL     1      11.381  63.371  26.369  1.00  0.00     0.037 C
HETATM   25  C4  UNL     1      11.647  64.148  27.618  1.00  0.00     0.037 C
HETATM   26  C5  UNL     1      12.784  63.386  28.250  1.00  0.00     0.219 C
HETATM   27  C6  UNL     1      12.366  62.301  29.193  1.00  0.00     0.043 C
ENDBRANCH  20  21
ENDBRANCH  19  20
ENDBRANCH  18  19
ENDBRANCH   1  18
BRANCH  10  28
HETATM   28  C19 UNL     1      14.131  66.548  30.956  1.00  0.00     0.097 A
HETATM   29  C20 UNL     1      14.055  67.907  30.850  1.00  0.00     0.035 A
HETATM   30  C21 UNL     1      12.852  68.580  31.080  1.00  0.00     0.002 A
HETATM   31  C22 UNL     1      11.739  67.851  31.414  1.00  0.00     0.003 A
HETATM   32  C23 UNL     1      11.768  66.484  31.528  1.00  0.00     0.045 A
HETATM   33  C24 UNL     1      12.987  65.847  31.293  1.00  0.00     0.145 A
HETATM   34  F1  UNL     1      13.001  64.495  31.424  1.00  0.00    -0.204 F
ENDBRANCH  10  28
TORSDOF 7
ENDMDL