MODEL 4
REMARK VINA RESULT: -9.646904581      1.341      1.792
REMARK  7 active torsions:
REMARK  status: ('A' for Active; 'I' for Inactive)
REMARK       I    between atoms: C2_2  and  N1_4
REMARK    1  A    between atoms: N1_4  and  C3_6
REMARK    2  A    between atoms: C3_6  and  C5_8
REMARK    3  A    between atoms: C7_12  and  O2_13
REMARK    4  A    between atoms: O2_13  and  C8_14
REMARK       I    between atoms: N3_17  and  C11_18
REMARK    5  A    between atoms: C11_18  and  C12_20
REMARK    6  A    between atoms: C12_20  and  C13_21
REMARK    7  A    between atoms: C18_27  and  N4_28
ROOT
HETATM    1  C5  UNL     1      16.106  64.251  28.292  1.00  0.00     0.049 A
HETATM    2  C6  UNL     1      17.333  63.793  28.725  1.00  0.00     0.117 A
HETATM    3  N2  UNL     1      17.758  63.999  29.986  1.00  0.00    -0.342 N
ATOM      4  H2  UNL     1      18.672  63.646  30.270  1.00  0.00     0.167 HD
HETATM    5  C7  UNL     1      17.002  64.661  30.879  1.00  0.00     0.188 A
HETATM    6  C18 UNL     1      15.774  65.123  30.456  1.00  0.00     0.156 A
HETATM    7  N5  UNL     1      15.345  64.916  29.186  1.00  0.00    -0.340 N
ATOM      8  H5  UNL     1      14.431  65.269  28.901  1.00  0.00     0.167 HD
ENDROOT
BRANCH   5   9
HETATM    9  O2  UNL     1      17.377  64.906  32.185  1.00  0.00    -0.327 OA
BRANCH   9  10
HETATM   10  C8  UNL     1      18.301  64.127  32.903  1.00  0.00     0.133 C
HETATM   11  C9  UNL     1      17.839  63.828  34.308  1.00  0.00     0.052 C
HETATM   12  C10 UNL     1      18.773  64.418  35.346  1.00  0.00     0.128 C
HETATM   13  N3  UNL     1      20.097  63.907  35.061  1.00  0.00    -0.352 N
HETATM   14  C11 UNL     1      20.773  63.172  36.056  1.00  0.00     0.222 C
HETATM   15  C16 UNL     1      20.654  64.186  33.754  1.00  0.00     0.128 C
HETATM   16  O3  UNL     1      20.261  62.951  37.171  1.00  0.00    -0.273 OA
HETATM   17  C17 UNL     1      19.616  64.872  32.908  1.00  0.00     0.052 C
BRANCH  14  18
HETATM   18  C12 UNL     1      22.136  62.631  35.802  1.00  0.00     0.145 C
BRANCH  18  19
HETATM   19  C13 UNL     1      22.119  61.138  35.644  1.00  0.00     0.104 C
HETATM   20  C14 UNL     1      23.247  60.743  34.718  1.00  0.00     0.051 C
HETATM   21  C15 UNL     1      22.199  60.406  36.960  1.00  0.00     0.051 C
HETATM   22  F1  UNL     1      20.938  60.810  34.989  1.00  0.00    -0.243 F
ENDBRANCH  18  19
ENDBRANCH  14  18
ENDBRANCH   9  10
ENDBRANCH   5   9
BRANCH   6  23
HETATM   23  N4  UNL     1      14.947  65.824  31.365  1.00  0.00    -0.364 N
HETATM   24  C19 UNL     1      13.954  65.228  32.227  1.00  0.00     0.124 C
HETATM   25  C20 UNL     1      12.994  66.371  32.463  1.00  0.00     0.021 C
HETATM   26  C21 UNL     1      13.937  67.541  32.631  1.00  0.00     0.021 C
HETATM   27  C22 UNL     1      14.978  67.257  31.560  1.00  0.00     0.124 C
ENDBRANCH   6  23
BRANCH   1  28
HETATM   28  C3  UNL     1      15.673  64.003  26.893  1.00  0.00     0.132 C
HETATM   29  C4  UNL     1      15.087  62.621  26.748  1.00  0.00     0.039 C
BRANCH  28  30
HETATM   30  N1  UNL     1      16.796  64.206  26.031  1.00  0.00    -0.352 N
HETATM   31  C2  UNL     1      17.079  65.441  25.388  1.00  0.00     0.214 C
HETATM   32  C1  UNL     1      18.241  65.634  24.503  1.00  0.00     0.117 C
HETATM   33  O1  UNL     1      16.298  66.403  25.589  1.00  0.00    -0.274 OA
ATOM     34  H1  UNL     1      17.428  63.422  25.869  1.00  0.00     0.163 HD
ENDBRANCH  28  30
ENDBRANCH   1  28
TORSDOF 7
ENDMDL