MODEL 3
REMARK VINA RESULT: -8.543102550      3.536     10.925
REMARK  8 active torsions:
REMARK  status: ('A' for Active; 'I' for Inactive)
REMARK    1  A    between atoms: C3_3  and  C4_4
REMARK       I    between atoms: C4_4  and  N1_6
REMARK    2  A    between atoms: C8_10  and  C9_11
REMARK    3  A    between atoms: C9_11  and  N2_12
REMARK    4  A    between atoms: C12_15  and  C13_16
REMARK       I    between atoms: C13_16  and  N3_18
REMARK    5  A    between atoms: N3_18  and  C14_20
REMARK    6  A    between atoms: C14_20  and  C15_21
REMARK    7  A    between atoms: C15_21  and  C16_22
REMARK    8  A    between atoms: N5_29  and  C20_30
ROOT
HETATM    1  C4  UNL     1      14.917  65.217  30.246  1.00  0.00     0.257 C
HETATM    2  O1  UNL     1      15.019  66.296  30.928  1.00  0.00    -0.267 OA
HETATM    3  N1  UNL     1      16.050  64.491  29.903  1.00  0.00    -0.339 N
HETATM    4  C5  UNL     1      16.148  63.286  29.159  1.00  0.00     0.127 C
HETATM    5  C6  UNL     1      17.433  63.470  28.357  1.00  0.00     0.022 C
HETATM    6  C7  UNL     1      18.003  64.807  28.867  1.00  0.00     0.032 C
HETATM    7  C8  UNL     1      17.438  64.861  30.269  1.00  0.00     0.126 C
ENDROOT
BRANCH   7   8
HETATM    8  C9  UNL     1      18.031  63.817  31.137  1.00  0.00     0.088 C
BRANCH   8   9
HETATM    9  N2  UNL     1      18.567  64.211  32.363  1.00  0.00    -0.368 N
HETATM   10  C10 UNL     1      19.867  64.694  32.481  1.00  0.00     0.090 C
HETATM   11  C11 UNL     1      20.539  64.375  33.754  1.00  0.00     0.030 C
HETATM   12  C12 UNL     1      20.199  63.369  34.506  1.00  0.00     0.012 C
HETATM   13  C17 UNL     1      19.054  62.509  34.045  1.00  0.00     0.064 C
HETATM   14  C18 UNL     1      18.023  63.500  33.505  1.00  0.00     0.132 C
BRANCH  12  15
HETATM   15  C13 UNL     1      20.897  63.075  35.777  1.00  0.00     0.247 C
HETATM   16  O2  UNL     1      22.127  62.827  35.677  1.00  0.00    -0.268 OA
HETATM   17  N3  UNL     1      20.284  63.061  37.028  1.00  0.00    -0.357 N
ATOM     18  H3  UNL     1      19.286  63.273  37.047  1.00  0.00     0.162 HD
BRANCH  17  19
HETATM   19  C14 UNL     1      20.899  62.784  38.286  1.00  0.00     0.125 C
BRANCH  19  20
HETATM   20  C15 UNL     1      20.590  61.378  38.732  1.00  0.00     0.051 C
BRANCH  20  21
HETATM   21  C16 UNL     1      21.650  60.401  38.256  1.00  0.00     0.224 C
HETATM   22  F1  UNL     1      21.142  59.826  37.085  1.00  0.00    -0.255 F
ENDBRANCH  20  21
ENDBRANCH  19  20
ENDBRANCH  17  19
ENDBRANCH  12  15
ENDBRANCH   8   9
ENDBRANCH   7   8
BRANCH   1  23
HETATM   23  C3  UNL     1      13.551  64.811  29.861  1.00  0.00     0.072 A
HETATM   24  C2  UNL     1      13.004  64.910  28.601  1.00  0.00     0.042 A
HETATM   25  C1  UNL     1      13.721  65.446  27.420  1.00  0.00     0.071 C
HETATM   26  N5  UNL     1      11.739  64.450  28.604  1.00  0.00    -0.287 N
HETATM   27  N4  UNL     1      11.470  64.057  29.860  1.00  0.00    -0.308 N
HETATM   28  C19 UNL     1      12.558  64.267  30.645  1.00  0.00     0.126 A
ATOM     29  H4  UNL     1      10.584  63.662  30.175  1.00  0.00     0.186 HD
BRANCH  26  30
HETATM   30  C20 UNL     1      10.784  64.357  27.526  1.00  0.00     0.043 C
HETATM   31  C21 UNL     1      11.246  63.351  26.483  1.00  0.00     0.039 C
HETATM   32  C22 UNL     1      10.466  65.662  26.869  1.00  0.00     0.039 C
HETATM   33  C23 UNL     1       9.461  63.803  28.071  1.00  0.00     0.039 C
ENDBRANCH  26  30
ENDBRANCH   1  23
TORSDOF 8
ENDMDL