MODEL 1
REMARK VINA RESULT: -8.131487733      0.000      0.000
REMARK  8 active torsions:
REMARK  status: ('A' for Active; 'I' for Inactive)
REMARK    1  A    between atoms: C2_2  and  C3_3
REMARK    2  A    between atoms: C3_3  and  C4_4
REMARK    3  A    between atoms: C4_4  and  O1_5
REMARK    4  A    between atoms: O1_5  and  C5_6
REMARK    5  A    between atoms: C7_8  and  C8_9
REMARK    6  A    between atoms: C8_9  and  C9_10
REMARK    7  A    between atoms: C15_17  and  O2_18
REMARK    8  A    between atoms: C16_20  and  N1_21
ROOT
HETATM    1  C5  UNL     1      21.888  61.766  34.476  1.00  0.00     0.263 C
HETATM    2  C6  UNL     1      21.842  63.190  34.048  1.00  0.00     0.068 C
HETATM    3  C7  UNL     1      20.303  63.476  33.945  1.00  0.00     0.028 C
HETATM    4  C15 UNL     1      19.793  63.391  35.324  1.00  0.00     0.182 C
HETATM    5  C16 UNL     1      20.898  62.853  36.268  1.00  0.00     0.390 C
HETATM    6  O4  UNL     1      21.399  61.680  35.788  1.00  0.00    -0.324 OA
ENDROOT
BRANCH   3   7
HETATM    7  C8  UNL     1      20.090  64.686  33.134  1.00  0.00     0.046 C
BRANCH   7   8
HETATM    8  C9  UNL     1      18.834  64.758  32.350  1.00  0.00    -0.056 A
HETATM    9  C10 UNL     1      18.861  64.192  31.054  1.00  0.00     0.007 A
HETATM   10  C11 UNL     1      17.783  64.195  30.212  1.00  0.00     0.002 A
HETATM   11  C12 UNL     1      16.597  64.768  30.616  1.00  0.00     0.019 A
HETATM   12  C13 UNL     1      16.555  65.325  31.881  1.00  0.00     0.011 A
HETATM   13 BR1  UNL     1      14.958  66.113  32.517  1.00  0.00    -0.051 Br
HETATM   14  C14 UNL     1      17.665  65.323  32.741  1.00  0.00     0.026 A
ENDBRANCH   7   8
ENDBRANCH   3   7
BRANCH   4  15
HETATM   15  O2  UNL     1      19.278  64.555  35.879  1.00  0.00    -0.391 OA
ATOM     16  H2  UNL     1      19.579  64.787  36.750  1.00  0.00     0.210 HD
ENDBRANCH   4  15
BRANCH   1  17
HETATM   17  O1  UNL     1      23.080  61.114  34.431  1.00  0.00    -0.361 OA
BRANCH  17  18
HETATM   18  C4  UNL     1      23.878  61.616  35.463  1.00  0.00     0.171 C
BRANCH  18  19
HETATM   19  C3  UNL     1      24.563  60.514  36.176  1.00  0.00     0.026 C
BRANCH  19  20
HETATM   20  C2  UNL     1      24.768  60.810  37.649  1.00  0.00    -0.002 C
HETATM   21  C1  UNL     1      24.774  62.260  37.983  1.00  0.00     0.005 C
ENDBRANCH  19  20
ENDBRANCH  18  19
ENDBRANCH  17  18
ENDBRANCH   1  17
BRANCH   5  22
HETATM   22  N1  UNL     1      20.306  62.528  37.576  1.00  0.00     0.124 N
HETATM   23  C17 UNL     1      19.856  61.146  37.540  1.00  0.00     0.302 C
HETATM   24  C18 UNL     1      21.092  60.238  37.556  1.00  0.00     0.198 C
HETATM   25  O3  UNL     1      21.661  60.296  38.817  1.00  0.00    -0.388 OA
HETATM   26  C19 UNL     1      21.315  61.408  39.546  1.00  0.00     0.198 C
HETATM   27  C20 UNL     1      21.225  62.649  38.660  1.00  0.00     0.302 C
ENDBRANCH   5  22
TORSDOF 8
ENDMDL