MODEL 2
REMARK VINA RESULT: -7.664084881      0.698      1.241
REMARK  7 active torsions:
REMARK  status: ('A' for Active; 'I' for Inactive)
REMARK    1  A    between atoms: S1_2  and  C1_4
REMARK    2  A    between atoms: S1_2  and  N3_21
REMARK    3  A    between atoms: C4_9  and  N1_10
REMARK    4  A    between atoms: N1_10  and  C5_12
REMARK    5  A    between atoms: C5_12  and  C6_13
REMARK    6  A    between atoms: C6_13  and  C7_14
REMARK    7  A    between atoms: C7_14  and  N2_15
ROOT
HETATM    1  C1  UNL     1      16.957  64.790  29.613  1.00  0.00     0.142 A
HETATM    2  S2  UNL     1      15.416  65.524  29.824  1.00  0.00    -0.067 SA
HETATM    3  C2  UNL     1      15.425  65.694  31.508  1.00  0.00     0.055 A
HETATM    4 BR1  UNL     1      14.056  66.444  32.645  1.00  0.00    -0.043 Br
HETATM    5  C3  UNL     1      16.634  65.174  31.875  1.00  0.00     0.057 A
HETATM    6  C4  UNL     1      17.427  64.704  30.893  1.00  0.00     0.060 A
ENDROOT
BRANCH   6   7
HETATM    7  N1  UNL     1      18.731  64.135  31.174  1.00  0.00    -0.388 N
ATOM      8  H1  UNL     1      19.482  64.280  30.499  1.00  0.00     0.159 HD
BRANCH   7   9
HETATM    9  C5  UNL     1      19.016  63.371  32.368  1.00  0.00     0.121 C
BRANCH   9  10
HETATM   10  C6  UNL     1      20.441  63.647  32.824  1.00  0.00     0.050 C
BRANCH  10  11
HETATM   11  C7  UNL     1      21.125  62.390  33.276  1.00  0.00     0.274 C
BRANCH  11  12
HETATM   12  N2  UNL     1      21.862  62.641  34.479  1.00  0.00     0.092 N
HETATM   13  C8  UNL     1      22.655  61.567  34.970  1.00  0.00     0.298 C
HETATM   14  C9  UNL     1      21.815  60.530  35.697  1.00  0.00     0.198 C
HETATM   15  O3  UNL     1      21.211  61.172  36.753  1.00  0.00    -0.388 OA
HETATM   16  C10 UNL     1      20.364  62.192  36.367  1.00  0.00     0.198 C
HETATM   17  C11 UNL     1      21.036  63.245  35.513  1.00  0.00     0.298 C
ENDBRANCH  11  12
ENDBRANCH  10  11
ENDBRANCH   9  10
ENDBRANCH   7   9
ENDBRANCH   6   7
BRANCH   1  18
HETATM   18  S1  UNL     1      17.701  64.280  28.090  1.00  0.00     0.252 S
HETATM   19  O1  UNL     1      19.121  63.971  28.337  1.00  0.00    -0.205 OA
HETATM   20  O2  UNL     1      17.673  65.448  27.112  1.00  0.00    -0.205 OA
BRANCH  18  21
HETATM   21  N3  UNL     1      16.917  62.949  27.384  1.00  0.00    -0.206 NA
HETATM   22  C12 UNL     1      15.911  62.323  28.177  1.00  0.00     0.107 C
HETATM   23  C13 UNL     1      14.599  62.377  27.401  1.00  0.00     0.017 C
HETATM   24  C14 UNL     1      14.817  63.613  26.555  1.00  0.00     0.017 C
HETATM   25  C15 UNL     1      16.287  63.408  26.161  1.00  0.00     0.107 C
ENDBRANCH  18  21
ENDBRANCH   1  18
TORSDOF 7
ENDMDL