MODEL 4
REMARK VINA RESULT: -9.086733567      3.490      9.449
REMARK  11 active torsions:
REMARK  status: ('A' for Active; 'I' for Inactive)
REMARK    1  A    between atoms: N1_5  and  C5_6
REMARK    2  A    between atoms: C5_6  and  O1_7
REMARK    3  A    between atoms: C5_6  and  C6_9
REMARK    4  A    between atoms: C6_9  and  O2_10
REMARK    5  A    between atoms: O2_10  and  C7_11
REMARK    6  A    between atoms: C7_11  and  C8_13
REMARK    7  A    between atoms: C8_13  and  C9_14
REMARK    8  A    between atoms: C9_14  and  C10_15
REMARK    9  A    between atoms: C10_15  and  C11_16
REMARK       I    between atoms: C11_16  and  N2_18
REMARK   10  A    between atoms: N2_18  and  C12_20
REMARK   11  A    between atoms: C13_25  and  C14_26
ROOT
HETATM    1  C10 UNL     1      17.573  63.758  28.183  1.00  0.00     0.103 C
ENDROOT
BRANCH   1   2
HETATM    2  C9  UNL     1      17.845  64.620  29.371  1.00  0.00     0.019 C
BRANCH   2   3
HETATM    3  C8  UNL     1      17.766  63.937  30.694  1.00  0.00     0.112 C
BRANCH   3   4
HETATM    4  C7  UNL     1      17.307  64.941  31.700  1.00  0.00     0.263 C
HETATM    5  O3  UNL     1      16.229  65.557  31.552  1.00  0.00    -0.265 OA
BRANCH   4   6
HETATM    6  O2  UNL     1      18.072  65.222  32.839  1.00  0.00    -0.287 OA
BRANCH   6   7
HETATM    7  C6  UNL     1      19.437  65.016  32.956  1.00  0.00     0.201 C
BRANCH   7   8
HETATM    8  C5  UNL     1      20.011  64.723  34.253  1.00  0.00     0.161 C
BRANCH   8   9
HETATM    9  N1  UNL     1      20.308  63.509  34.817  1.00  0.00    -0.360 N
HETATM   10  C4  UNL     1      21.460  62.729  34.328  1.00  0.00     0.125 C
HETATM   11  C3  UNL     1      22.532  62.772  35.361  1.00  0.00     0.024 C
HETATM   12  C2  UNL     1      21.928  62.946  36.728  1.00  0.00    -0.015 C
HETATM   13  C1  UNL     1      22.907  62.456  37.777  1.00  0.00     0.010 C
HETATM   14  C20 UNL     1      20.644  62.190  36.821  1.00  0.00     0.024 C
HETATM   15  C19 UNL     1      19.614  62.917  35.929  1.00  0.00     0.125 C
ENDBRANCH   8   9
BRANCH   8  16
HETATM   16  O1  UNL     1      20.276  65.768  34.986  1.00  0.00    -0.345 OA
ATOM     17  H1  UNL     1      19.542  66.131  35.469  1.00  0.00     0.219 HD
ENDBRANCH   8  16
ENDBRANCH   7   8
ENDBRANCH   6   7
ENDBRANCH   4   6
ENDBRANCH   3   4
ENDBRANCH   2   3
ENDBRANCH   1   2
BRANCH   1  18
HETATM   18  C11 UNL     1      16.430  62.843  28.325  1.00  0.00     0.223 C
HETATM   19  O4  UNL     1      16.587  61.713  28.836  1.00  0.00    -0.273 OA
HETATM   20  N2  UNL     1      15.159  63.228  27.889  1.00  0.00    -0.306 N
ATOM     21  H2  UNL     1      14.792  62.907  26.993  1.00  0.00     0.171 HD
BRANCH  20  22
HETATM   22  C12 UNL     1      14.450  64.017  28.665  1.00  0.00     0.167 A
HETATM   23  N3  UNL     1      14.637  65.314  28.919  1.00  0.00    -0.279 N
HETATM   24  N4  UNL     1      13.837  65.905  29.705  1.00  0.00    -0.295 N
ATOM     25  H3  UNL     1      15.410  65.821  28.488  1.00  0.00     0.189 HD
HETATM   26  C13 UNL     1      12.840  65.260  30.264  1.00  0.00     0.076 A
ATOM     27  H4  UNL     1      13.969  66.897  29.907  1.00  0.00     0.187 HD
HETATM   28  S1  UNL     1      13.066  63.676  29.610  1.00  0.00    -0.037 SA
BRANCH  26  29
HETATM   29  C14 UNL     1      11.774  65.734  31.215  1.00  0.00     0.078 C
HETATM   30  C15 UNL     1      11.414  67.136  30.894  1.00  0.00     0.014 C
HETATM   31  C16 UNL     1      12.045  68.034  31.913  1.00  0.00     0.004 C
HETATM   32  C17 UNL     1      13.040  67.154  32.641  1.00  0.00     0.038 C
HETATM   33  C18 UNL     1      12.406  65.797  32.578  1.00  0.00     0.180 C
HETATM   34  F1  UNL     1      13.388  64.826  32.635  1.00  0.00    -0.249 F
ENDBRANCH  26  29
ENDBRANCH  20  22
ENDBRANCH   1  18
TORSDOF 11
ENDMDL