MODEL 3
REMARK VINA RESULT: -9.554890257      1.852      2.068
REMARK  8 active torsions:
REMARK  status: ('A' for Active; 'I' for Inactive)
REMARK    1  A    between atoms: C1_2  and  C2_3
REMARK       I    between atoms: C1_2  and  N4_22
REMARK    2  A    between atoms: C2_3  and  C3_4
REMARK    3  A    between atoms: C3_4  and  C4_5
REMARK    4  A    between atoms: C5_11  and  N3_12
REMARK    5  A    between atoms: N3_12  and  C6_14
REMARK    6  A    between atoms: C6_14  and  C7_15
REMARK    7  A    between atoms: N5_25  and  C15_26
REMARK    8  A    between atoms: C15_26  and  C16_27
ROOT
HETATM    1  C4  UNL     1      20.480  62.873  33.213  1.00  0.00     0.080 A
HETATM    2  N1  UNL     1      21.118  62.222  32.203  1.00  0.00    -0.242 N
ATOM      3  H1  UNL     1      20.747  62.057  31.267  1.00  0.00     0.196 HD
HETATM    4  O2  UNL     1      22.268  61.850  32.633  1.00  0.00    -0.155 OA
HETATM    5  N2  UNL     1      22.485  62.184  33.849  1.00  0.00    -0.224 N
ATOM      6  H2  UNL     1      23.326  61.994  34.396  1.00  0.00     0.198 HD
HETATM    7  C5  UNL     1      21.355  62.851  34.273  1.00  0.00     0.148 A
ENDROOT
BRANCH   1   8
HETATM    8  C3  UNL     1      19.151  63.448  33.143  1.00  0.00     0.072 C
BRANCH   8   9
HETATM    9  C2  UNL     1      19.024  64.537  32.145  1.00  0.00     0.109 C
BRANCH   9  10
HETATM   10  C1  UNL     1      17.583  64.779  31.808  1.00  0.00     0.220 C
HETATM   11  O1  UNL     1      16.686  64.920  32.675  1.00  0.00    -0.273 OA
HETATM   12  N4  UNL     1      17.168  64.856  30.455  1.00  0.00    -0.349 N
HETATM   13  C13 UNL     1      15.794  65.086  30.122  1.00  0.00     0.156 C
HETATM   14  C21 UNL     1      18.142  64.699  29.408  1.00  0.00     0.156 C
HETATM   15  C14 UNL     1      15.716  65.130  28.589  1.00  0.00     0.292 C
HETATM   16  N5  UNL     1      16.244  63.893  28.112  1.00  0.00     0.097 N
HETATM   17  C20 UNL     1      17.595  63.608  28.482  1.00  0.00     0.292 C
BRANCH  16  18
HETATM   18  C15 UNL     1      16.110  63.672  26.697  1.00  0.00     0.337 C
BRANCH  18  19
HETATM   19  C16 UNL     1      14.804  63.031  26.326  1.00  0.00     0.080 A
HETATM   20  C17 UNL     1      13.859  63.550  25.480  1.00  0.00     0.036 A
HETATM   21  C18 UNL     1      12.825  62.655  25.413  1.00  0.00     0.027 A
HETATM   22  C19 UNL     1      13.175  61.599  26.234  1.00  0.00     0.142 A
HETATM   23  O3  UNL     1      14.349  61.874  26.745  1.00  0.00    -0.325 OA
ENDBRANCH  18  19
ENDBRANCH  16  18
ENDBRANCH   9  10
ENDBRANCH   8   9
ENDBRANCH   1   8
BRANCH   7  24
HETATM   24  N3  UNL     1      21.305  63.325  35.433  1.00  0.00    -0.373 N
ATOM     25  H3  UNL     1      21.835  64.195  35.487  1.00  0.00     0.161 HD
BRANCH  24  26
HETATM   26  C6  UNL     1      20.744  63.019  36.663  1.00  0.00     0.127 C
BRANCH  26  27
HETATM   27  C7  UNL     1      21.788  62.966  37.800  1.00  0.00     0.022 C
HETATM   28  C8  UNL     1      21.092  62.512  39.058  1.00  0.00     0.007 C
HETATM   29  C9  UNL     1      20.756  61.033  39.001  1.00  0.00     0.001 C
HETATM   30  C10 UNL     1      22.052  60.290  38.871  1.00  0.00     0.002 C
HETATM   31  C11 UNL     1      22.750  60.656  37.587  1.00  0.00     0.020 C
HETATM   32  C12 UNL     1      22.962  62.135  37.432  1.00  0.00     0.088 C
HETATM   33 CL1  UNL     1      24.422  62.634  38.338  1.00  0.00    -0.125 Cl
ENDBRANCH  26  27
ENDBRANCH  24  26
ENDBRANCH   7  24
TORSDOF 8
ENDMDL