MODEL 3
REMARK VINA RESULT: -9.375213765      2.660      3.530
REMARK  7 active torsions:
REMARK  status: ('A' for Active; 'I' for Inactive)
REMARK    1  A    between atoms: C4_5  and  C5_6
REMARK    2  A    between atoms: N1_8  and  C7_9
REMARK    3  A    between atoms: C7_9  and  C8_10
REMARK    4  A    between atoms: C8_10  and  N2_11
REMARK       I    between atoms: N2_11  and  C9_13
REMARK    5  A    between atoms: C9_13  and  C10_15
REMARK    6  A    between atoms: C12_18  and  C13_19
REMARK    7  A    between atoms: N3_22  and  C16_23
ROOT
HETATM    1  C10 UNL     1      16.213  65.394  32.033  1.00  0.00     0.107 A
HETATM    2  C11 UNL     1      16.669  65.059  30.777  1.00  0.00     0.086 A
HETATM    3  S1  UNL     1      18.278  64.587  31.099  1.00  0.00    -0.086 SA
HETATM    4  C12 UNL     1      18.283  64.838  32.786  1.00  0.00     0.056 A
HETATM    5  N4  UNL     1      17.057  65.268  33.013  1.00  0.00    -0.349 N
ATOM      6  H4  UNL     1      16.770  65.503  33.963  1.00  0.00     0.166 HD
ENDROOT
BRANCH   1   7
HETATM    7  C9  UNL     1      14.819  65.874  32.246  1.00  0.00     0.268 C
HETATM    8  N2  UNL     1      13.803  65.431  31.402  1.00  0.00    -0.354 N
ATOM      9  H2  UNL     1      14.029  64.777  30.652  1.00  0.00     0.162 HD
HETATM   10  O1  UNL     1      14.595  66.664  33.179  1.00  0.00    -0.266 OA
BRANCH   8  11
HETATM   11  C8  UNL     1      12.445  65.870  31.561  1.00  0.00     0.153 C
BRANCH  11  12
HETATM   12  C7  UNL     1      11.555  65.129  30.599  1.00  0.00     0.292 C
BRANCH  12  13
HETATM   13  N1  UNL     1      12.305  63.972  30.151  1.00  0.00     0.099 N
HETATM   14  C5  UNL     1      12.224  63.657  28.675  1.00  0.00     0.258 A
HETATM   15  C6  UNL     1      11.554  62.849  29.646  1.00  0.00     0.309 A
BRANCH  14  16
HETATM   16  C4  UNL     1      13.596  63.354  28.122  1.00  0.00     0.063 A
HETATM   17  C2  UNL     1      13.761  62.486  26.937  1.00  0.00     0.106 A
HETATM   18  C1  UNL     1      12.567  61.874  26.246  1.00  0.00     0.052 C
HETATM   19  F1  UNL     1      14.922  61.746  26.835  1.00  0.00    -0.243 F
HETATM   20  C3  UNL     1      13.889  63.968  26.776  1.00  0.00     0.053 A
ENDBRANCH  14  16
ENDBRANCH  12  13
ENDBRANCH  11  12
ENDBRANCH   8  11
ENDBRANCH   1   7
BRANCH   4  21
HETATM   21  C13 UNL     1      19.392  64.628  33.790  1.00  0.00     0.052 C
HETATM   22  C14 UNL     1      18.966  63.584  34.775  1.00  0.00     0.056 C
HETATM   23  C15 UNL     1      20.108  63.361  35.739  1.00  0.00     0.064 C
HETATM   24  N3  UNL     1      21.212  62.838  35.042  1.00  0.00    -0.369 N
HETATM   25  C21 UNL     1      21.391  63.117  33.681  1.00  0.00     0.064 C
HETATM   26  C22 UNL     1      20.700  64.305  33.123  1.00  0.00     0.056 C
BRANCH  24  27
HETATM   27  C16 UNL     1      21.823  61.680  35.565  1.00  0.00     0.092 C
HETATM   28  C17 UNL     1      22.939  61.222  34.653  1.00  0.00     0.052 C
HETATM   29  C18 UNL     1      24.006  60.561  35.499  1.00  0.00     0.169 C
HETATM   30  O2  UNL     1      23.357  59.732  36.411  1.00  0.00    -0.391 OA
HETATM   31  C19 UNL     1      22.756  60.425  37.436  1.00  0.00     0.169 C
HETATM   32  C20 UNL     1      22.337  61.803  36.966  1.00  0.00     0.052 C
ENDBRANCH  24  27
ENDBRANCH   4  21
TORSDOF 7
ENDMDL