MODEL 5
REMARK VINA RESULT: -9.550045846      2.197      2.768
REMARK  9 active torsions:
REMARK  status: ('A' for Active; 'I' for Inactive)
REMARK    1  A    between atoms: C2_2  and  O1_3
REMARK    2  A    between atoms: O1_3  and  C3_4
REMARK    3  A    between atoms: C6_7  and  N1_8
REMARK       I    between atoms: N2_11  and  C9_12
REMARK    4  A    between atoms: C9_12  and  C10_14
REMARK    5  A    between atoms: C10_14  and  C11_15
REMARK    6  A    between atoms: C11_15  and  C12_16
REMARK       I    between atoms: C12_16  and  N3_18
REMARK       I    between atoms: N3_18  and  C13_20
REMARK    7  A    between atoms: C13_20  and  C14_22
REMARK    8  A    between atoms: C25_33  and  O5_34
REMARK    9  A    between atoms: O5_34  and  C26_35
ROOT
HETATM    1  N1  UNL     1      19.408  64.132  33.160  1.00  0.00    -0.378 N
HETATM    2  C7  UNL     1      19.334  64.219  31.717  1.00  0.00     0.143 C
HETATM    3  C8  UNL     1      17.932  63.738  31.343  1.00  0.00     0.145 C
HETATM    4  N2  UNL     1      16.975  64.507  32.091  1.00  0.00    -0.349 N
HETATM    5  C9  UNL     1      15.900  65.128  31.426  1.00  0.00     0.220 C
HETATM    6  O2  UNL     1      15.773  65.010  30.163  1.00  0.00    -0.273 OA
HETATM    7  C22 UNL     1      17.115  64.638  33.521  1.00  0.00     0.145 C
HETATM    8  C23 UNL     1      18.514  65.043  33.869  1.00  0.00     0.143 C
ENDROOT
BRANCH   5   9
HETATM    9  C10 UNL     1      14.883  65.934  32.166  1.00  0.00     0.112 C
BRANCH   9  10
HETATM   10  C11 UNL     1      13.716  66.223  31.264  1.00  0.00     0.112 C
BRANCH  10  11
HETATM   11  C12 UNL     1      12.740  65.109  31.212  1.00  0.00     0.224 C
HETATM   12  O3  UNL     1      12.068  64.900  32.260  1.00  0.00    -0.273 OA
HETATM   13  N3  UNL     1      12.578  64.316  30.029  1.00  0.00    -0.297 N
HETATM   14  C13 UNL     1      11.665  63.242  29.934  1.00  0.00     0.232 C
ATOM     15  H3  UNL     1      13.150  64.539  29.215  1.00  0.00     0.171 HD
HETATM   16  O4  UNL     1      10.947  62.954  30.899  1.00  0.00    -0.272 OA
BRANCH  14  17
HETATM   17  C14 UNL     1      11.611  62.490  28.639  1.00  0.00     0.111 C
HETATM   18  C15 UNL     1      12.908  62.652  27.984  1.00  0.00    -0.012 C
HETATM   19  C16 UNL     1      13.454  61.986  26.830  1.00  0.00    -0.007 C
HETATM   20  C17 UNL     1      12.830  61.790  25.529  1.00  0.00    -0.026 C
HETATM   21  C18 UNL     1      12.192  62.826  24.703  1.00  0.00     0.038 C
HETATM   22  C19 UNL     1      10.738  63.231  25.139  1.00  0.00     0.083 C
HETATM   23  C20 UNL     1      10.767  63.076  26.537  1.00  0.00    -0.182 C
HETATM   24  C21 UNL     1      10.380  63.106  27.888  1.00  0.00     0.097 C
ENDBRANCH  14  17
ENDBRANCH  10  11
ENDBRANCH   9  10
ENDBRANCH   5   9
BRANCH   1  25
HETATM   25  C6  UNL     1      20.289  63.228  33.789  1.00  0.00     0.033 A
HETATM   26  C5  UNL     1      21.316  62.618  33.118  1.00  0.00     0.032 A
HETATM   27  C4  UNL     1      22.137  61.724  33.764  1.00  0.00     0.042 A
HETATM   28  C3  UNL     1      21.975  61.387  35.125  1.00  0.00     0.102 A
HETATM   29  C25 UNL     1      20.913  62.027  35.793  1.00  0.00     0.104 A
HETATM   30  C24 UNL     1      20.122  62.905  35.120  1.00  0.00     0.069 A
BRANCH  28  31
HETATM   31  O1  UNL     1      22.779  60.537  35.685  1.00  0.00    -0.349 OA
BRANCH  31  32
HETATM   32  C2  UNL     1      23.589  59.764  36.315  1.00  0.00     0.171 C
HETATM   33  C1  UNL     1      24.274  60.511  37.488  1.00  0.00     0.034 C
ENDBRANCH  31  32
ENDBRANCH  28  31
BRANCH  29  34
HETATM   34  O5  UNL     1      20.760  61.688  37.140  1.00  0.00    -0.349 OA
BRANCH  34  35
HETATM   35  C26 UNL     1      20.902  62.653  38.169  1.00  0.00     0.171 C
HETATM   36  C27 UNL     1      21.309  61.923  39.429  1.00  0.00     0.034 C
ENDBRANCH  34  35
ENDBRANCH  29  34
ENDBRANCH   1  25
TORSDOF 9
ENDMDL