MODEL 3
REMARK VINA RESULT: -9.005235390      1.554      1.967
REMARK  8 active torsions:
REMARK  status: ('A' for Active; 'I' for Inactive)
REMARK    1  A    between atoms: C2_2  and  N1_3
REMARK    2  A    between atoms: C4_5  and  C5_6
REMARK       I    between atoms: C5_6  and  N2_8
REMARK    3  A    between atoms: N2_8  and  C6_10
REMARK    4  A    between atoms: C16_21  and  O2_22
REMARK    5  A    between atoms: C18_24  and  O3_25
REMARK    6  A    between atoms: O3_25  and  C19_26
REMARK    7  A    between atoms: C19_26  and  C20_27
REMARK    8  A    between atoms: C20_27  and  N4_28
ROOT
HETATM    1  N1  UNL     1      16.060  64.168  29.280  1.00  0.00    -0.353 N
HETATM    2  C3  UNL     1      14.760  64.562  29.092  1.00  0.00     0.112 A
HETATM    3  C4  UNL     1      14.018  65.122  30.083  1.00  0.00     0.089 A
HETATM    4  C12 UNL     1      14.555  65.326  31.359  1.00  0.00     0.135 A
HETATM    5  N3  UNL     1      13.963  65.810  32.275  1.00  0.00    -0.427 NA
HETATM    6  C13 UNL     1      13.400  66.335  33.361  1.00  0.00     0.229 C
HETATM    7  C14 UNL     1      15.900  64.913  31.525  1.00  0.00     0.038 A
HETATM    8  C15 UNL     1      16.491  65.106  32.756  1.00  0.00     0.057 A
HETATM    9  C16 UNL     1      17.818  64.748  33.010  1.00  0.00     0.105 A
HETATM   10  C18 UNL     1      18.544  64.189  32.002  1.00  0.00     0.143 A
HETATM   11  C27 UNL     1      17.933  63.999  30.762  1.00  0.00     0.180 A
HETATM   12  F1  UNL     1      18.677  63.455  29.767  1.00  0.00    -0.201 F
HETATM   13  C28 UNL     1      16.628  64.348  30.501  1.00  0.00     0.090 A
ENDROOT
BRANCH   3  14
HETATM   14  C5  UNL     1      12.653  65.462  29.755  1.00  0.00     0.256 C
HETATM   15  O1  UNL     1      11.873  64.511  29.430  1.00  0.00    -0.267 OA
HETATM   16  N2  UNL     1      12.097  66.774  29.772  1.00  0.00    -0.352 N
ATOM     17  H2  UNL     1      12.681  67.571  30.025  1.00  0.00     0.163 HD
BRANCH  16  18
HETATM   18  C6  UNL     1      10.689  66.982  29.427  1.00  0.00     0.084 C
HETATM   19  C7  UNL     1      10.591  67.236  27.969  1.00  0.00     0.025 C
HETATM   20  C8  UNL     1       9.146  67.369  27.524  1.00  0.00     0.002 C
HETATM   21  C9  UNL     1       8.231  67.719  28.683  1.00  0.00     0.000 C
HETATM   22  C10 UNL     1       8.883  68.703  29.648  1.00  0.00     0.002 C
HETATM   23  C11 UNL     1      10.114  68.116  30.278  1.00  0.00     0.025 C
ENDBRANCH  16  18
ENDBRANCH   3  14
BRANCH   1  24
HETATM   24  C2  UNL     1      16.724  63.580  28.168  1.00  0.00     0.124 C
HETATM   25  C1  UNL     1      16.202  62.171  27.980  1.00  0.00     0.027 C
ENDBRANCH   1  24
BRANCH   9  26
HETATM   26  O2  UNL     1      18.371  64.962  34.258  1.00  0.00    -0.353 OA
HETATM   27  C17 UNL     1      18.088  64.092  35.328  1.00  0.00     0.210 C
ENDBRANCH   9  26
BRANCH  10  28
HETATM   28  O3  UNL     1      19.871  63.777  32.074  1.00  0.00    -0.344 OA
BRANCH  28  29
HETATM   29  C19 UNL     1      20.384  62.735  32.821  1.00  0.00     0.206 C
BRANCH  29  30
HETATM   30  C20 UNL     1      21.557  62.959  33.687  1.00  0.00     0.299 C
BRANCH  30  31
HETATM   31  N4  UNL     1      21.826  61.920  34.660  1.00  0.00     0.090 N
HETATM   32  C21 UNL     1      20.538  61.487  35.192  1.00  0.00     0.273 C
HETATM   33  C22 UNL     1      20.588  61.234  36.688  1.00  0.00     0.034 C
HETATM   34  C23 UNL     1      20.875  62.473  37.470  1.00  0.00    -0.015 C
HETATM   35  C24 UNL     1      21.367  62.085  38.859  1.00  0.00     0.010 C
HETATM   36  C25 UNL     1      21.914  63.262  36.737  1.00  0.00     0.034 C
HETATM   37  C26 UNL     1      22.634  62.367  35.767  1.00  0.00     0.273 C
ENDBRANCH  30  31
ENDBRANCH  29  30
ENDBRANCH  28  29
ENDBRANCH  10  28
TORSDOF 8
ENDMDL