MODEL 5
REMARK VINA RESULT: -9.608122782      3.335      6.121
REMARK  8 active torsions:
REMARK  status: ('A' for Active; 'I' for Inactive)
REMARK    1  A    between atoms: C5_5  and  C6_6
REMARK    2  A    between atoms: C7_7  and  C8_8
REMARK       I    between atoms: C8_8  and  N1_10
REMARK    3  A    between atoms: C11_13  and  C12_14
REMARK    4  A    between atoms: C12_14  and  C13_15
REMARK    5  A    between atoms: C13_15  and  N2_16
REMARK    6  A    between atoms: C16_20  and  O3_21
REMARK    7  A    between atoms: O3_21  and  C17_22
REMARK    8  A    between atoms: C17_22  and  C19_24
ROOT
HETATM    1  N2  UNL     1      19.551  63.722  33.529  1.00  0.00    -0.279 N
HETATM    2  C14 UNL     1      20.832  63.476  33.211  1.00  0.00     0.253 C
HETATM    3  O2  UNL     1      21.346  64.341  32.453  1.00  0.00    -0.268 OA
HETATM    4  C15 UNL     1      21.661  62.423  33.592  1.00  0.00     0.112 C
HETATM    5  C16 UNL     1      21.671  61.782  34.809  1.00  0.00     0.088 C
HETATM    6  C20 UNL     1      20.615  61.737  35.732  1.00  0.00     0.048 A
HETATM    7  C21 UNL     1      20.590  60.956  36.865  1.00  0.00     0.123 A
HETATM    8  N3  UNL     1      19.423  61.204  37.465  1.00  0.00    -0.310 N
ATOM      9  H3  UNL     1      19.106  60.775  38.335  1.00  0.00     0.186 HD
HETATM   10  N4  UNL     1      18.733  62.102  36.748  1.00  0.00    -0.295 N
ATOM     11  H4  UNL     1      17.809  62.464  36.986  1.00  0.00     0.187 HD
HETATM   12  C22 UNL     1      19.447  62.452  35.668  1.00  0.00     0.131 A
HETATM   13  C23 UNL     1      19.003  63.361  34.732  1.00  0.00     0.279 C
HETATM   14  O4  UNL     1      17.928  63.991  34.967  1.00  0.00    -0.265 OA
ENDROOT
BRANCH   1  15
HETATM   15  C13 UNL     1      18.692  64.376  32.581  1.00  0.00     0.136 C
BRANCH  15  16
HETATM   16  C12 UNL     1      17.933  63.487  31.683  1.00  0.00     0.025 C
BRANCH  16  17
HETATM   17  C11 UNL     1      18.134  63.590  30.224  1.00  0.00    -0.010 C
HETATM   18  C10 UNL     1      17.044  62.680  29.605  1.00  0.00     0.024 C
HETATM   19  C9  UNL     1      17.174  62.627  28.095  1.00  0.00     0.126 C
HETATM   20  N1  UNL     1      17.176  63.945  27.573  1.00  0.00    -0.349 N
HETATM   21  C8  UNL     1      16.369  64.466  26.505  1.00  0.00     0.243 C
HETATM   22  C25 UNL     1      18.123  64.881  28.178  1.00  0.00     0.126 C
HETATM   23  O1  UNL     1      16.554  65.670  26.258  1.00  0.00    -0.268 OA
HETATM   24  C24 UNL     1      17.806  64.956  29.653  1.00  0.00     0.024 C
BRANCH  21  25
HETATM   25  C7  UNL     1      15.429  63.673  25.780  1.00  0.00     0.070 C
HETATM   26  C6  UNL     1      14.285  63.147  26.007  1.00  0.00    -0.017 C
BRANCH  26  27
HETATM   27  C5  UNL     1      13.303  63.030  27.050  1.00  0.00     0.008 C
HETATM   28  C4  UNL     1      13.591  62.373  28.331  1.00  0.00     0.009 C
HETATM   29  C3  UNL     1      12.310  62.326  29.165  1.00  0.00     0.005 C
HETATM   30  C2  UNL     1      11.149  63.001  28.518  1.00  0.00    -0.019 C
HETATM   31  C1  UNL     1      10.074  63.155  29.598  1.00  0.00     0.010 C
HETATM   32  C27 UNL     1      11.475  64.406  28.057  1.00  0.00     0.005 C
HETATM   33  C26 UNL     1      12.822  64.456  27.374  1.00  0.00     0.009 C
ENDBRANCH  26  27
ENDBRANCH  21  25
ENDBRANCH  16  17
ENDBRANCH  15  16
ENDBRANCH   1  15
BRANCH   5  34
HETATM   34  O3  UNL     1      22.783  61.108  35.216  1.00  0.00    -0.343 OA
BRANCH  34  35
HETATM   35  C17 UNL     1      23.965  61.586  35.773  1.00  0.00     0.153 C
HETATM   36  C18 UNL     1      24.635  60.456  36.539  1.00  0.00     0.042 C
BRANCH  35  37
HETATM   37  C19 UNL     1      23.678  62.709  36.771  1.00  0.00     0.254 C
HETATM   38  F1  UNL     1      23.738  62.168  38.043  1.00  0.00    -0.253 F
ENDBRANCH  35  37
ENDBRANCH  34  35
ENDBRANCH   5  34
TORSDOF 8
ENDMDL