MODEL 5
REMARK VINA RESULT: -9.708634953      1.638      2.128
REMARK  8 active torsions:
REMARK  status: ('A' for Active; 'I' for Inactive)
REMARK    1  A    between atoms: C1_2  and  C2_3
REMARK       I    between atoms: C1_2  and  N4_26
REMARK    2  A    between atoms: C2_3  and  C3_4
REMARK    3  A    between atoms: C3_4  and  C4_5
REMARK    4  A    between atoms: C4_5  and  C5_6
REMARK    5  A    between atoms: C5_6  and  N1_7
REMARK    6  A    between atoms: N2_10  and  C8_11
REMARK    7  A    between atoms: C13_17  and  N3_18
REMARK    8  A    between atoms: N4_26  and  C20_28
ROOT
HETATM    1  N1  UNL     1      17.016  63.864  28.804  1.00  0.00     0.091 N
HETATM    2  C6  UNL     1      17.030  62.425  28.907  1.00  0.00     0.292 C
HETATM    3  C7  UNL     1      15.821  61.783  28.247  1.00  0.00     0.153 C
HETATM    4  N2  UNL     1      15.343  62.708  27.272  1.00  0.00    -0.376 N
HETATM    5  C18 UNL     1      16.390  63.418  26.516  1.00  0.00     0.153 C
HETATM    6  C19 UNL     1      17.122  64.350  27.467  1.00  0.00     0.292 C
ENDROOT
BRANCH   1   7
HETATM    7  C5  UNL     1      17.875  64.505  29.747  1.00  0.00     0.272 C
BRANCH   7   8
HETATM    8  C4  UNL     1      17.283  64.599  31.115  1.00  0.00     0.031 C
BRANCH   8   9
HETATM    9  C3  UNL     1      18.244  64.115  32.173  1.00  0.00     0.011 C
BRANCH   9  10
HETATM   10  C2  UNL     1      17.660  64.085  33.548  1.00  0.00     0.103 C
BRANCH  10  11
HETATM   11  C1  UNL     1      18.467  63.203  34.414  1.00  0.00     0.217 C
HETATM   12  O1  UNL     1      17.912  62.410  35.203  1.00  0.00    -0.274 OA
HETATM   13  N4  UNL     1      19.890  63.205  34.399  1.00  0.00    -0.354 N
ATOM     14  H4  UNL     1      20.361  63.846  33.760  1.00  0.00     0.162 HD
BRANCH  13  15
HETATM   15  C20 UNL     1      20.699  62.366  35.224  1.00  0.00     0.120 C
HETATM   16  C21 UNL     1      21.132  63.241  36.470  1.00  0.00     0.060 C
HETATM   17  C22 UNL     1      22.411  62.619  36.582  1.00  0.00     0.189 C
HETATM   18  C23 UNL     1      23.608  62.677  37.315  1.00  0.00     0.037 C
HETATM   19  N5  UNL     1      22.825  62.952  35.227  1.00  0.00    -0.061 N
HETATM   20  C24 UNL     1      24.467  61.647  36.545  1.00  0.00     0.029 C
HETATM   21  C25 UNL     1      23.762  60.587  35.818  1.00  0.00    -0.028 C
HETATM   22  C26 UNL     1      22.642  60.694  34.911  1.00  0.00     0.004 C
HETATM   23  C27 UNL     1      22.033  62.005  34.561  1.00  0.00     0.231 C
ATOM     24  H52 UNL     1      22.722  63.925  34.939  1.00  0.00     0.278 HD
ATOM     25  H51 UNL     1      23.826  62.935  35.032  1.00  0.00     0.278 HD
ENDBRANCH  13  15
ENDBRANCH  10  11
ENDBRANCH   9  10
ENDBRANCH   8   9
ENDBRANCH   7   8
ENDBRANCH   1   7
BRANCH   4  26
HETATM   26  C8  UNL     1      14.006  63.014  26.982  1.00  0.00     0.058 A
HETATM   27  C9  UNL     1      13.342  62.306  25.959  1.00  0.00     0.055 A
HETATM   28  C10 UNL     1      12.041  62.514  25.615  1.00  0.00     0.036 A
HETATM   29 CL1  UNL     1      11.253  61.596  24.324  1.00  0.00    -0.084 Cl
HETATM   30  C11 UNL     1      11.324  63.469  26.299  1.00  0.00     0.026 A
HETATM   31  C12 UNL     1      11.938  64.174  27.296  1.00  0.00     0.033 A
HETATM   32  C13 UNL     1      13.288  63.958  27.653  1.00  0.00     0.057 A
BRANCH  32  33
HETATM   33  N3  UNL     1      13.745  64.793  28.690  1.00  0.00    -0.375 N
HETATM   34  C14 UNL     1      14.236  66.120  28.472  1.00  0.00     0.149 C
HETATM   35  C15 UNL     1      13.563  67.094  29.455  1.00  0.00     0.187 C
HETATM   36  O2  UNL     1      13.913  66.621  30.723  1.00  0.00    -0.388 OA
HETATM   37  C16 UNL     1      13.190  65.458  30.960  1.00  0.00     0.187 C
HETATM   38  C17 UNL     1      13.713  64.323  30.062  1.00  0.00     0.149 C
ENDBRANCH  32  33
ENDBRANCH   4  26
TORSDOF 8
ENDMDL