MODEL 3
REMARK VINA RESULT: -9.006648489      3.768      4.859
REMARK  8 active torsions:
REMARK  status: ('A' for Active; 'I' for Inactive)
REMARK    1  A    between atoms: O1_2  and  C2_3
REMARK    2  A    between atoms: C2_3  and  C3_5
REMARK    3  A    between atoms: C5_8  and  C6_9
REMARK    4  A    between atoms: C7_10  and  C8_12
REMARK    5  A    between atoms: C9_13  and  C10_14
REMARK       I    between atoms: C10_14  and  N1_16
REMARK    6  A    between atoms: C13_19  and  C14_20
REMARK    7  A    between atoms: C14_20  and  C15_21
REMARK    8  A    between atoms: C15_21  and  C16_22
ROOT
HETATM    1  C10 UNL     1      16.666  64.741  30.901  1.00  0.00     0.243 C
HETATM    2  O3  UNL     1      17.061  64.442  29.746  1.00  0.00    -0.268 OA
HETATM    3  N1  UNL     1      15.402  65.331  31.060  1.00  0.00    -0.349 N
HETATM    4  C11 UNL     1      14.566  65.585  29.872  1.00  0.00     0.126 C
HETATM    5  C12 UNL     1      13.319  66.309  30.290  1.00  0.00     0.024 C
HETATM    6  C13 UNL     1      13.660  67.537  31.084  1.00  0.00    -0.012 C
HETATM    7  C21 UNL     1      14.440  67.197  32.318  1.00  0.00     0.024 C
HETATM    8  C22 UNL     1      14.821  65.725  32.318  1.00  0.00     0.126 C
ENDROOT
BRANCH   1   9
HETATM    9  C9  UNL     1      17.539  64.458  32.007  1.00  0.00     0.075 C
HETATM   10  C8  UNL     1      18.289  63.346  32.056  1.00  0.00     0.024 C
BRANCH  10  11
HETATM   11  C7  UNL     1      19.155  63.088  33.178  1.00  0.00     0.013 C
HETATM   12  C6  UNL     1      19.729  61.913  33.295  1.00  0.00     0.056 C
HETATM   13 BR1  UNL     1      19.452  64.453  34.466  1.00  0.00    -0.051 Br
BRANCH  12  14
HETATM   14  C5  UNL     1      20.607  61.710  34.470  1.00  0.00     0.075 A
HETATM   15  S1  UNL     1      22.257  62.104  34.672  1.00  0.00    -0.082 SA
HETATM   16  C4  UNL     1      22.456  61.544  36.273  1.00  0.00     0.087 A
HETATM   17  C3  UNL     1      21.199  61.074  36.562  1.00  0.00     0.115 A
HETATM   18  N3  UNL     1      20.297  61.172  35.638  1.00  0.00    -0.345 N
ATOM     19  H3  UNL     1      19.350  60.835  35.811  1.00  0.00     0.167 HD
BRANCH  17  20
HETATM   20  C2  UNL     1      20.909  60.478  37.896  1.00  0.00     0.310 C
HETATM   21  O2  UNL     1      21.225  59.294  38.175  1.00  0.00    -0.258 OA
BRANCH  20  22
HETATM   22  O1  UNL     1      20.278  61.201  38.892  1.00  0.00    -0.321 OA
HETATM   23  C1  UNL     1      20.898  62.366  39.429  1.00  0.00     0.213 C
ENDBRANCH  20  22
ENDBRANCH  17  20
ENDBRANCH  12  14
ENDBRANCH  10  11
ENDBRANCH   1   9
BRANCH   6  24
HETATM   24  C14 UNL     1      12.427  68.358  31.390  1.00  0.00     0.005 C
BRANCH  24  25
HETATM   25  C15 UNL     1      11.192  67.521  31.554  1.00  0.00     0.005 C
BRANCH  25  26
HETATM   26  C16 UNL     1      10.066  68.047  30.723  1.00  0.00    -0.012 C
HETATM   27  C17 UNL     1       9.667  67.080  29.628  1.00  0.00     0.024 C
HETATM   28  C18 UNL     1       8.423  67.601  28.941  1.00  0.00     0.114 C
HETATM   29  N2  UNL     1       8.101  68.941  29.310  1.00  0.00    -0.421 N
HETATM   30  C19 UNL     1       9.215  69.853  29.319  1.00  0.00     0.114 C
ATOM     31  H2  UNL     1       7.152  69.231  29.549  1.00  0.00     0.153 HD
HETATM   32  C20 UNL     1      10.422  69.353  30.041  1.00  0.00     0.024 C
ENDBRANCH  25  26
ENDBRANCH  24  25
ENDBRANCH   6  24
TORSDOF 8
ENDMDL