MODEL 5
REMARK VINA RESULT: -8.620999946      2.652      6.448
REMARK  8 active torsions:
REMARK  status: ('A' for Active; 'I' for Inactive)
REMARK    1  A    between atoms: C5_6  and  C6_7
REMARK    2  A    between atoms: C6_7  and  C7_8
REMARK    3  A    between atoms: C6_7  and  N2_19
REMARK       I    between atoms: C7_8  and  N1_10
REMARK    4  A    between atoms: N1_10  and  C8_12
REMARK    5  A    between atoms: N2_19  and  C15_20
REMARK    6  A    between atoms: N2_19  and  C19_24
REMARK    7  A    between atoms: C15_20  and  C16_21
REMARK    8  A    between atoms: C24_32  and  N3_33
ROOT
HETATM    1  C6  UNL     1      15.976  65.028  30.123  1.00  0.00     0.116 C
ENDROOT
BRANCH   1   2
HETATM    2  C5  UNL     1      16.399  64.800  28.733  1.00  0.00     0.037 A
HETATM    3  C4  UNL     1      17.631  64.973  28.180  1.00  0.00     0.129 A
HETATM    4  C3  UNL     1      17.921  64.726  26.838  1.00  0.00     0.052 A
HETATM    5  F1  UNL     1      18.712  65.419  28.875  1.00  0.00    -0.205 F
HETATM    6  C2  UNL     1      16.927  64.269  25.977  1.00  0.00    -0.026 A
HETATM    7  C1  UNL     1      17.232  64.003  24.549  1.00  0.00     0.050 C
HETATM    8  C24 UNL     1      15.676  64.079  26.487  1.00  0.00     0.109 A
HETATM    9  C23 UNL     1      15.424  64.335  27.802  1.00  0.00     0.053 A
BRANCH   8  10
HETATM   10  N3  UNL     1      14.648  63.609  25.596  1.00  0.00    -0.115 N
HETATM   11  O4  UNL     1      14.219  62.451  25.820  1.00  0.00    -0.532 OA
HETATM   12  O5  UNL     1      14.151  64.344  24.560  1.00  0.00    -0.532 OA
ENDBRANCH   8  10
ENDBRANCH   1   2
BRANCH   1  13
HETATM   13  C7  UNL     1      16.948  64.418  31.106  1.00  0.00     0.269 C
HETATM   14  O1  UNL     1      17.447  63.281  30.882  1.00  0.00    -0.266 OA
HETATM   15  N1  UNL     1      17.345  65.042  32.271  1.00  0.00    -0.351 N
ATOM     16  H1  UNL     1      16.958  65.976  32.405  1.00  0.00     0.163 HD
BRANCH  15  17
HETATM   17  C8  UNL     1      18.208  64.597  33.324  1.00  0.00     0.084 C
HETATM   18  C9  UNL     1      17.735  63.340  33.996  1.00  0.00     0.025 C
HETATM   19  C10 UNL     1      18.587  62.962  35.200  1.00  0.00     0.002 C
HETATM   20  C11 UNL     1      19.674  62.003  34.815  1.00  0.00     0.000 C
HETATM   21  C12 UNL     1      20.815  62.931  34.306  1.00  0.00     0.000 C
HETATM   22  C13 UNL     1      20.342  63.293  32.881  1.00  0.00     0.002 C
HETATM   23  C14 UNL     1      19.628  64.619  32.888  1.00  0.00     0.025 C
ENDBRANCH  15  17
ENDBRANCH   1  13
BRANCH   1  24
HETATM   24  N2  UNL     1      14.709  65.398  30.527  1.00  0.00    -0.346 N
BRANCH  24  25
HETATM   25  C15 UNL     1      13.852  64.325  30.805  1.00  0.00     0.094 C
BRANCH  25  26
HETATM   26  C16 UNL     1      12.688  63.901  30.054  1.00  0.00    -0.072 C
HETATM   27  C17 UNL     1      12.609  62.555  29.443  1.00  0.00     0.044 C
HETATM   28  C18 UNL     1      11.351  64.262  30.737  1.00  0.00     0.044 C
ENDBRANCH  25  26
ENDBRANCH  24  25
BRANCH  24  29
HETATM   29  C19 UNL     1      14.321  66.710  30.754  1.00  0.00     0.104 C
HETATM   30  C20 UNL     1      13.319  67.386  29.820  1.00  0.00     0.041 C
HETATM   31  C21 UNL     1      13.395  68.850  30.214  1.00  0.00     0.142 C
HETATM   32  S1  UNL     1      13.113  68.680  31.978  1.00  0.00     0.146 S
HETATM   33  O2  UNL     1      11.684  68.845  32.331  1.00  0.00    -0.228 OA
HETATM   34  O3  UNL     1      14.018  69.573  32.747  1.00  0.00    -0.228 OA
HETATM   35  C22 UNL     1      13.609  66.950  32.106  1.00  0.00     0.166 C
ENDBRANCH  24  29
ENDBRANCH   1  24
TORSDOF 8
ENDMDL