MODEL 2
REMARK VINA RESULT: -9.011430156      3.176      5.714
REMARK  8 active torsions:
REMARK  status: ('A' for Active; 'I' for Inactive)
REMARK    1  A    between atoms: C10_12  and  C11_13
REMARK    2  A    between atoms: C19_22  and  N1_23
REMARK    3  A    between atoms: N1_23  and  C20_25
REMARK    4  A    between atoms: C20_25  and  C21_26
REMARK    5  A    between atoms: C21_26  and  C22_27
REMARK    6  A    between atoms: C22_27  and  C23_28
REMARK    7  A    between atoms: C23_28  and  C24_29
REMARK    8  A    between atoms: C24_29  and  N2_30
ROOT
HETATM    1  C1  UNL     1      13.938  70.214  27.629  1.00  0.00     0.078 C
HETATM    2  C2  UNL     1      12.783  69.325  28.040  1.00  0.00     0.158 C
HETATM    3  C3  UNL     1      11.692  69.423  26.996  1.00  0.00     0.078 C
HETATM    4  O1  UNL     1      12.306  69.634  29.314  1.00  0.00    -0.345 OA
HETATM    5  C4  UNL     1      13.130  68.893  30.105  1.00  0.00     0.191 C
HETATM    6  C5  UNL     1      12.684  68.552  31.470  1.00  0.00     0.183 A
HETATM    7  O2  UNL     1      13.067  69.087  32.658  1.00  0.00    -0.372 OA
HETATM    8  C6  UNL     1      13.955  68.163  32.192  1.00  0.00     0.159 A
HETATM    9  C7  UNL     1      13.995  66.722  32.381  1.00  0.00     0.039 C
HETATM   10  C8  UNL     1      13.098  66.259  33.440  1.00  0.00     0.036 C
HETATM   11  C9  UNL     1      11.962  65.704  32.704  1.00  0.00    -0.017 C
HETATM   12  C10 UNL     1      12.254  65.461  31.394  1.00  0.00    -0.037 C
HETATM   13  C17 UNL     1      13.626  65.870  31.131  1.00  0.00     0.031 C
HETATM   14  C18 UNL     1      14.489  64.615  31.311  1.00  0.00     0.027 C
HETATM   15  C19 UNL     1      14.053  66.574  29.913  1.00  0.00     0.028 C
HETATM   16  C29 UNL     1      13.035  67.532  29.338  1.00  0.00     0.203 C
HETATM   17  O4  UNL     1      13.297  68.012  28.100  1.00  0.00    -0.342 OA
ENDROOT
BRANCH  15  18
HETATM   18  N1  UNL     1      14.994  66.029  29.075  1.00  0.00    -0.393 N
ATOM     19  H1  UNL     1      15.947  66.258  29.358  1.00  0.00     0.159 HD
BRANCH  18  20
HETATM   20  C20 UNL     1      14.958  65.255  27.957  1.00  0.00     0.119 C
BRANCH  20  21
HETATM   21  C21 UNL     1      16.030  64.145  28.082  1.00  0.00     0.020 C
BRANCH  21  22
HETATM   22  C22 UNL     1      17.243  64.630  28.795  1.00  0.00     0.003 C
BRANCH  22  23
HETATM   23  C23 UNL     1      17.718  63.684  29.864  1.00  0.00     0.030 C
BRANCH  23  24
HETATM   24  C24 UNL     1      18.212  64.464  31.075  1.00  0.00     0.272 C
BRANCH  24  25
HETATM   25  N2  UNL     1      18.208  63.691  32.278  1.00  0.00     0.092 N
HETATM   26  C25 UNL     1      17.655  64.347  33.415  1.00  0.00     0.298 C
HETATM   27  C26 UNL     1      18.147  63.615  34.661  1.00  0.00     0.198 C
HETATM   28  O3  UNL     1      18.181  62.247  34.468  1.00  0.00    -0.388 OA
HETATM   29  C27 UNL     1      19.101  61.874  33.514  1.00  0.00     0.198 C
HETATM   30  C28 UNL     1      19.439  63.029  32.571  1.00  0.00     0.298 C
ENDBRANCH  24  25
ENDBRANCH  23  24
ENDBRANCH  22  23
ENDBRANCH  21  22
ENDBRANCH  20  21
ENDBRANCH  18  20
ENDBRANCH  15  18
BRANCH  12  31
HETATM   31  C11 UNL     1      11.174  64.907  30.600  1.00  0.00    -0.029 A
HETATM   32  C12 UNL     1      11.259  63.674  29.995  1.00  0.00     0.015 A
HETATM   33  C13 UNL     1      10.279  63.145  29.173  1.00  0.00     0.043 A
HETATM   34  C14 UNL     1       9.141  63.864  28.925  1.00  0.00     0.116 A
HETATM   35  F1  UNL     1       8.154  63.374  28.117  1.00  0.00    -0.206 F
HETATM   36  C15 UNL     1       9.025  65.101  29.516  1.00  0.00     0.043 A
HETATM   37  C16 UNL     1      10.037  65.615  30.346  1.00  0.00     0.015 A
ENDBRANCH  12  31
TORSDOF 8
ENDMDL