MODEL 3
REMARK VINA RESULT: -9.692105924      2.218      2.929
REMARK  8 active torsions:
REMARK  status: ('A' for Active; 'I' for Inactive)
REMARK    1  A    between atoms: O1_2  and  C2_3
REMARK    2  A    between atoms: C2_3  and  C3_4
REMARK    3  A    between atoms: C3_4  and  C4_5
REMARK    4  A    between atoms: C4_5  and  O2_6
REMARK    5  A    between atoms: O2_6  and  C5_7
REMARK    6  A    between atoms: C8_11  and  C9_12
REMARK       I    between atoms: C9_12  and  N1_14
REMARK    7  A    between atoms: N1_14  and  C10_16
REMARK    8  A    between atoms: C13_19  and  N2_20
ROOT
HETATM    1  C9  UNL     1      17.183  64.383  29.822  1.00  0.00     0.252 C
HETATM    2  O3  UNL     1      18.238  64.822  29.297  1.00  0.00    -0.268 OA
HETATM    3  N1  UNL     1      17.176  64.044  31.206  1.00  0.00    -0.352 N
ATOM      4  H1  UNL     1      16.325  63.680  31.635  1.00  0.00     0.163 HD
ENDROOT
BRANCH   3   5
HETATM    5  C10 UNL     1      18.383  64.216  32.016  1.00  0.00     0.084 C
HETATM    6  C11 UNL     1      19.198  62.999  31.975  1.00  0.00     0.027 C
HETATM    7  C12 UNL     1      20.206  62.819  33.089  1.00  0.00     0.038 C
HETATM    8  C13 UNL     1      19.961  63.820  34.203  1.00  0.00     0.223 C
HETATM    9  C21 UNL     1      18.448  63.684  34.451  1.00  0.00     0.038 C
HETATM   10  C22 UNL     1      17.840  64.569  33.391  1.00  0.00     0.027 C
BRANCH   8  11
HETATM   11  N2  UNL     1      20.642  63.533  35.406  1.00  0.00     0.093 N
HETATM   12  C14 UNL     1      19.805  62.755  36.342  1.00  0.00     0.278 C
HETATM   13  C15 UNL     1      20.621  62.607  37.607  1.00  0.00     0.099 C
HETATM   14  C16 UNL     1      21.952  61.949  37.377  1.00  0.00     0.167 C
HETATM   15  C17 UNL     1      22.723  62.638  36.255  1.00  0.00     0.099 C
HETATM   16  O4  UNL     1      21.859  60.585  37.125  1.00  0.00    -0.353 OA
HETATM   17  O5  UNL     1      22.735  62.030  38.500  1.00  0.00    -0.353 OA
HETATM   18  C18 UNL     1      21.781  62.652  35.073  1.00  0.00     0.278 C
HETATM   19  C19 UNL     1      21.625  60.044  38.389  1.00  0.00     0.197 C
HETATM   20  C20 UNL     1      22.243  61.049  39.363  1.00  0.00     0.197 C
ENDBRANCH   8  11
ENDBRANCH   3   5
BRANCH   1  21
HETATM   21  C8  UNL     1      15.984  64.237  29.035  1.00  0.00     0.040 A
HETATM   22  C7  UNL     1      15.064  65.280  29.194  1.00  0.00     0.044 A
HETATM   23  C6  UNL     1      13.799  65.264  28.622  1.00  0.00     0.069 A
HETATM   24  C5  UNL     1      13.398  64.193  27.857  1.00  0.00     0.097 A
HETATM   25 CL1  UNL     1      12.719  66.633  28.946  1.00  0.00    -0.081 Cl
HETATM   26  C25 UNL     1      14.334  63.159  27.706  1.00  0.00    -0.020 A
HETATM   27  C23 UNL     1      15.591  63.176  28.275  1.00  0.00    -0.037 A
HETATM   28  C26 UNL     1      13.963  61.990  26.895  1.00  0.00     0.052 C
HETATM   29  C24 UNL     1      16.531  62.044  28.003  1.00  0.00     0.050 C
BRANCH  24  30
HETATM   30  O2  UNL     1      12.186  64.134  27.291  1.00  0.00    -0.349 OA
BRANCH  30  31
HETATM   31  C4  UNL     1      10.909  63.755  27.683  1.00  0.00     0.178 C
BRANCH  31  32
HETATM   32  C3  UNL     1      10.740  63.150  29.007  1.00  0.00     0.053 C
BRANCH  32  33
HETATM   33  C2  UNL     1      10.415  64.017  30.148  1.00  0.00     0.169 C
BRANCH  33  34
HETATM   34  O1  UNL     1      11.155  64.284  31.198  1.00  0.00    -0.396 OA
HETATM   35  C1  UNL     1      11.130  65.429  31.882  1.00  0.00     0.201 C
ENDBRANCH  33  34
ENDBRANCH  32  33
ENDBRANCH  31  32
ENDBRANCH  30  31
ENDBRANCH  24  30
ENDBRANCH   1  21
TORSDOF 8
ENDMDL