MODEL 3
REMARK VINA RESULT: -9.100249175      1.706      2.240
REMARK  10 active torsions:
REMARK  status: ('A' for Active; 'I' for Inactive)
REMARK    1  A    between atoms: C2_2  and  C3_3
REMARK       I    between atoms: C3_3  and  N1_5
REMARK    2  A    between atoms: N1_5  and  C4_7
REMARK    3  A    between atoms: C4_7  and  C5_8
REMARK    4  A    between atoms: C5_8  and  C6_9
REMARK    5  A    between atoms: C6_9  and  N2_10
REMARK    6  A    between atoms: N3_13  and  C9_14
REMARK    7  A    between atoms: C9_14  and  O2_15
REMARK    8  A    between atoms: C9_14  and  C10_17
REMARK    9  A    between atoms: C11_18  and  C12_19
REMARK   10  A    between atoms: C12_19  and  C13_21
ROOT
HETATM    1  N2  UNL     1      18.675  64.129  32.018  1.00  0.00    -0.390 N
HETATM    2  C7  UNL     1      18.079  65.136  32.818  1.00  0.00     0.141 C
HETATM    3  C8  UNL     1      16.600  64.662  33.022  1.00  0.00     0.145 C
HETATM    4  N3  UNL     1      15.889  64.941  31.826  1.00  0.00    -0.358 N
HETATM    5  C21 UNL     1      16.750  64.613  30.609  1.00  0.00     0.145 C
HETATM    6  C22 UNL     1      17.767  63.600  31.020  1.00  0.00     0.141 C
ENDROOT
BRANCH   4   7
HETATM    7  C9  UNL     1      14.623  65.387  31.565  1.00  0.00     0.145 C
BRANCH   7   8
HETATM    8  O2  UNL     1      14.839  66.222  30.437  1.00  0.00    -0.346 OA
ATOM      9  H2  UNL     1      14.103  65.990  29.882  1.00  0.00     0.219 HD
ENDBRANCH   7   8
BRANCH   7  10
HETATM   10  C10 UNL     1      13.246  65.507  31.762  1.00  0.00     0.003 C
HETATM   11  C11 UNL     1      12.239  64.809  31.332  1.00  0.00     0.004 C
HETATM   12  C17 UNL     1      10.880  65.341  31.758  1.00  0.00     0.043 C
HETATM   13  C18 UNL     1      10.845  66.793  31.249  1.00  0.00     0.005 C
HETATM   14  C19 UNL     1      11.847  67.556  32.094  1.00  0.00     0.005 C
HETATM   15  C20 UNL     1      12.807  66.632  32.760  1.00  0.00     0.044 C
BRANCH  11  16
HETATM   16  C12 UNL     1      12.343  63.699  30.472  1.00  0.00     0.195 C
HETATM   17  O3  UNL     1      11.855  62.610  30.839  1.00  0.00    -0.286 OA
BRANCH  16  18
HETATM   18  C13 UNL     1      12.964  63.655  29.155  1.00  0.00     0.055 A
HETATM   19  C14 UNL     1      13.894  62.722  28.732  1.00  0.00     0.023 A
HETATM   20  C15 UNL     1      14.306  62.813  27.475  1.00  0.00     0.009 A
HETATM   21  C16 UNL     1      13.799  63.805  26.686  1.00  0.00     0.050 A
HETATM   22  S1  UNL     1      12.740  64.587  27.762  1.00  0.00    -0.098 SA
ENDBRANCH  16  18
ENDBRANCH  11  16
ENDBRANCH   7  10
ENDBRANCH   4   7
BRANCH   1  23
HETATM   23  C6  UNL     1      19.558  63.218  32.620  1.00  0.00     0.060 C
BRANCH  23  24
HETATM   24  C5  UNL     1      18.888  62.096  33.380  1.00  0.00     0.064 C
BRANCH  24  25
HETATM   25  C4  UNL     1      19.055  62.344  34.863  1.00  0.00     0.128 C
BRANCH  25  26
HETATM   26  N1  UNL     1      20.007  61.488  35.502  1.00  0.00    -0.359 N
HETATM   27  C3  UNL     1      21.019  61.899  36.375  1.00  0.00     0.239 C
HETATM   28  O1  UNL     1      21.178  63.113  36.682  1.00  0.00    -0.272 OA
ATOM     29  H1  UNL     1      19.941  60.490  35.303  1.00  0.00     0.162 HD
BRANCH  27  30
HETATM   30  C2  UNL     1      21.936  60.890  36.961  1.00  0.00     0.116 C
HETATM   31  C1  UNL     1      22.633  60.042  35.931  1.00  0.00     0.040 C
HETATM   32  S2  UNL     1      23.137  61.672  38.089  1.00  0.00    -0.144 SA
HETATM   33  C23 UNL     1      22.638  60.178  38.987  1.00  0.00     0.114 C
HETATM   34  C24 UNL     1      21.401  60.090  38.105  1.00  0.00     0.207 C
HETATM   35  F1  UNL     1      20.263  60.597  38.672  1.00  0.00    -0.246 F
ENDBRANCH  27  30
ENDBRANCH  25  26
ENDBRANCH  24  25
ENDBRANCH  23  24
ENDBRANCH   1  23
TORSDOF 10
ENDMDL