MODEL 3
REMARK VINA RESULT: -7.956493410      0.674      1.921
REMARK  9 active torsions:
REMARK  status: ('A' for Active; 'I' for Inactive)
REMARK    1  A    between atoms: C2_2  and  O1_3
REMARK    2  A    between atoms: O1_3  and  C3_4
REMARK    3  A    between atoms: C3_4  and  C4_6
REMARK    4  A    between atoms: N1_9  and  C7_10
REMARK    5  A    between atoms: C7_10  and  C8_11
REMARK    6  A    between atoms: C9_12  and  C10_13
REMARK    7  A    between atoms: C14_20  and  C16_22
REMARK       I    between atoms: C16_22  and  N3_24
REMARK    8  A    between atoms: N3_24  and  C17_26
REMARK    9  A    between atoms: C17_26  and  C18_27
ROOT
HETATM    1  C4  UNL     1      12.783  67.418  31.194  1.00  0.00     0.128 C
HETATM    2  C5  UNL     1      13.865  68.368  31.643  1.00  0.00     0.062 C
HETATM    3  C6  UNL     1      14.953  67.420  32.132  1.00  0.00     0.066 C
HETATM    4  N1  UNL     1      14.580  66.099  31.926  1.00  0.00    -0.350 N
HETATM    5  C14 UNL     1      13.184  66.056  31.739  1.00  0.00     0.126 C
HETATM    6  C15 UNL     1      12.578  65.947  33.212  1.00  0.00     0.050 C
ENDROOT
BRANCH   5   7
HETATM    7  C16 UNL     1      12.516  64.952  31.079  1.00  0.00     0.247 C
HETATM    8  O4  UNL     1      12.219  63.921  31.722  1.00  0.00    -0.271 OA
HETATM    9  N3  UNL     1      12.160  65.015  29.655  1.00  0.00    -0.359 N
ATOM     10  H3  UNL     1      12.435  65.794  29.058  1.00  0.00     0.162 HD
BRANCH   9  11
HETATM   11  C17 UNL     1      11.393  63.894  29.159  1.00  0.00     0.127 C
BRANCH  11  12
HETATM   12  C18 UNL     1      11.900  63.450  27.820  1.00  0.00     0.004 C
HETATM   13  C19 UNL     1      12.657  62.163  28.089  1.00  0.00     0.006 C
HETATM   14  C20 UNL     1      14.103  62.177  27.761  1.00  0.00     0.002 C
HETATM   15  C21 UNL     1      14.357  62.626  26.339  1.00  0.00     0.016 C
HETATM   16  C22 UNL     1      13.489  63.766  25.932  1.00  0.00     0.058 C
HETATM   17 BR1  UNL     1      12.125  63.198  24.678  1.00  0.00    -0.091 Br
HETATM   18  C23 UNL     1      12.795  64.445  27.129  1.00  0.00     0.022 C
ENDBRANCH  11  12
ENDBRANCH   9  11
ENDBRANCH   5   7
BRANCH   1  19
HETATM   19  C3  UNL     1      11.497  67.909  31.716  1.00  0.00     0.266 C
HETATM   20  O2  UNL     1      11.474  68.824  32.541  1.00  0.00    -0.265 OA
BRANCH  19  21
HETATM   21  O1  UNL     1      10.336  67.334  31.252  1.00  0.00    -0.321 OA
BRANCH  21  22
HETATM   22  C2  UNL     1       9.809  67.698  30.010  1.00  0.00     0.174 C
HETATM   23  C1  UNL     1       8.839  66.632  29.530  1.00  0.00     0.034 C
ENDBRANCH  21  22
ENDBRANCH  19  21
ENDBRANCH   1  19
BRANCH   4  24
HETATM   24  C7  UNL     1      15.280  65.010  32.375  1.00  0.00     0.107 C
BRANCH  24  25
HETATM   25  C8  UNL     1      16.656  64.817  31.818  1.00  0.00     0.035 A
HETATM   26  C9  UNL     1      16.829  64.693  30.443  1.00  0.00     0.046 A
HETATM   27  N2  UNL     1      18.151  64.442  30.261  1.00  0.00    -0.264 N
HETATM   28  O3  UNL     1      18.732  64.411  31.385  1.00  0.00    -0.242 OA
ATOM     29  H2  UNL     1      18.605  64.300  29.360  1.00  0.00     0.194 HD
HETATM   30  C12 UNL     1      17.875  64.623  32.392  1.00  0.00     0.086 A
HETATM   31  C13 UNL     1      18.319  64.610  33.828  1.00  0.00     0.080 C
BRANCH  26  32
HETATM   32  C10 UNL     1      15.831  64.664  29.351  1.00  0.00     0.055 C
HETATM   33  C11 UNL     1      16.652  64.979  28.060  1.00  0.00     0.011 C
ENDBRANCH  26  32
ENDBRANCH  24  25
ENDBRANCH   4  24
TORSDOF 9
ENDMDL