MODEL 3
REMARK VINA RESULT: -9.058199560      1.352      1.774
REMARK  10 active torsions:
REMARK  status: ('A' for Active; 'I' for Inactive)
REMARK    1  A    between atoms: C2_2  and  O2_4
REMARK    2  A    between atoms: O2_4  and  C3_5
REMARK    3  A    between atoms: C11_13  and  O3_14
REMARK    4  A    between atoms: C19_23  and  C20_24
REMARK    5  A    between atoms: C20_24  and  C21_26
REMARK    6  A    between atoms: C21_26  and  O5_27
REMARK    7  A    between atoms: O5_27  and  C22_28
REMARK    8  A    between atoms: C22_28  and  C23_30
REMARK    9  A    between atoms: C23_30  and  C24_31
REMARK   10  A    between atoms: C25_32  and  S1_34
ROOT
HETATM    1  C3  UNL     1      13.535  66.726  30.714  1.00  0.00     0.141 C
HETATM    2  C4  UNL     1      14.769  65.810  30.727  1.00  0.00     0.039 C
HETATM    3  C5  UNL     1      14.565  64.419  30.249  1.00  0.00     0.001 C
HETATM    4  C6  UNL     1      13.181  63.930  30.041  1.00  0.00    -0.005 C
HETATM    5  C7  UNL     1      12.857  63.224  28.756  1.00  0.00     0.006 C
HETATM    6  C8  UNL     1      13.991  62.793  27.910  1.00  0.00     0.006 C
HETATM    7  C9  UNL     1      15.187  62.588  28.775  1.00  0.00    -0.004 C
HETATM    8  C10 UNL     1      16.288  61.982  27.957  1.00  0.00     0.037 C
HETATM    9  C11 UNL     1      16.440  62.848  26.726  1.00  0.00     0.118 C
HETATM   10  C12 UNL     1      16.687  64.274  27.013  1.00  0.00     0.032 C
HETATM   11  C13 UNL     1      15.798  64.891  28.068  1.00  0.00     0.012 C
HETATM   12  C14 UNL     1      15.584  63.997  29.224  1.00  0.00    -0.036 C
HETATM   13  C15 UNL     1      16.973  63.813  29.866  1.00  0.00     0.016 C
HETATM   14  C16 UNL     1      12.122  64.997  30.178  1.00  0.00     0.001 C
HETATM   15  C17 UNL     1      10.752  64.498  30.545  1.00  0.00     0.007 C
HETATM   16  C18 UNL     1      10.088  65.900  30.658  1.00  0.00     0.013 C
HETATM   17  C19 UNL     1      11.122  66.636  31.564  1.00  0.00     0.069 C
HETATM   18  C28 UNL     1      12.407  65.972  31.302  1.00  0.00    -0.003 C
HETATM   19  C29 UNL     1      12.808  65.263  32.578  1.00  0.00     0.019 C
ENDROOT
BRANCH  17  20
HETATM   20  C20 UNL     1      11.004  68.067  31.440  1.00  0.00     0.155 C
HETATM   21  O4  UNL     1      11.435  68.741  32.403  1.00  0.00    -0.295 OA
BRANCH  20  22
HETATM   22  C21 UNL     1      10.444  68.868  30.350  1.00  0.00     0.257 C
BRANCH  22  23
HETATM   23  O5  UNL     1       9.759  70.027  30.658  1.00  0.00    -0.314 OA
BRANCH  23  24
HETATM   24  C22 UNL     1       8.737  70.638  29.978  1.00  0.00     0.262 C
HETATM   25  O6  UNL     1       7.725  70.987  30.626  1.00  0.00    -0.265 OA
BRANCH  24  26
HETATM   26  C23 UNL     1       8.791  70.896  28.502  1.00  0.00     0.139 C
BRANCH  26  27
HETATM   27  C24 UNL     1       9.858  71.887  28.253  1.00  0.00     0.001 C
HETATM   28  C25 UNL     1      10.963  71.644  27.570  1.00  0.00     0.029 C
HETATM   29  C26 UNL     1      11.155  70.280  27.007  1.00  0.00     0.061 C
BRANCH  28  30
HETATM   30  S1  UNL     1      12.203  72.836  27.294  1.00  0.00     0.167 S
HETATM   31  C27 UNL     1      12.942  72.529  25.728  1.00  0.00     0.166 C
HETATM   32  O7  UNL     1      13.215  72.856  28.405  1.00  0.00    -0.223 OA
HETATM   33  O8  UNL     1      11.556  74.193  27.278  1.00  0.00    -0.223 OA
ENDBRANCH  28  30
ENDBRANCH  26  27
ENDBRANCH  24  26
ENDBRANCH  23  24
ENDBRANCH  22  23
ENDBRANCH  20  22
ENDBRANCH  17  20
BRANCH   1  34
HETATM   34  O2  UNL     1      13.328  67.030  29.362  1.00  0.00    -0.316 OA
BRANCH  34  35
HETATM   35  C2  UNL     1      13.780  68.125  28.667  1.00  0.00     0.255 C
HETATM   36  C1  UNL     1      14.007  69.424  29.401  1.00  0.00     0.126 C
HETATM   37  O1  UNL     1      14.006  68.067  27.448  1.00  0.00    -0.266 OA
ENDBRANCH  34  35
ENDBRANCH   1  34
BRANCH   9  38
HETATM   38  O3  UNL     1      17.583  62.349  26.055  1.00  0.00    -0.396 OA
ATOM     39  H3  UNL     1      17.938  63.089  25.578  1.00  0.00     0.210 HD
ENDBRANCH   9  38
TORSDOF 10
ENDMDL