MODEL 4
REMARK VINA RESULT: -9.665406837      1.672      2.765
REMARK  9 active torsions:
REMARK  status: ('A' for Active; 'I' for Inactive)
REMARK    1  A    between atoms: C11_11  and  C12_12
REMARK    2  A    between atoms: C11_11  and  N2_29
REMARK    3  A    between atoms: C12_12  and  O1_13
REMARK    4  A    between atoms: O1_13  and  C13_14
REMARK    5  A    between atoms: C13_14  and  C14_16
REMARK    6  A    between atoms: C15_17  and  C16_18
REMARK    7  A    between atoms: N1_24  and  C20_25
REMARK    8  A    between atoms: C20_25  and  C21_26
REMARK    9  A    between atoms: C31_39  and  O7_40
ROOT
HETATM    1  C1  UNL     1      22.398  62.068  38.371  1.00  0.00     0.018 C
HETATM    2  C2  UNL     1      22.014  61.389  37.046  1.00  0.00    -0.014 C
HETATM    3  C3  UNL     1      20.523  61.253  37.067  1.00  0.00     0.012 C
HETATM    4  C4  UNL     1      19.978  62.651  36.730  1.00  0.00     0.007 C
HETATM    5  C5  UNL     1      20.218  62.749  35.240  1.00  0.00    -0.002 C
HETATM    6  C6  UNL     1      21.698  62.769  34.940  1.00  0.00    -0.005 C
HETATM    7  C7  UNL     1      21.809  62.308  33.493  1.00  0.00     0.006 C
HETATM    8  C8  UNL     1      20.634  62.838  32.683  1.00  0.00     0.006 C
HETATM    9  C9  UNL     1      20.102  64.136  33.245  1.00  0.00    -0.003 C
HETATM   10  C10 UNL     1      19.187  64.815  32.287  1.00  0.00     0.045 C
HETATM   11  C11 UNL     1      17.799  64.176  32.162  1.00  0.00     0.118 C
HETATM   12  C24 UNL     1      17.455  63.327  33.334  1.00  0.00     0.041 C
HETATM   13  C25 UNL     1      18.061  63.689  34.630  1.00  0.00     0.012 C
HETATM   14  C26 UNL     1      19.530  63.939  34.618  1.00  0.00    -0.036 C
HETATM   15  C27 UNL     1      19.894  65.151  35.479  1.00  0.00     0.016 C
HETATM   16  C28 UNL     1      22.588  62.077  35.871  1.00  0.00     0.001 C
HETATM   17  C29 UNL     1      23.464  60.998  35.221  1.00  0.00     0.008 C
HETATM   18  C30 UNL     1      22.826  59.697  35.642  1.00  0.00     0.033 C
HETATM   19  C31 UNL     1      22.599  59.989  37.131  1.00  0.00     0.126 C
ENDROOT
BRANCH  11  20
HETATM   20  C12 UNL     1      16.791  65.278  31.970  1.00  0.00     0.216 C
BRANCH  20  21
HETATM   21  O1  UNL     1      15.492  64.971  31.656  1.00  0.00    -0.314 OA
BRANCH  21  22
HETATM   22  C13 UNL     1      14.704  65.207  30.588  1.00  0.00     0.311 C
HETATM   23  O2  UNL     1      15.069  66.208  29.891  1.00  0.00    -0.258 OA
BRANCH  22  24
HETATM   24  C14 UNL     1      13.540  64.402  30.249  1.00  0.00     0.127 A
HETATM   25  C15 UNL     1      13.646  63.317  29.365  1.00  0.00     0.085 A
HETATM   26  C17 UNL     1      12.499  62.557  29.075  1.00  0.00     0.189 A
HETATM   27  O4  UNL     1      12.583  61.589  28.290  1.00  0.00    -0.287 OA
HETATM   28  C18 UNL     1      11.293  62.861  29.639  1.00  0.00     0.073 A
HETATM   29  C19 UNL     1      11.209  63.916  30.493  1.00  0.00     0.095 A
HETATM   30  N1  UNL     1      12.329  64.673  30.786  1.00  0.00    -0.351 N
BRANCH  25  31
HETATM   31  C16 UNL     1      14.863  62.927  28.730  1.00  0.00     0.276 C
HETATM   32  O3  UNL     1      15.175  63.507  27.617  1.00  0.00    -0.301 OA
ENDBRANCH  25  31
BRANCH  30  33
HETATM   33  C20 UNL     1      12.108  65.778  31.687  1.00  0.00     0.133 C
BRANCH  33  34
HETATM   34  C21 UNL     1      11.739  66.997  30.882  1.00  0.00     0.004 A
HETATM   35  C22 UNL     1      10.331  67.444  30.792  1.00  0.00     0.007 A
HETATM   36  C23 UNL     1      11.276  68.193  31.684  1.00  0.00     0.007 A
ENDBRANCH  33  34
ENDBRANCH  30  33
ENDBRANCH  22  24
ENDBRANCH  21  22
ENDBRANCH  20  21
ENDBRANCH  11  20
BRANCH  11  37
HETATM   37  N2  UNL     1      17.877  63.316  31.018  1.00  0.00    -0.143 N
HETATM   38  O5  UNL     1      17.756  62.076  31.080  1.00  0.00    -0.536 OA
HETATM   39  O6  UNL     1      18.083  63.898  29.781  1.00  0.00    -0.536 OA
ENDBRANCH  11  37
BRANCH  19  40
HETATM   40  O7  UNL     1      23.855  60.016  37.715  1.00  0.00    -0.395 OA
ATOM     41  H7  UNL     1      24.475  59.513  37.202  1.00  0.00     0.210 HD
ENDBRANCH  19  40
TORSDOF 9
ENDMDL