MODEL 4
REMARK VINA RESULT: -8.006741131      1.208      1.683
REMARK  9 active torsions:
REMARK  status: ('A' for Active; 'I' for Inactive)
REMARK    1  A    between atoms: O1_2  and  C2_3
REMARK    2  A    between atoms: C6_7  and  O2_8
REMARK    3  A    between atoms: C13_15  and  C14_16
REMARK    4  A    between atoms: C14_16  and  O3_17
REMARK    5  A    between atoms: O3_17  and  C15_18
REMARK    6  A    between atoms: C23_27  and  O5_28
REMARK    7  A    between atoms: O5_28  and  S1_29
REMARK    8  A    between atoms: C24_33  and  O9_34
REMARK    9  A    between atoms: O9_34  and  C25_35
ROOT
HETATM    1  C2  UNL     1      11.368  65.035  29.618  1.00  0.00     0.154 C
HETATM    2  C3  UNL     1      11.799  63.824  28.774  1.00  0.00     0.002 C
HETATM    3  C4  UNL     1      12.060  63.883  27.352  1.00  0.00    -0.015 C
HETATM    4  C5  UNL     1      13.388  63.614  26.693  1.00  0.00     0.012 C
HETATM    5  C6  UNL     1      14.060  62.355  27.061  1.00  0.00     0.134 C
HETATM    6  C8  UNL     1      13.064  61.246  26.761  1.00  0.00     0.033 C
HETATM    7  C9  UNL     1      12.509  61.226  25.403  1.00  0.00     0.007 C
HETATM    8  C10 UNL     1      12.508  62.508  24.617  1.00  0.00    -0.013 C
HETATM    9  C11 UNL     1      11.104  62.928  24.239  1.00  0.00     0.010 C
HETATM   10  C12 UNL     1      13.345  63.593  25.205  1.00  0.00     0.010 C
HETATM   11  C13 UNL     1      13.096  64.947  24.801  1.00  0.00     0.016 C
HETATM   12  C17 UNL     1      14.083  65.665  25.761  1.00  0.00     0.013 C
HETATM   13  C18 UNL     1      14.329  64.892  26.932  1.00  0.00     0.005 C
HETATM   14  C19 UNL     1      13.641  65.301  28.263  1.00  0.00    -0.006 C
HETATM   15  C20 UNL     1      13.673  64.939  29.509  1.00  0.00     0.020 C
HETATM   16  C21 UNL     1      12.619  65.682  30.341  1.00  0.00     0.016 C
HETATM   17  C22 UNL     1      12.593  65.181  31.764  1.00  0.00     0.021 C
HETATM   18  C23 UNL     1      12.762  67.086  30.301  1.00  0.00     0.185 C
HETATM   19  C24 UNL     1      12.908  67.687  28.943  1.00  0.00     0.163 C
HETATM   20  C27 UNL     1      13.164  66.688  27.874  1.00  0.00     0.040 C
ENDROOT
BRANCH  11  21
HETATM   21  C14 UNL     1      13.358  65.311  23.399  1.00  0.00     0.183 C
BRANCH  21  22
HETATM   22  O3  UNL     1      14.329  66.098  22.956  1.00  0.00    -0.321 OA
BRANCH  22  23
HETATM   23  C15 UNL     1      14.603  67.355  22.604  1.00  0.00     0.254 C
HETATM   24  C16 UNL     1      14.312  68.557  23.459  1.00  0.00     0.126 C
HETATM   25  O4  UNL     1      15.134  67.613  21.505  1.00  0.00    -0.266 OA
ENDBRANCH  22  23
ENDBRANCH  21  22
ENDBRANCH  11  21
BRANCH   5  26
HETATM   26  O2  UNL     1      14.584  62.200  28.295  1.00  0.00    -0.390 OA
HETATM   27  C7  UNL     1      15.934  61.988  28.276  1.00  0.00     0.202 C
ENDBRANCH   5  26
BRANCH   1  28
HETATM   28  O1  UNL     1      10.542  65.890  29.027  1.00  0.00    -0.386 OA
HETATM   29  C1  UNL     1       9.218  65.891  29.528  1.00  0.00     0.202 C
ENDBRANCH   1  28
BRANCH  19  30
HETATM   30  O9  UNL     1      11.758  68.469  28.678  1.00  0.00    -0.314 OA
BRANCH  30  31
HETATM   31  C25 UNL     1      11.629  69.806  28.898  1.00  0.00     0.255 C
HETATM   32  C26 UNL     1      12.354  70.734  28.000  1.00  0.00     0.126 C
HETATM   33  O10 UNL     1      10.901  70.185  29.849  1.00  0.00    -0.266 OA
ENDBRANCH  30  31
ENDBRANCH  19  30
BRANCH  18  34
HETATM   34  O5  UNL     1      13.887  67.462  31.060  1.00  0.00    -0.248 OA
BRANCH  34  35
HETATM   35  S1  UNL     1      13.634  68.775  32.029  1.00  0.00     0.252 S
HETATM   36  O6  UNL     1      14.502  68.740  33.278  1.00  0.00    -0.572 OA
HETATM   37  O7  UNL     1      12.204  68.739  32.527  1.00  0.00    -0.572 OA
HETATM   38  O8  UNL     1      13.887  70.236  31.270  1.00  0.00    -0.572 OA
ENDBRANCH  34  35
ENDBRANCH  18  34
TORSDOF 9
ENDMDL