MODEL 1
REMARK VINA RESULT: -8.188850203      0.000      0.000
REMARK  10 active torsions:
REMARK  status: ('A' for Active; 'I' for Inactive)
REMARK    1  A    between atoms: C2_2  and  C3_3
REMARK    2  A    between atoms: C3_3  and  O1_4
REMARK    3  A    between atoms: O1_4  and  C4_5
REMARK    4  A    between atoms: C7_9  and  C8_10
REMARK    5  A    between atoms: C8_10  and  C9_12
REMARK    6  A    between atoms: C19_23  and  C20_24
REMARK    7  A    between atoms: C21_25  and  C22_26
REMARK    8  A    between atoms: C22_26  and  O6_28
REMARK    9  A    between atoms: O6_28  and  C23_29
REMARK   10  A    between atoms: C31_38  and  O8_39
ROOT
HETATM    1  C9  UNL     1      13.124  66.525  30.415  1.00  0.00     0.057 C
HETATM    2  C10 UNL     1      13.181  67.768  31.201  1.00  0.00     0.021 C
HETATM    3  C11 UNL     1      12.399  67.367  32.460  1.00  0.00     0.002 C
HETATM    4  C12 UNL     1      11.536  66.183  32.062  1.00  0.00     0.013 C
HETATM    5  C13 UNL     1      11.649  66.253  30.561  1.00  0.00    -0.000 C
HETATM    6  C14 UNL     1      10.775  67.452  30.265  1.00  0.00     0.019 C
HETATM    7  C15 UNL     1      11.111  65.090  29.804  1.00  0.00     0.140 C
HETATM    8  O4  UNL     1       9.769  65.351  29.424  1.00  0.00    -0.370 OA
HETATM    9  C16 UNL     1       9.637  65.327  28.092  1.00  0.00     0.097 C
HETATM   10  C17 UNL     1       9.019  66.521  27.376  1.00  0.00     0.050 C
HETATM   11  C18 UNL     1      10.897  64.932  27.434  1.00  0.00     0.044 C
HETATM   12  C19 UNL     1      10.206  63.779  26.779  1.00  0.00     0.056 C
HETATM   13  C25 UNL     1       8.952  64.086  27.573  1.00  0.00     0.125 A
HETATM   14  O7  UNL     1       8.414  63.155  28.425  1.00  0.00    -0.366 OA
HETATM   15  C26 UNL     1       7.652  63.856  27.329  1.00  0.00     0.157 A
HETATM   16  C27 UNL     1       6.507  64.632  27.947  1.00  0.00     0.043 C
HETATM   17  C28 UNL     1      11.831  64.655  28.586  1.00  0.00    -0.007 C
HETATM   18  C29 UNL     1      12.020  63.147  28.560  1.00  0.00     0.018 C
HETATM   19  C30 UNL     1      13.135  65.290  28.318  1.00  0.00     0.045 C
HETATM   20  C31 UNL     1      13.446  66.607  28.963  1.00  0.00     0.135 C
ENDROOT
BRANCH   1  21
HETATM   21  C8  UNL     1      14.012  65.555  30.995  1.00  0.00     0.150 C
HETATM   22  O3  UNL     1      13.702  64.414  31.352  1.00  0.00    -0.296 OA
BRANCH  21  23
HETATM   23  C7  UNL     1      15.480  65.794  31.259  1.00  0.00     0.128 C
HETATM   24  C6  UNL     1      16.265  64.759  30.500  1.00  0.00     0.140 C
HETATM   25  C5  UNL     1      17.207  64.108  31.380  1.00  0.00     0.111 C
HETATM   26  O2  UNL     1      16.122  64.504  29.299  1.00  0.00    -0.297 OA
HETATM   27  C4  UNL     1      17.331  65.027  32.610  1.00  0.00     0.130 C
HETATM   28  C32 UNL     1      15.907  65.621  32.649  1.00  0.00     0.052 C
BRANCH  27  29
HETATM   29  O1  UNL     1      17.721  64.459  33.651  1.00  0.00    -0.382 OA
BRANCH  29  30
HETATM   30  C3  UNL     1      18.108  63.901  34.680  1.00  0.00     0.194 C
BRANCH  30  31
HETATM   31  C2  UNL     1      18.137  62.391  34.572  1.00  0.00    -0.011 C
HETATM   32  C1  UNL     1      19.042  61.819  33.820  1.00  0.00     0.009 C
ENDBRANCH  30  31
ENDBRANCH  29  30
ENDBRANCH  27  29
ENDBRANCH  21  23
ENDBRANCH   1  21
BRANCH  20  33
HETATM   33  O8  UNL     1      13.032  67.714  28.280  1.00  0.00    -0.394 OA
ATOM     34  H8  UNL     1      12.098  67.832  28.152  1.00  0.00     0.210 HD
ENDBRANCH  20  33
BRANCH  12  35
HETATM   35  C20 UNL     1      10.071  63.951  25.309  1.00  0.00    -0.012 C
HETATM   36  C21 UNL     1      10.614  63.249  24.369  1.00  0.00     0.079 C
BRANCH  36  37
HETATM   37  C22 UNL     1      11.486  62.117  24.438  1.00  0.00     0.282 C
HETATM   38  O5  UNL     1      11.018  60.975  24.034  1.00  0.00    -0.260 OA
BRANCH  37  39
HETATM   39  O6  UNL     1      12.771  62.059  24.877  1.00  0.00    -0.319 OA
BRANCH  39  40
HETATM   40  C23 UNL     1      13.608  63.137  25.198  1.00  0.00     0.174 C
HETATM   41  C24 UNL     1      14.637  62.608  26.193  1.00  0.00     0.034 C
ENDBRANCH  39  40
ENDBRANCH  37  39
ENDBRANCH  36  37
ENDBRANCH  12  35
TORSDOF 10
ENDMDL