MODEL 1
REMARK VINA RESULT: -9.812956186      0.000      0.000
REMARK  10 active torsions:
REMARK  status: ('A' for Active; 'I' for Inactive)
REMARK    1  A    between atoms: O1_2  and  C2_3
REMARK    2  A    between atoms: C2_3  and  C3_5
REMARK    3  A    between atoms: C3_5  and  C4_6
REMARK    4  A    between atoms: C4_6  and  C5_7
REMARK    5  A    between atoms: C4_6  and  C19_25
REMARK    6  A    between atoms: C5_7  and  O4_9
REMARK    7  A    between atoms: O4_9  and  C6_10
REMARK    8  A    between atoms: C19_25  and  O7_26
REMARK    9  A    between atoms: C19_25  and  C20_28
REMARK   10  A    between atoms: C24_33  and  C25_34
ROOT
HETATM    1  C4  UNL     1      15.853  64.367  29.681  1.00  0.00     0.124 C
ENDROOT
BRANCH   1   2
HETATM    2  C3  UNL     1      15.716  63.570  28.430  1.00  0.00     0.128 C
BRANCH   2   3
HETATM    3  C2  UNL     1      15.267  62.178  28.733  1.00  0.00     0.259 C
HETATM    4  O2  UNL     1      16.063  61.220  28.817  1.00  0.00    -0.265 OA
BRANCH   3   5
HETATM    5  O1  UNL     1      13.922  61.915  28.932  1.00  0.00    -0.326 OA
HETATM    6  C1  UNL     1      12.899  62.662  28.284  1.00  0.00     0.213 C
ENDBRANCH   3   5
ENDBRANCH   2   3
ENDBRANCH   1   2
BRANCH   1   7
HETATM    7  C5  UNL     1      17.295  64.446  30.052  1.00  0.00     0.266 C
HETATM    8  O3  UNL     1      18.193  64.093  29.236  1.00  0.00    -0.265 OA
BRANCH   7   9
HETATM    9  O4  UNL     1      17.731  64.898  31.271  1.00  0.00    -0.313 OA
BRANCH   9  10
HETATM   10  C6  UNL     1      18.237  63.991  32.265  1.00  0.00     0.166 C
HETATM   11  C7  UNL     1      17.230  63.653  33.287  1.00  0.00     0.035 C
HETATM   12  C8  UNL     1      17.580  64.181  34.682  1.00  0.00     0.005 C
HETATM   13  C9  UNL     1      18.261  63.177  35.545  1.00  0.00     0.032 C
HETATM   14  C10 UNL     1      19.733  63.353  35.716  1.00  0.00     0.130 C
HETATM   15  O5  UNL     1      20.317  64.327  34.958  1.00  0.00    -0.346 OA
HETATM   16  C18 UNL     1      20.390  62.090  35.145  1.00  0.00     0.028 C
HETATM   17  C11 UNL     1      20.191  63.895  33.673  1.00  0.00     0.198 A
HETATM   18  O6  UNL     1      20.698  64.491  32.565  1.00  0.00    -0.339 OA
HETATM   19  C12 UNL     1      19.390  64.739  32.892  1.00  0.00     0.217 A
HETATM   20  C13 UNL     1      20.253  62.399  33.656  1.00  0.00     0.058 C
HETATM   21  C14 UNL     1      21.589  61.998  33.034  1.00  0.00     0.011 C
HETATM   22  C15 UNL     1      22.323  61.255  34.128  1.00  0.00     0.005 C
HETATM   23  C16 UNL     1      21.866  62.052  35.357  1.00  0.00    -0.012 C
HETATM   24  C17 UNL     1      22.209  61.272  36.611  1.00  0.00     0.010 C
ENDBRANCH   9  10
ENDBRANCH   7   9
ENDBRANCH   1   7
BRANCH   1  25
HETATM   25  C19 UNL     1      15.171  65.667  29.789  1.00  0.00     0.144 C
BRANCH  25  26
HETATM   26  O7  UNL     1      14.699  66.078  28.545  1.00  0.00    -0.394 OA
ATOM     27  H7  UNL     1      15.264  65.758  27.851  1.00  0.00     0.210 HD
ENDBRANCH  25  26
BRANCH  25  28
HETATM   28  C20 UNL     1      14.163  65.931  30.843  1.00  0.00     0.026 A
HETATM   29  C21 UNL     1      14.000  64.821  31.853  1.00  0.00     0.018 C
HETATM   30  C22 UNL     1      12.838  64.892  32.763  1.00  0.00     0.034 C
HETATM   31  C23 UNL     1      12.237  66.292  32.655  1.00  0.00     0.131 C
HETATM   32  O8  UNL     1      13.310  67.170  32.701  1.00  0.00    -0.372 OA
HETATM   33  C29 UNL     1      11.698  66.413  31.246  1.00  0.00    -0.014 C
HETATM   34  C24 UNL     1      13.876  67.249  31.432  1.00  0.00     0.080 A
HETATM   35  C28 UNL     1      12.931  66.614  30.463  1.00  0.00     0.046 A
HETATM   36  C30 UNL     1      10.903  65.196  30.839  1.00  0.00     0.018 C
HETATM   37  C31 UNL     1      10.802  67.625  31.177  1.00  0.00     0.018 C
BRANCH  34  38
HETATM   38  C25 UNL     1      14.414  68.570  31.060  1.00  0.00     0.013 C
HETATM   39  C26 UNL     1      14.032  69.594  32.176  1.00  0.00     0.012 C
HETATM   40  C27 UNL     1      13.780  69.215  29.830  1.00  0.00     0.012 C
ENDBRANCH  34  38
ENDBRANCH  25  28
ENDBRANCH   1  25
TORSDOF 10
ENDMDL