MODEL 3
REMARK VINA RESULT: -7.836876182      5.109      7.920
REMARK  8 active torsions:
REMARK  status: ('A' for Active; 'I' for Inactive)
REMARK    1  A    between atoms: C2_2  and  C3_3
REMARK    2  A    between atoms: C3_3  and  C4_5
REMARK    3  A    between atoms: C9_11  and  O3_12
REMARK    4  A    between atoms: O3_12  and  C10_13
REMARK    5  A    between atoms: C23_27  and  O5_28
REMARK    6  A    between atoms: O5_28  and  S1_29
REMARK    7  A    between atoms: C24_33  and  O9_34
REMARK    8  A    between atoms: O9_34  and  C25_35
ROOT
HETATM    1  C4  UNL     1      11.613  66.865  30.496  1.00  0.00     0.132 C
HETATM    2  C5  UNL     1      10.720  68.033  30.652  1.00  0.00     0.143 C
HETATM    3  O2  UNL     1      10.778  68.679  31.699  1.00  0.00    -0.297 OA
HETATM    4  C6  UNL     1       9.737  68.516  29.647  1.00  0.00     0.066 C
HETATM    5  C7  UNL     1       9.668  69.998  29.637  1.00  0.00     0.008 C
HETATM    6  C8  UNL     1       8.248  70.363  30.104  1.00  0.00     0.038 C
HETATM    7  C9  UNL     1       8.019  71.848  30.068  1.00  0.00     0.132 C
HETATM    8  C12 UNL     1       8.236  72.422  28.687  1.00  0.00     0.033 C
HETATM    9  C13 UNL     1       8.787  71.326  27.803  1.00  0.00     0.012 C
HETATM   10  C14 UNL     1      10.056  70.714  28.413  1.00  0.00    -0.040 C
HETATM   11  C15 UNL     1      10.945  71.930  28.732  1.00  0.00     0.015 C
HETATM   12  C16 UNL     1      10.743  69.962  27.345  1.00  0.00     0.010 C
HETATM   13  C17 UNL     1      11.265  68.599  27.774  1.00  0.00     0.007 C
HETATM   14  C18 UNL     1      10.075  67.879  28.319  1.00  0.00     0.006 C
HETATM   15  C19 UNL     1      10.190  66.418  28.450  1.00  0.00    -0.032 C
HETATM   16  C20 UNL     1       8.847  65.891  28.914  1.00  0.00     0.016 C
HETATM   17  C21 UNL     1      10.441  65.763  27.104  1.00  0.00     0.012 C
HETATM   18  C22 UNL     1      10.794  64.307  27.208  1.00  0.00     0.037 C
HETATM   19  C23 UNL     1      12.057  64.115  28.023  1.00  0.00     0.175 C
HETATM   20  C24 UNL     1      12.453  65.477  28.619  1.00  0.00     0.168 C
HETATM   21  C27 UNL     1      11.240  65.930  29.402  1.00  0.00     0.045 C
ENDROOT
BRANCH  19  22
HETATM   22  O5  UNL     1      13.117  63.636  27.297  1.00  0.00    -0.249 OA
BRANCH  22  23
HETATM   23  S1  UNL     1      13.537  62.066  27.715  1.00  0.00     0.252 S
HETATM   24  O6  UNL     1      13.409  61.197  26.499  1.00  0.00    -0.572 OA
HETATM   25  O7  UNL     1      14.952  61.981  28.203  1.00  0.00    -0.572 OA
HETATM   26  O8  UNL     1      12.440  61.536  28.857  1.00  0.00    -0.572 OA
ENDBRANCH  22  23
ENDBRANCH  19  22
BRANCH  20  27
HETATM   27  O9  UNL     1      13.505  65.253  29.530  1.00  0.00    -0.313 OA
BRANCH  27  28
HETATM   28  C25 UNL     1      14.833  65.441  29.219  1.00  0.00     0.255 C
HETATM   29  C26 UNL     1      15.864  64.895  30.130  1.00  0.00     0.126 C
HETATM   30  O10 UNL     1      15.164  66.054  28.203  1.00  0.00    -0.266 OA
ENDBRANCH  27  28
ENDBRANCH  20  27
BRANCH   1  31
HETATM   31  C3  UNL     1      11.690  66.222  31.844  1.00  0.00     0.138 C
HETATM   32  O1  UNL     1      10.960  65.291  32.110  1.00  0.00    -0.297 OA
BRANCH  31  33
HETATM   33  C2  UNL     1      12.636  66.678  32.893  1.00  0.00     0.074 C
HETATM   34  C1  UNL     1      13.864  67.294  32.265  1.00  0.00     0.013 C
ENDBRANCH  31  33
ENDBRANCH   1  31
BRANCH   7  35
HETATM   35  O3  UNL     1       6.711  72.075  30.541  1.00  0.00    -0.316 OA
BRANCH  35  36
HETATM   36  C10 UNL     1       6.407  73.046  31.455  1.00  0.00     0.255 C
HETATM   37  C11 UNL     1       5.656  72.788  32.710  1.00  0.00     0.126 C
HETATM   38  O4  UNL     1       6.777  74.217  31.232  1.00  0.00    -0.266 OA
ENDBRANCH  35  36
ENDBRANCH   7  35
TORSDOF 8
ENDMDL