MODEL 4
REMARK VINA RESULT: -7.948662053      2.111      3.375
REMARK  10 active torsions:
REMARK  status: ('A' for Active; 'I' for Inactive)
REMARK    1  A    between atoms: C2_2  and  C4_4
REMARK    2  A    between atoms: C18_19  and  C19_20
REMARK    3  A    between atoms: C18_19  and  C20_27
REMARK    4  A    between atoms: C19_20  and  O3_22
REMARK    5  A    between atoms: O3_22  and  S1_23
REMARK    6  A    between atoms: C20_27  and  O7_30
REMARK    7  A    between atoms: C23_32  and  C25_34
REMARK    8  A    between atoms: C25_34  and  O9_36
REMARK    9  A    between atoms: O9_36  and  C26_37
REMARK   10  A    between atoms: C26_37  and  C27_38
ROOT
HETATM    1  C4  UNL     1      12.250  62.980  27.433  1.00  0.00     0.032 C
HETATM    2  C5  UNL     1      11.645  64.327  27.142  1.00  0.00     0.011 C
HETATM    3  C6  UNL     1      11.398  65.227  28.301  1.00  0.00     0.011 C
HETATM    4  C7  UNL     1      12.337  65.040  29.465  1.00  0.00    -0.024 C
HETATM    5  C8  UNL     1      11.535  64.187  30.415  1.00  0.00     0.017 C
HETATM    6  C9  UNL     1      13.617  64.349  29.022  1.00  0.00     0.013 C
HETATM    7  C10 UNL     1      14.492  65.264  28.229  1.00  0.00     0.007 C
HETATM    8  C11 UNL     1      14.070  66.703  28.110  1.00  0.00     0.008 C
HETATM    9  C12 UNL     1      13.503  67.299  29.370  1.00  0.00     0.027 C
HETATM   10  C13 UNL     1      12.759  66.297  30.196  1.00  0.00     0.034 C
HETATM   11  C14 UNL     1      13.772  65.779  31.253  1.00  0.00     0.025 C
HETATM   12  C15 UNL     1      11.720  66.919  31.045  1.00  0.00     0.158 C
HETATM   13  O1  UNL     1      11.437  66.613  32.236  1.00  0.00    -0.292 OA
HETATM   14  C16 UNL     1      10.938  68.001  30.460  1.00  0.00     0.048 C
HETATM   15  C17 UNL     1      11.472  68.792  29.530  1.00  0.00     0.000 C
HETATM   16  C18 UNL     1      12.862  68.599  29.064  1.00  0.00     0.102 C
HETATM   17  C23 UNL     1      13.396  63.000  28.355  1.00  0.00     0.056 C
HETATM   18  C24 UNL     1      13.107  61.919  29.450  1.00  0.00     0.027 C
ENDROOT
BRANCH  16  19
HETATM   19  C19 UNL     1      12.855  68.965  27.612  1.00  0.00     0.292 C
HETATM   20  O2  UNL     1      11.804  68.848  26.927  1.00  0.00    -0.263 OA
BRANCH  19  21
HETATM   21  O3  UNL     1      13.950  69.445  26.914  1.00  0.00    -0.176 OA
BRANCH  21  22
HETATM   22  S1  UNL     1      13.826  70.668  25.737  1.00  0.00     0.259 S
HETATM   23  O4  UNL     1      15.202  71.300  25.620  1.00  0.00    -0.572 OA
HETATM   24  O5  UNL     1      12.893  71.762  26.171  1.00  0.00    -0.572 OA
HETATM   25  O6  UNL     1      13.414  70.055  24.235  1.00  0.00    -0.572 OA
ENDBRANCH  21  22
ENDBRANCH  19  21
ENDBRANCH  16  19
BRANCH  16  26
HETATM   26  C20 UNL     1      13.608  69.799  29.699  1.00  0.00     0.071 C
HETATM   27  C21 UNL     1      12.697  71.023  29.559  1.00  0.00     0.047 C
HETATM   28  C22 UNL     1      13.867  69.622  31.152  1.00  0.00     0.047 C
BRANCH  26  29
HETATM   29  O7  UNL     1      14.824  70.012  29.061  1.00  0.00    -0.389 OA
ATOM     30  H7  UNL     1      15.364  70.611  29.562  1.00  0.00     0.210 HD
ENDBRANCH  26  29
ENDBRANCH  16  26
BRANCH  17  31
HETATM   31  C25 UNL     1      14.679  62.472  27.859  1.00  0.00     0.268 C
HETATM   32  O8  UNL     1      15.299  61.607  28.459  1.00  0.00    -0.264 OA
BRANCH  31  33
HETATM   33  O9  UNL     1      15.266  62.922  26.667  1.00  0.00    -0.321 OA
BRANCH  33  34
HETATM   34  C26 UNL     1      16.688  62.815  26.481  1.00  0.00     0.178 C
BRANCH  34  35
HETATM   35  C27 UNL     1      17.088  63.795  25.378  1.00  0.00     0.022 C
HETATM   36  C28 UNL     1      15.893  64.545  24.859  1.00  0.00     0.007 C
ENDBRANCH  34  35
ENDBRANCH  33  34
ENDBRANCH  31  33
ENDBRANCH  17  31
BRANCH   1  37
HETATM   37  C2  UNL     1      12.443  62.342  26.112  1.00  0.00    -0.088 C
HETATM   38  C1  UNL     1      12.480  61.009  25.961  1.00  0.00     0.014 C
HETATM   39  C3  UNL     1      12.546  63.131  24.871  1.00  0.00     0.043 C
ENDBRANCH   1  37
TORSDOF 10
ENDMDL