MODEL 5
REMARK VINA RESULT: -8.501769849      3.940      6.631
REMARK  10 active torsions:
REMARK  status: ('A' for Active; 'I' for Inactive)
REMARK    1  A    between atoms: C2_2  and  O2_4
REMARK    2  A    between atoms: O2_4  and  C3_5
REMARK    3  A    between atoms: C22_26  and  C23_27
REMARK    4  A    between atoms: C23_27  and  C24_29
REMARK    5  A    between atoms: C24_29  and  C25_30
REMARK    6  A    between atoms: C25_30  and  C26_31
REMARK    7  A    between atoms: C26_31  and  O7_33
REMARK    8  A    between atoms: O7_33  and  C27_34
REMARK    9  A    between atoms: C27_34  and  C28_35
REMARK   10  A    between atoms: C28_35  and  O8_36
ROOT
HETATM    1  C3  UNL     1      10.175  62.396  24.725  1.00  0.00     0.132 C
HETATM    2  C4  UNL     1      11.374  61.546  24.586  1.00  0.00     0.033 C
HETATM    3  C5  UNL     1      12.601  61.959  25.293  1.00  0.00     0.013 C
HETATM    4  C6  UNL     1      12.780  63.428  25.224  1.00  0.00    -0.029 C
HETATM    5  C7  UNL     1      12.829  63.861  23.781  1.00  0.00     0.016 C
HETATM    6  C8  UNL     1      11.549  64.013  25.933  1.00  0.00     0.066 C
HETATM    7  C9  UNL     1      10.419  63.855  24.955  1.00  0.00     0.045 C
HETATM    8  C10 UNL     1      11.879  65.403  26.260  1.00  0.00     0.134 C
HETATM    9  O3  UNL     1      11.485  66.200  25.396  1.00  0.00    -0.297 OA
HETATM   10  C11 UNL     1      12.574  65.979  27.397  1.00  0.00     0.117 C
HETATM   11  C12 UNL     1      13.551  65.143  28.115  1.00  0.00     0.076 C
HETATM   12  O4  UNL     1      14.831  65.767  28.114  1.00  0.00    -0.373 OA
HETATM   13  C13 UNL     1      15.450  65.316  29.318  1.00  0.00     0.132 C
HETATM   14  C14 UNL     1      15.715  63.854  29.103  1.00  0.00     0.038 C
HETATM   15  C15 UNL     1      15.210  63.327  27.805  1.00  0.00    -0.005 C
HETATM   16  C16 UNL     1      16.166  63.639  26.658  1.00  0.00     0.005 C
HETATM   17  C17 UNL     1      15.264  63.387  25.464  1.00  0.00     0.006 C
HETATM   18  C18 UNL     1      13.968  63.977  25.926  1.00  0.00     0.002 C
HETATM   19  C19 UNL     1      13.857  63.816  27.396  1.00  0.00     0.030 C
HETATM   20  C20 UNL     1      14.366  65.615  30.236  1.00  0.00    -0.001 C
HETATM   21  C21 UNL     1      14.020  67.068  30.282  1.00  0.00     0.019 C
HETATM   22  C22 UNL     1      14.197  65.005  31.540  1.00  0.00     0.066 C
HETATM   23  C29 UNL     1      12.662  65.087  31.692  1.00  0.00     0.013 C
HETATM   24  C30 UNL     1      12.132  65.295  30.253  1.00  0.00     0.009 C
HETATM   25  C31 UNL     1      13.268  64.805  29.495  1.00  0.00     0.032 C
ENDROOT
BRANCH  22  26
HETATM   26  C23 UNL     1      14.798  65.777  32.667  1.00  0.00     0.132 C
HETATM   27  O5  UNL     1      14.094  66.358  33.473  1.00  0.00    -0.298 OA
BRANCH  26  28
HETATM   28  C24 UNL     1      16.269  65.857  32.837  1.00  0.00     0.088 C
BRANCH  28  29
HETATM   29  C25 UNL     1      16.893  64.489  32.686  1.00  0.00     0.118 C
BRANCH  29  30
HETATM   30  C26 UNL     1      18.333  64.573  33.100  1.00  0.00     0.259 C
HETATM   31  O6  UNL     1      19.251  64.594  32.247  1.00  0.00    -0.265 OA
BRANCH  30  32
HETATM   32  O7  UNL     1      18.688  64.632  34.427  1.00  0.00    -0.319 OA
BRANCH  32  33
HETATM   33  C27 UNL     1      18.150  63.896  35.479  1.00  0.00     0.204 C
BRANCH  33  34
HETATM   34  C28 UNL     1      18.182  62.414  35.291  1.00  0.00     0.191 C
BRANCH  34  35
HETATM   35  O8  UNL     1      17.344  61.773  36.229  1.00  0.00    -0.399 OA
ATOM     36  H8  UNL     1      17.707  61.837  37.104  1.00  0.00     0.209 HD
ENDBRANCH  34  35
ENDBRANCH  33  34
ENDBRANCH  32  33
ENDBRANCH  30  32
ENDBRANCH  29  30
ENDBRANCH  28  29
ENDBRANCH  26  28
ENDBRANCH  22  26
BRANCH   1  37
HETATM   37  O2  UNL     1       9.351  62.132  23.611  1.00  0.00    -0.316 OA
BRANCH  37  38
HETATM   38  C2  UNL     1       8.141  61.475  23.703  1.00  0.00     0.255 C
HETATM   39  C1  UNL     1       7.994  60.110  23.157  1.00  0.00     0.126 C
HETATM   40  O1  UNL     1       7.224  62.115  24.266  1.00  0.00    -0.266 OA
ENDBRANCH  37  38
ENDBRANCH   1  37
TORSDOF 10
ENDMDL