MODEL 5
REMARK VINA RESULT: -7.750316873      1.373      1.926
REMARK  12 active torsions:
REMARK  status: ('A' for Active; 'I' for Inactive)
REMARK    1  A    between atoms: C2_2  and  S1_3
REMARK    2  A    between atoms: S1_3  and  C3_4
REMARK    3  A    between atoms: C3_4  and  N1_6
REMARK    4  A    between atoms: N2_9  and  C6_10
REMARK    5  A    between atoms: C6_10  and  S4_12
REMARK    6  A    between atoms: S4_12  and  S5_13
REMARK    7  A    between atoms: S5_13  and  C7_14
REMARK    8  A    between atoms: C7_14  and  C9_16
REMARK    9  A    between atoms: C9_16  and  N3_17
REMARK   10  A    between atoms: C9_16  and  C17_30
REMARK       I    between atoms: N3_17  and  C10_19
REMARK   11  A    between atoms: C10_19  and  C11_21
REMARK   12  A    between atoms: C16_26  and  N4_27
ROOT
HETATM    1  C7  UNL     1      14.985  63.212  28.777  1.00  0.00     0.085 C
HETATM    2  C8  UNL     1      15.630  62.313  27.756  1.00  0.00     0.025 C
ENDROOT
BRANCH   1   3
HETATM    3  S5  UNL     1      16.042  64.613  29.104  1.00  0.00    -0.083 SA
BRANCH   3   4
HETATM    4  S4  UNL     1      17.797  64.161  30.100  1.00  0.00    -0.028 SA
BRANCH   4   5
HETATM    5  C6  UNL     1      17.884  64.372  31.820  1.00  0.00     0.147 C
HETATM    6  S3  UNL     1      16.488  64.989  32.528  1.00  0.00    -0.052 SA
BRANCH   5   7
HETATM    7  N2  UNL     1      18.922  64.116  32.716  1.00  0.00    -0.363 N
HETATM    8  C5  UNL     1      19.741  62.901  32.560  1.00  0.00     0.144 C
HETATM    9  C4  UNL     1      21.034  63.113  33.320  1.00  0.00     0.144 C
HETATM   10  N1  UNL     1      20.649  63.251  34.753  1.00  0.00    -0.363 N
HETATM   11  C20 UNL     1      19.602  64.159  35.046  1.00  0.00     0.144 C
HETATM   12  C19 UNL     1      19.218  64.981  33.812  1.00  0.00     0.144 C
BRANCH  10  13
HETATM   13  C3  UNL     1      21.316  62.471  35.698  1.00  0.00     0.136 C
HETATM   14  S2  UNL     1      22.423  61.361  35.073  1.00  0.00    -0.053 SA
BRANCH  13  15
HETATM   15  S1  UNL     1      21.135  62.520  37.429  1.00  0.00    -0.101 SA
BRANCH  15  16
HETATM   16  C2  UNL     1      22.150  61.444  38.380  1.00  0.00     0.077 C
HETATM   17  C1  UNL     1      21.390  60.114  38.616  1.00  0.00     0.016 C
ENDBRANCH  15  16
ENDBRANCH  13  15
ENDBRANCH  10  13
ENDBRANCH   5   7
ENDBRANCH   4   5
ENDBRANCH   3   4
ENDBRANCH   1   3
BRANCH   1  18
HETATM   18  C9  UNL     1      13.582  63.609  28.377  1.00  0.00     0.167 C
BRANCH  18  19
HETATM   19  N3  UNL     1      12.899  64.346  29.389  1.00  0.00    -0.348 N
HETATM   20  C10 UNL     1      11.793  65.181  29.120  1.00  0.00     0.224 C
HETATM   21  O1  UNL     1      11.397  65.274  27.932  1.00  0.00    -0.273 OA
ATOM     22  H3  UNL     1      13.226  64.267  30.352  1.00  0.00     0.163 HD
BRANCH  20  23
HETATM   23  C11 UNL     1      11.072  65.952  30.160  1.00  0.00     0.107 C
HETATM   24  C12 UNL     1      11.369  65.405  31.528  1.00  0.00     0.016 C
HETATM   25  C13 UNL     1      12.365  66.175  32.327  1.00  0.00     0.001 C
HETATM   26  C14 UNL     1      12.002  67.618  32.453  1.00  0.00     0.002 C
HETATM   27  C15 UNL     1      11.009  68.061  31.403  1.00  0.00     0.032 C
HETATM   28  C16 UNL     1      11.278  67.417  30.065  1.00  0.00     0.169 C
BRANCH  28  29
HETATM   29  N4  UNL     1      12.592  67.834  29.638  1.00  0.00    -0.150 N
HETATM   30  O2  UNL     1      13.594  67.137  29.527  1.00  0.00    -0.536 OA
HETATM   31  O3  UNL     1      12.725  69.179  29.317  1.00  0.00    -0.536 OA
ENDBRANCH  28  29
ENDBRANCH  20  23
ENDBRANCH  18  19
BRANCH  18  32
HETATM   32  C17 UNL     1      12.864  62.363  28.005  1.00  0.00     0.146 C
HETATM   33  C18 UNL     1      12.607  62.084  26.562  1.00  0.00     0.093 C
HETATM   34  O4  UNL     1      12.510  61.613  28.891  1.00  0.00    -0.296 OA
ENDBRANCH  18  32
ENDBRANCH   1  18
TORSDOF 12
ENDMDL