MODEL 4
REMARK VINA RESULT: -7.400818052      2.015      7.960
REMARK  9 active torsions:
REMARK  status: ('A' for Active; 'I' for Inactive)
REMARK    1  A    between atoms: C2_2  and  C4_4
REMARK    2  A    between atoms: C5_5  and  C6_6
REMARK    3  A    between atoms: C6_6  and  C8_8
REMARK    4  A    between atoms: C10_11  and  O2_12
REMARK    5  A    between atoms: O2_12  and  C11_13
REMARK    6  A    between atoms: C19_23  and  C20_24
REMARK    7  A    between atoms: C20_24  and  C21_26
REMARK    8  A    between atoms: C24_31  and  O8_32
REMARK    9  A    between atoms: O8_32  and  C25_33
ROOT
HETATM    1  C4  UNL     1      13.446  65.487  29.514  1.00  0.00     0.026 C
HETATM    2  C5  UNL     1      14.620  65.655  30.397  1.00  0.00     0.034 C
HETATM    3  C10 UNL     1      15.701  64.609  30.316  1.00  0.00     0.138 C
HETATM    4  C13 UNL     1      16.107  64.518  28.860  1.00  0.00     0.050 C
HETATM    5  C14 UNL     1      14.927  63.853  28.192  1.00  0.00     0.024 C
HETATM    6  C15 UNL     1      15.061  62.398  28.508  1.00  0.00     0.024 C
HETATM    7  C16 UNL     1      15.159  63.781  26.686  1.00  0.00     0.136 C
HETATM    8  O4  UNL     1      16.189  64.194  26.262  1.00  0.00    -0.297 OA
HETATM    9  C17 UNL     1      14.043  63.191  25.937  1.00  0.00     0.085 C
HETATM   10  C18 UNL     1      12.700  63.153  26.545  1.00  0.00     0.013 C
HETATM   11  C19 UNL     1      11.760  63.775  25.524  1.00  0.00     0.078 C
HETATM   12  C22 UNL     1      10.296  63.588  25.842  1.00  0.00     0.023 C
HETATM   13  C23 UNL     1       9.643  62.433  25.174  1.00  0.00     0.013 C
HETATM   14  C24 UNL     1      10.172  63.462  27.330  1.00  0.00     0.137 C
HETATM   15  C27 UNL     1      11.214  64.480  27.864  1.00  0.00     0.042 C
HETATM   16  C28 UNL     1      12.514  63.678  27.943  1.00  0.00    -0.032 C
HETATM   17  C29 UNL     1      12.200  62.593  28.951  1.00  0.00     0.016 C
HETATM   18  C30 UNL     1      13.663  64.567  28.338  1.00  0.00     0.018 C
ENDROOT
BRANCH   2  19
HETATM   19  C6  UNL     1      14.456  66.022  31.819  1.00  0.00     0.058 C
HETATM   20  C7  UNL     1      14.682  67.504  32.148  1.00  0.00     0.018 C
BRANCH  19  21
HETATM   21  C8  UNL     1      13.241  65.540  32.503  1.00  0.00     0.127 C
HETATM   22  C9  UNL     1      12.207  66.516  32.897  1.00  0.00     0.091 C
HETATM   23  O1  UNL     1      13.060  64.391  32.751  1.00  0.00    -0.298 OA
ENDBRANCH  19  21
ENDBRANCH   2  19
BRANCH   1  24
HETATM   24  C2  UNL     1      13.054  66.854  29.045  1.00  0.00    -0.088 C
HETATM   25  C1  UNL     1      12.042  67.580  29.481  1.00  0.00     0.014 C
HETATM   26  C3  UNL     1      13.872  67.497  27.975  1.00  0.00     0.043 C
ENDBRANCH   1  24
BRANCH   3  27
HETATM   27  O2  UNL     1      16.776  64.984  31.138  1.00  0.00    -0.316 OA
BRANCH  27  28
HETATM   28  C11 UNL     1      17.579  64.168  31.873  1.00  0.00     0.255 C
HETATM   29  C12 UNL     1      17.443  64.221  33.355  1.00  0.00     0.126 C
HETATM   30  O3  UNL     1      18.377  63.430  31.282  1.00  0.00    -0.266 OA
ENDBRANCH  27  28
ENDBRANCH   3  27
BRANCH  11  31
HETATM   31  C20 UNL     1      11.917  63.127  24.195  1.00  0.00     0.230 C
HETATM   32  O5  UNL     1      11.917  61.877  24.014  1.00  0.00    -0.285 OA
BRANCH  31  33
HETATM   33  C21 UNL     1      12.081  63.949  23.008  1.00  0.00     0.247 C
HETATM   34  O6  UNL     1      12.760  64.996  23.075  1.00  0.00    -0.642 OA
HETATM   35  O7  UNL     1      11.518  63.629  21.784  1.00  0.00    -0.642 OA
ENDBRANCH  31  33
ENDBRANCH  11  31
BRANCH  14  36
HETATM   36  O8  UNL     1       8.914  63.844  27.792  1.00  0.00    -0.316 OA
BRANCH  36  37
HETATM   37  C25 UNL     1       8.549  65.147  28.026  1.00  0.00     0.255 C
HETATM   38  C26 UNL     1       8.690  65.719  29.404  1.00  0.00     0.126 C
HETATM   39  O9  UNL     1       8.102  65.846  27.086  1.00  0.00    -0.266 OA
ENDBRANCH  36  37
ENDBRANCH  14  36
TORSDOF 9
ENDMDL