MODEL 4
REMARK VINA RESULT: -7.326326264      2.739      5.681
REMARK  9 active torsions:
REMARK  status: ('A' for Active; 'I' for Inactive)
REMARK       I    between atoms: C1_4  and  N3_6
REMARK       I    between atoms: N3_6  and  C2_8
REMARK    1  A    between atoms: C2_8  and  C3_10
REMARK    2  A    between atoms: C3_10  and  O2_11
REMARK    3  A    between atoms: O2_11  and  C4_12
REMARK    4  A    between atoms: C4_12  and  C5_14
REMARK    5  A    between atoms: C5_14  and  N4_15
REMARK    6  A    between atoms: N4_15  and  S1_17
REMARK    7  A    between atoms: S1_17  and  C6_20
REMARK    8  A    between atoms: C9_24  and  C10_25
REMARK       I    between atoms: C10_25  and  N5_27
REMARK    9  A    between atoms: N5_27  and  N6_29
ROOT
HETATM    1  N4  UNL     1     -20.436   8.451  28.189  1.00  0.00    -0.306 N
ATOM      2  H4  UNL     1     -19.720   8.999  28.666  1.00  0.00     0.172 HD
ENDROOT
BRANCH   1   3
HETATM    3  C5  UNL     1     -20.523   6.994  28.141  1.00  0.00     0.243 C
BRANCH   3   4
HETATM    4  C4  UNL     1     -20.528   6.442  29.510  1.00  0.00     0.277 C
HETATM    5  O3  UNL     1     -19.646   6.820  30.367  1.00  0.00    -0.263 OA
BRANCH   4   6
HETATM    6  O2  UNL     1     -21.444   5.507  29.983  1.00  0.00    -0.311 OA
BRANCH   6   7
HETATM    7  C3  UNL     1     -21.957   4.559  29.059  1.00  0.00     0.281 C
BRANCH   7   8
HETATM    8  C2  UNL     1     -23.400   4.774  28.903  1.00  0.00     0.248 C
HETATM    9  N3  UNL     1     -24.031   5.928  29.426  1.00  0.00    -0.300 N
HETATM   10  C1  UNL     1     -25.448   6.106  29.277  1.00  0.00     0.188 C
ATOM     11  H3  UNL     1     -23.477   6.636  29.909  1.00  0.00     0.171 HD
HETATM   12  N1  UNL     1     -26.003   7.169  29.744  1.00  0.00    -0.373 N
HETATM   13  N2  UNL     1     -26.241   5.140  28.652  1.00  0.00    -0.064 NA
ATOM     14  H12 UNL     1     -27.010   7.295  29.638  1.00  0.00     0.158 HD
ATOM     15  H11 UNL     1     -25.424   7.874  30.200  1.00  0.00     0.158 HD
HETATM   16  O1  UNL     1     -24.084   3.920  28.302  1.00  0.00    -0.271 OA
ENDBRANCH   7   8
ENDBRANCH   6   7
ENDBRANCH   4   6
ENDBRANCH   3   4
ENDBRANCH   1   3
BRANCH   1  17
HETATM   17  S1  UNL     1     -21.770   9.071  27.287  1.00  0.00     0.266 S
HETATM   18  O4  UNL     1     -21.957  10.534  27.517  1.00  0.00    -0.200 OA
HETATM   19  O5  UNL     1     -22.992   8.343  27.782  1.00  0.00    -0.200 OA
BRANCH  17  20
HETATM   20  C6  UNL     1     -21.517   8.739  25.572  1.00  0.00     0.135 A
HETATM   21  S2  UNL     1     -20.459   9.552  24.520  1.00  0.00    -0.087 SA
HETATM   22  C7  UNL     1     -20.720   8.681  23.099  1.00  0.00     0.052 A
HETATM   23  C8  UNL     1     -21.653   7.751  23.476  1.00  0.00     0.026 A
HETATM   24  C9  UNL     1     -22.071   7.780  24.766  1.00  0.00     0.064 A
BRANCH  24  25
HETATM   25  C10 UNL     1     -23.107   6.847  25.277  1.00  0.00     0.271 C
HETATM   26  O6  UNL     1     -22.752   5.708  25.653  1.00  0.00    -0.266 OA
HETATM   27  N5  UNL     1     -24.462   7.216  25.335  1.00  0.00    -0.272 N
ATOM     28  H5  UNL     1     -24.751   8.145  25.028  1.00  0.00     0.189 HD
BRANCH  27  29
HETATM   29  N6  UNL     1     -25.404   6.319  25.808  1.00  0.00    -0.342 N
ATOM     30  H62 UNL     1     -25.459   5.391  25.387  1.00  0.00     0.176 HD
ATOM     31  H61 UNL     1     -26.029   6.589  26.569  1.00  0.00     0.176 HD
ENDBRANCH  27  29
ENDBRANCH  24  25
ENDBRANCH  17  20
ENDBRANCH   1  17
TORSDOF 9
ENDMDL