MODEL 3
REMARK VINA RESULT: -6.681549077      3.857      5.874
REMARK  12 active torsions:
REMARK  status: ('A' for Active; 'I' for Inactive)
REMARK    1  A    between atoms: N1_1  and  C1_5
REMARK    2  A    between atoms: C1_5  and  C2_6
REMARK    3  A    between atoms: C2_6  and  N2_7
REMARK    4  A    between atoms: C2_6  and  C3_11
REMARK       I    between atoms: C3_11  and  N3_13
REMARK    5  A    between atoms: N4_16  and  C6_17
REMARK    6  A    between atoms: N5_19  and  O2_21
REMARK    7  A    between atoms: O2_21  and  C7_22
REMARK    8  A    between atoms: C7_22  and  C8_23
REMARK    9  A    between atoms: C8_23  and  N6_24
REMARK   10  A    between atoms: N6_24  and  C9_26
REMARK   11  A    between atoms: C9_26  and  N7_28
REMARK   12  A    between atoms: N7_28  and  N8_30
ROOT
HETATM    1  C3  UNL     1     -22.918   6.290  28.835  1.00  0.00     0.252 C
HETATM    2  O1  UNL     1     -22.138   5.511  29.507  1.00  0.00    -0.271 OA
HETATM    3  N3  UNL     1     -22.400   7.526  28.442  1.00  0.00    -0.347 N
HETATM    4  C4  UNL     1     -20.994   7.810  28.835  1.00  0.00     0.145 C
HETATM    5  C5  UNL     1     -20.289   8.330  27.577  1.00  0.00     0.145 C
HETATM    6  N4  UNL     1     -20.907   9.619  27.223  1.00  0.00    -0.357 N
HETATM    7  C10 UNL     1     -22.265   9.840  27.591  1.00  0.00     0.145 C
HETATM    8  C11 UNL     1     -23.073   8.562  27.700  1.00  0.00     0.145 C
ENDROOT
BRANCH   6   9
HETATM    9  C6  UNL     1     -20.101  10.555  26.542  1.00  0.00     0.173 C
HETATM   10  S1  UNL     1     -20.685  11.293  25.037  1.00  0.00    -0.011 SA
HETATM   11  N5  UNL     1     -18.960  10.874  26.995  1.00  0.00    -0.244 N
ATOM     12  H5  UNL     1     -18.652  10.430  27.860  1.00  0.00     0.196 HD
BRANCH  11  13
HETATM   13  O2  UNL     1     -18.110  11.773  26.401  1.00  0.00    -0.277 OA
BRANCH  13  14
HETATM   14  C7  UNL     1     -16.916  11.345  25.858  1.00  0.00     0.220 C
BRANCH  14  15
HETATM   15  C8  UNL     1     -16.383  10.031  26.276  1.00  0.00     0.151 C
BRANCH  15  16
HETATM   16  N6  UNL     1     -15.537   9.976  27.415  1.00  0.00    -0.364 N
ATOM     17  H6  UNL     1     -15.879   9.397  28.182  1.00  0.00     0.162 HD
BRANCH  16  18
HETATM   18  C9  UNL     1     -14.304  10.599  27.639  1.00  0.00     0.186 C
HETATM   19  S2  UNL     1     -12.979  10.183  26.811  1.00  0.00    -0.040 SA
BRANCH  18  20
HETATM   20  N7  UNL     1     -14.198  11.642  28.592  1.00  0.00    -0.283 N
ATOM     21  H7  UNL     1     -13.633  11.490  29.429  1.00  0.00     0.188 HD
BRANCH  20  22
HETATM   22  N8  UNL     1     -14.841  12.868  28.425  1.00  0.00    -0.343 N
ATOM     23  H82 UNL     1     -15.640  12.906  27.792  1.00  0.00     0.176 HD
ATOM     24  H81 UNL     1     -14.536  13.711  28.911  1.00  0.00     0.176 HD
ENDBRANCH  20  22
ENDBRANCH  18  20
ENDBRANCH  16  18
ENDBRANCH  15  16
ENDBRANCH  14  15
ENDBRANCH  13  14
ENDBRANCH  11  13
ENDBRANCH   6   9
BRANCH   1  25
HETATM   25  C2  UNL     1     -24.262   5.753  28.573  1.00  0.00     0.300 C
BRANCH  25  26
HETATM   26  C1  UNL     1     -25.129   5.984  29.805  1.00  0.00     0.272 C
BRANCH  26  27
HETATM   27  N1  UNL     1     -25.961   7.155  29.645  1.00  0.00    -0.077 N
ATOM     28  H13 UNL     1     -25.708   7.887  30.309  1.00  0.00     0.274 HD
ATOM     29  H12 UNL     1     -25.749   7.651  28.779  1.00  0.00     0.274 HD
ATOM     30  H11 UNL     1     -26.950   6.916  29.708  1.00  0.00     0.274 HD
ENDBRANCH  26  27
ENDBRANCH  25  26
BRANCH  25  31
HETATM   31  N2  UNL     1     -24.266   4.386  28.188  1.00  0.00    -0.065 N
ATOM     32  H23 UNL     1     -25.127   4.136  27.701  1.00  0.00     0.275 HD
ATOM     33  H22 UNL     1     -23.602   4.207  27.434  1.00  0.00     0.275 HD
ATOM     34  H21 UNL     1     -24.098   3.775  28.986  1.00  0.00     0.275 HD
ENDBRANCH  25  31
ENDBRANCH   1  25
TORSDOF 12
ENDMDL