MODEL 4
REMARK VINA RESULT: -6.920330525      2.278      6.712
REMARK  11 active torsions:
REMARK  status: ('A' for Active; 'I' for Inactive)
REMARK    1  A    between atoms: C2_2  and  C3_3
REMARK    2  A    between atoms: C3_3  and  C4_4
REMARK    3  A    between atoms: C5_8  and  O1_9
REMARK    4  A    between atoms: O1_9  and  C6_10
REMARK    5  A    between atoms: C7_11  and  O2_12
REMARK    6  A    between atoms: C8_14  and  O3_15
REMARK    7  A    between atoms: C10_17  and  O4_18
REMARK    8  A    between atoms: C11_20  and  O5_21
REMARK    9  A    between atoms: C12_23  and  N2_24
REMARK   10  A    between atoms: C15_27  and  O6_28
REMARK   11  A    between atoms: C16_30  and  O7_31
ROOT
HETATM    1  C6  UNL     1     -22.035   7.074  25.610  1.00  0.00     0.203 C
HETATM    2  C7  UNL     1     -21.097   8.222  25.713  1.00  0.00     0.184 C
HETATM    3  C8  UNL     1     -21.153   9.181  24.556  1.00  0.00     0.184 C
HETATM    4  C10 UNL     1     -21.129   8.502  23.227  1.00  0.00     0.184 C
HETATM    5  C11 UNL     1     -22.018   7.312  23.114  1.00  0.00     0.197 C
HETATM    6  C12 UNL     1     -22.094   6.385  24.264  1.00  0.00     0.047 C
ENDROOT
BRANCH   1   7
HETATM    7  O1  UNL     1     -21.739   6.155  26.612  1.00  0.00    -0.343 OA
BRANCH   7   8
HETATM    8  C5  UNL     1     -22.883   5.542  27.123  1.00  0.00     0.353 C
HETATM    9  N1  UNL     1     -22.657   5.096  28.482  1.00  0.00    -0.039 N
HETATM   10  C4  UNL     1     -23.660   5.741  29.325  1.00  0.00     0.223 C
ATOM     11  H12 UNL     1     -21.703   5.261  28.802  1.00  0.00     0.280 HD
ATOM     12  H11 UNL     1     -22.655   4.081  28.573  1.00  0.00     0.280 HD
HETATM   13  C16 UNL     1     -23.972   6.986  28.593  1.00  0.00     0.182 C
HETATM   14  C15 UNL     1     -24.064   6.476  27.148  1.00  0.00     0.205 C
BRANCH  10  15
HETATM   15  C3  UNL     1     -24.779   4.826  29.657  1.00  0.00     0.062 C
BRANCH  15  16
HETATM   16  C2  UNL     1     -24.557   4.014  30.848  1.00  0.00    -0.035 C
HETATM   17  C1  UNL     1     -24.850   4.522  32.065  1.00  0.00     0.007 C
ENDBRANCH  15  16
ENDBRANCH  10  15
BRANCH  13  18
HETATM   18  O7  UNL     1     -25.051   7.714  28.978  1.00  0.00    -0.391 OA
ATOM     19  H7  UNL     1     -24.909   8.514  29.471  1.00  0.00     0.210 HD
ENDBRANCH  13  18
BRANCH  14  20
HETATM   20  O6  UNL     1     -25.270   5.893  26.857  1.00  0.00    -0.389 OA
ATOM     21  H6  UNL     1     -25.855   6.423  26.328  1.00  0.00     0.210 HD
ENDBRANCH  14  20
ENDBRANCH   7   8
ENDBRANCH   1   7
BRANCH   2  22
HETATM   22  O2  UNL     1     -19.778   7.872  26.028  1.00  0.00    -0.390 OA
ATOM     23  H2  UNL     1     -19.125   8.200  25.420  1.00  0.00     0.210 HD
ENDBRANCH   2  22
BRANCH   6  24
HETATM   24  N2  UNL     1     -21.400   5.169  24.196  1.00  0.00    -0.392 N
HETATM   25  C13 UNL     1     -20.122   4.997  23.712  1.00  0.00     0.148 C
HETATM   26  C14 UNL     1     -22.202   3.987  23.959  1.00  0.00     0.148 C
ENDBRANCH   6  24
BRANCH   3  27
HETATM   27  O3  UNL     1     -20.013   9.989  24.642  1.00  0.00    -0.385 OA
HETATM   28  C9  UNL     1     -20.322  11.329  24.797  1.00  0.00     0.202 C
ENDBRANCH   3  27
BRANCH   5  29
HETATM   29  O5  UNL     1     -21.712   6.638  21.935  1.00  0.00    -0.387 OA
ATOM     30  H5  UNL     1     -21.974   7.178  21.198  1.00  0.00     0.210 HD
ENDBRANCH   5  29
BRANCH   4  31
HETATM   31  O4  UNL     1     -19.809   8.293  22.852  1.00  0.00    -0.390 OA
ATOM     32  H4  UNL     1     -19.778   7.596  22.207  1.00  0.00     0.210 HD
ENDBRANCH   4  31
TORSDOF 11
ENDMDL