MODEL 4
REMARK VINA RESULT: -7.565256979      1.896      2.327
REMARK  9 active torsions:
REMARK  status: ('A' for Active; 'I' for Inactive)
REMARK    1  A    between atoms: C7_8  and  C8_9
REMARK    2  A    between atoms: C8_9  and  N1_10
REMARK    3  A    between atoms: C8_9  and  C14_29
REMARK       I    between atoms: N1_10  and  C9_12
REMARK    4  A    between atoms: C9_12  and  C10_14
REMARK       I    between atoms: C10_14  and  N2_16
REMARK    5  A    between atoms: N2_16  and  C11_18
REMARK    6  A    between atoms: C11_18  and  C12_19
REMARK    7  A    between atoms: C11_18  and  C13_22
REMARK    8  A    between atoms: C13_22  and  N4_23
REMARK    9  A    between atoms: C13_22  and  O5_27
ROOT
HETATM    1  N1  UNL     1     -21.924   7.203  25.987  1.00  0.00    -0.336 N
ATOM      2  H1  UNL     1     -21.840   6.249  25.637  1.00  0.00     0.164 HD
HETATM    3  C9  UNL     1     -22.801   7.420  27.050  1.00  0.00     0.310 C
HETATM    4  O2  UNL     1     -22.949   8.566  27.523  1.00  0.00    -0.262 OA
ENDROOT
BRANCH   3   5
HETATM    5  C10 UNL     1     -23.559   6.337  27.633  1.00  0.00     0.310 C
HETATM    6  O3  UNL     1     -24.209   5.562  26.881  1.00  0.00    -0.262 OA
HETATM    7  N2  UNL     1     -23.605   6.107  29.020  1.00  0.00    -0.336 N
ATOM      8  H2  UNL     1     -23.085   6.725  29.642  1.00  0.00     0.164 HD
BRANCH   7   9
HETATM    9  C11 UNL     1     -24.371   5.016  29.592  1.00  0.00     0.230 C
BRANCH   9  10
HETATM   10  C12 UNL     1     -23.688   4.493  30.775  1.00  0.00     0.258 C
HETATM   11  N3  UNL     1     -24.388   4.051  31.925  1.00  0.00    -0.060 NA
HETATM   12  O4  UNL     1     -22.434   4.422  30.795  1.00  0.00    -0.274 OA
ENDBRANCH   9  10
BRANCH   9  13
HETATM   13  C13 UNL     1     -25.780   5.479  29.876  1.00  0.00     0.348 C
BRANCH  13  14
HETATM   14  N4  UNL     1     -26.722   5.007  28.893  1.00  0.00    -0.051 N
ATOM     15  H43 UNL     1     -26.292   4.321  28.273  1.00  0.00     0.277 HD
ATOM     16  H42 UNL     1     -27.435   4.416  29.321  1.00  0.00     0.277 HD
ATOM     17  H41 UNL     1     -27.144   5.768  28.363  1.00  0.00     0.277 HD
ENDBRANCH  13  14
BRANCH  13  18
HETATM   18  O5  UNL     1     -25.891   6.845  29.966  1.00  0.00    -0.368 OA
ATOM     19  H5  UNL     1     -25.672   7.181  30.827  1.00  0.00     0.212 HD
ENDBRANCH  13  18
ENDBRANCH   9  13
ENDBRANCH   7   9
ENDBRANCH   3   5
BRANCH   1  20
HETATM   20  C8  UNL     1     -21.128   8.219  25.341  1.00  0.00     0.215 C
BRANCH  20  21
HETATM   21  C7  UNL     1     -21.192   8.151  23.838  1.00  0.00     0.158 C
HETATM   22  C6  UNL     1     -22.387   7.357  23.354  1.00  0.00     0.037 C
HETATM   23  C5  UNL     1     -21.978   6.497  22.162  1.00  0.00     0.029 C
HETATM   24  C4  UNL     1     -21.363   7.349  21.070  1.00  0.00     0.171 C
HETATM   25  O1  UNL     1     -20.303   8.093  21.527  1.00  0.00    -0.356 OA
HETATM   26  C2  UNL     1     -20.634   9.358  21.960  1.00  0.00     0.157 C
HETATM   27  C1  UNL     1     -21.578  10.021  20.974  1.00  0.00     0.078 C
HETATM   28  C3  UNL     1     -19.345  10.183  21.953  1.00  0.00     0.078 C
HETATM   29  O8  UNL     1     -21.135   9.393  23.238  1.00  0.00    -0.348 OA
ENDBRANCH  20  21
BRANCH  20  30
HETATM   30  C14 UNL     1     -19.704   8.164  25.759  1.00  0.00     0.199 C
HETATM   31  O6  UNL     1     -19.331   8.187  26.961  1.00  0.00    -0.646 OA
HETATM   32  O7  UNL     1     -18.724   8.084  24.786  1.00  0.00    -0.646 OA
ENDBRANCH  20  30
ENDBRANCH   1  20
TORSDOF 9
ENDMDL