MODEL 4
REMARK VINA RESULT: -7.056293109      2.820      6.359
REMARK  10 active torsions:
REMARK  status: ('A' for Active; 'I' for Inactive)
REMARK    1  A    between atoms: C2_2  and  N1_4
REMARK    2  A    between atoms: C2_2  and  C4_8
REMARK       I    between atoms: C4_8  and  N2_10
REMARK    3  A    between atoms: C5_11  and  C6_12
REMARK    4  A    between atoms: C8_16  and  N3_17
REMARK    5  A    between atoms: C9_21  and  C10_22
REMARK    6  A    between atoms: C10_22  and  O5_24
REMARK    7  A    between atoms: O5_24  and  C11_25
REMARK    8  A    between atoms: C11_25  and  C12_26
REMARK    9  A    between atoms: C12_26  and  O6_28
REMARK   10  A    between atoms: C12_26  and  C14_30
ROOT
HETATM    1  C4  UNL     1     -21.994   4.879  27.758  1.00  0.00     0.257 C
HETATM    2  O1  UNL     1     -21.437   4.112  26.889  1.00  0.00    -0.271 OA
HETATM    3  N2  UNL     1     -22.811   5.930  27.267  1.00  0.00    -0.319 N
HETATM    4  C5  UNL     1     -23.573   6.874  28.043  1.00  0.00     0.191 C
HETATM    5  C7  UNL     1     -24.074   7.896  27.033  1.00  0.00     0.072 C
HETATM    6  C8  UNL     1     -24.216   7.045  25.784  1.00  0.00     0.218 C
HETATM    7  C9  UNL     1     -22.963   6.216  25.857  1.00  0.00     0.218 C
ENDROOT
BRANCH   7   8
HETATM    8  C10 UNL     1     -21.827   7.059  25.328  1.00  0.00     0.284 C
HETATM    9  O4  UNL     1     -20.770   7.071  25.997  1.00  0.00    -0.263 OA
BRANCH   8  10
HETATM   10  O5  UNL     1     -21.924   7.769  24.190  1.00  0.00    -0.316 OA
BRANCH  10  11
HETATM   11  C11 UNL     1     -21.063   7.920  23.160  1.00  0.00     0.227 C
BRANCH  11  12
HETATM   12  C12 UNL     1     -21.461   7.752  21.745  1.00  0.00     0.163 C
HETATM   13  C13 UNL     1     -22.907   7.756  21.399  1.00  0.00     0.060 C
BRANCH  12  14
HETATM   14  O6  UNL     1     -20.943   8.922  21.070  1.00  0.00    -0.377 OA
ATOM     15  H6  UNL     1     -20.942   8.692  20.148  1.00  0.00     0.211 HD
ENDBRANCH  12  14
BRANCH  12  16
HETATM   16  C14 UNL     1     -20.799   6.586  21.118  1.00  0.00     0.210 C
HETATM   17  O7  UNL     1     -21.055   6.279  19.932  1.00  0.00    -0.646 OA
HETATM   18  O8  UNL     1     -19.908   5.843  21.838  1.00  0.00    -0.646 OA
ENDBRANCH  12  16
ENDBRANCH  11  12
ENDBRANCH  10  11
ENDBRANCH   8  10
ENDBRANCH   7   8
BRANCH   6  19
HETATM   19  N3  UNL     1     -25.431   6.295  25.771  1.00  0.00    -0.072 N
ATOM     20  H33 UNL     1     -25.293   5.365  26.168  1.00  0.00     0.274 HD
ATOM     21  H32 UNL     1     -26.098   6.665  26.448  1.00  0.00     0.274 HD
ATOM     22  H31 UNL     1     -25.844   6.241  24.840  1.00  0.00     0.274 HD
ENDBRANCH   6  19
BRANCH   1  23
HETATM   23  C2  UNL     1     -21.693   4.543  29.144  1.00  0.00     0.196 C
HETATM   24  C1  UNL     1     -20.785   3.305  29.243  1.00  0.00     0.056 C
HETATM   25  C3  UNL     1     -20.813   5.680  29.701  1.00  0.00     0.056 C
BRANCH  23  26
HETATM   26  N1  UNL     1     -22.784   4.314  30.019  1.00  0.00    -0.062 N
ATOM     27  H13 UNL     1     -23.583   4.920  29.836  1.00  0.00     0.275 HD
ATOM     28  H12 UNL     1     -23.257   3.426  29.851  1.00  0.00     0.275 HD
ATOM     29  H11 UNL     1     -22.419   4.404  30.967  1.00  0.00     0.275 HD
ENDBRANCH  23  26
ENDBRANCH   1  23
BRANCH   4  30
HETATM   30  C6  UNL     1     -24.818   6.277  28.628  1.00  0.00     0.197 C
HETATM   31  O2  UNL     1     -25.592   7.020  29.275  1.00  0.00    -0.646 OA
HETATM   32  O3  UNL     1     -25.158   4.944  28.489  1.00  0.00    -0.646 OA
ENDBRANCH   4  30
TORSDOF 10
ENDMDL