MODEL 4
REMARK VINA RESULT: -7.856455144      4.321      5.084
REMARK  7 active torsions:
REMARK  status: ('A' for Active; 'I' for Inactive)
REMARK       I    between atoms: C1_4  and  N3_6
REMARK    1  A    between atoms: N3_6  and  S1_8
REMARK    2  A    between atoms: S1_8  and  C2_11
REMARK    3  A    between atoms: C5_14  and  N4_15
REMARK    4  A    between atoms: C6_17  and  C7_18
REMARK    5  A    between atoms: C7_18  and  N5_19
REMARK       I    between atoms: N5_19  and  C8_21
REMARK       I    between atoms: C8_21  and  N8_27
REMARK    6  A    between atoms: N6_22  and  N7_24
REMARK    7  A    between atoms: N8_27  and  N9_29
ROOT
HETATM    1  N4  UNL     1     -21.956   7.313  28.692  1.00  0.00    -0.368 N
ATOM      2  H4  UNL     1     -22.967   7.368  28.810  1.00  0.00     0.165 HD
HETATM    3  C6  UNL     1     -21.307   6.308  29.141  1.00  0.00     0.081 C
ENDROOT
BRANCH   1   4
HETATM    4  C5  UNL     1     -21.253   8.351  28.028  1.00  0.00     0.031 A
HETATM    5  C4  UNL     1     -20.073   8.058  27.384  1.00  0.00     0.031 A
HETATM    6  C3  UNL     1     -19.325   8.990  26.717  1.00  0.00     0.027 A
HETATM    7  C2  UNL     1     -19.742  10.302  26.664  1.00  0.00     0.080 A
HETATM    8  C10 UNL     1     -20.920  10.624  27.301  1.00  0.00     0.027 A
HETATM    9  C9  UNL     1     -21.662   9.667  27.972  1.00  0.00     0.031 A
BRANCH   7  10
HETATM   10  S1  UNL     1     -18.776  11.473  25.810  1.00  0.00     0.265 S
HETATM   11  O1  UNL     1     -18.318  10.850  24.510  1.00  0.00    -0.200 OA
HETATM   12  O2  UNL     1     -19.576  12.686  25.498  1.00  0.00    -0.200 OA
BRANCH  10  13
HETATM   13  N3  UNL     1     -17.397  11.851  26.786  1.00  0.00    -0.254 N
HETATM   14  C1  UNL     1     -16.151  11.237  26.593  1.00  0.00     0.195 C
HETATM   15  N1  UNL     1     -15.847  10.060  27.043  1.00  0.00    -0.373 N
HETATM   16  N2  UNL     1     -15.146  11.921  25.868  1.00  0.00    -0.063 NA
ATOM     17  H12 UNL     1     -14.941   9.613  26.903  1.00  0.00     0.158 HD
ATOM     18  H11 UNL     1     -16.571   9.567  27.566  1.00  0.00     0.158 HD
ATOM     19  H3  UNL     1     -17.493  12.546  27.526  1.00  0.00     0.181 HD
ENDBRANCH  10  13
ENDBRANCH   7  10
ENDBRANCH   1   4
BRANCH   3  20
HETATM   20  C7  UNL     1     -22.067   5.221  29.840  1.00  0.00     0.182 C
BRANCH  20  21
HETATM   21  N5  UNL     1     -22.292   4.162  28.883  1.00  0.00    -0.219 N
HETATM   22  C8  UNL     1     -23.521   4.104  28.175  1.00  0.00     0.711 C
HETATM   23  N6  UNL     1     -23.512   3.685  26.940  1.00  0.00    -0.137 N
HETATM   24  N8  UNL     1     -24.691   4.500  28.836  1.00  0.00    -0.071 N
ATOM     25  H6  UNL     1     -24.388   3.638  26.420  1.00  0.00     0.205 HD
ATOM     26  H8  UNL     1     -25.188   3.849  29.443  1.00  0.00     0.212 HD
ATOM     27  H5  UNL     1     -21.572   3.460  28.716  1.00  0.00     0.178 HD
BRANCH  23  28
HETATM   28  N7  UNL     1     -22.331   3.303  26.325  1.00  0.00    -0.331 N
ATOM     29  H72 UNL     1     -21.609   4.008  26.178  1.00  0.00     0.177 HD
ATOM     30  H71 UNL     1     -22.183   2.340  26.025  1.00  0.00     0.177 HD
ENDBRANCH  23  28
BRANCH  24  31
HETATM   31  N9  UNL     1     -25.166   5.801  28.649  1.00  0.00    -0.024 N
HETATM   32  O3  UNL     1     -24.816   6.504  27.661  1.00  0.00    -0.516 OA
HETATM   33  O4  UNL     1     -26.036   6.374  29.530  1.00  0.00    -0.516 OA
ENDBRANCH  24  31
ENDBRANCH  20  21
ENDBRANCH   3  20
TORSDOF 7
ENDMDL