MODEL 1
REMARK VINA RESULT: -7.512470108      0.000      0.000
REMARK  8 active torsions:
REMARK  status: ('A' for Active; 'I' for Inactive)
REMARK       I    between atoms: C1_2  and  N2_4
REMARK    1  A    between atoms: N2_4  and  N3_6
REMARK       I    between atoms: N3_6  and  C2_8
REMARK    2  A    between atoms: C2_8  and  C3_10
REMARK    3  A    between atoms: C3_10  and  N4_11
REMARK    4  A    between atoms: N4_11  and  N5_12
REMARK    5  A    between atoms: N5_12  and  S1_14
REMARK    6  A    between atoms: S1_14  and  C4_17
REMARK    7  A    between atoms: C7_20  and  S2_21
REMARK    8  A    between atoms: S2_21  and  N6_22
ROOT
HETATM    1  S1  UNL     1     -22.000   5.380  24.724  1.00  0.00     0.280 S
HETATM    2  O3  UNL     1     -22.860   4.375  24.048  1.00  0.00    -0.199 OA
HETATM    3  O4  UNL     1     -20.627   4.829  25.033  1.00  0.00    -0.199 OA
ENDROOT
BRANCH   1   4
HETATM    4  N5  UNL     1     -22.737   5.984  26.139  1.00  0.00    -0.226 N
ATOM      5  H5  UNL     1     -22.422   5.817  27.094  1.00  0.00     0.195 HD
BRANCH   4   6
HETATM    6  N4  UNL     1     -23.868   6.762  25.758  1.00  0.00    -0.122 NA
BRANCH   6   7
HETATM    7  C3  UNL     1     -23.991   7.878  26.714  1.00  0.00     0.240 C
BRANCH   7   8
HETATM    8  C2  UNL     1     -23.966   7.340  28.087  1.00  0.00     0.252 C
HETATM    9  N3  UNL     1     -25.154   6.991  28.766  1.00  0.00    -0.265 N
ATOM     10  H3  UNL     1     -26.053   7.112  28.300  1.00  0.00     0.190 HD
HETATM   11  O2  UNL     1     -22.863   7.188  28.669  1.00  0.00    -0.270 OA
BRANCH   9  12
HETATM   12  N2  UNL     1     -25.115   6.478  30.080  1.00  0.00    -0.251 N
HETATM   13  C1  UNL     1     -25.305   5.103  30.270  1.00  0.00     0.347 C
HETATM   14  N1  UNL     1     -25.274   4.527  31.576  1.00  0.00    -0.038 NA
HETATM   15  O1  UNL     1     -25.512   4.305  29.320  1.00  0.00    -0.249 OA
ATOM     16  H2  UNL     1     -24.951   7.096  30.875  1.00  0.00     0.191 HD
ENDBRANCH   9  12
ENDBRANCH   7   8
ENDBRANCH   6   7
ENDBRANCH   4   6
ENDBRANCH   1   4
BRANCH   1  17
HETATM   17  C4  UNL     1     -21.742   6.718  23.598  1.00  0.00     0.122 A
HETATM   18  C5  UNL     1     -22.012   6.756  22.257  1.00  0.00     0.035 A
HETATM   19  C6  UNL     1     -21.730   7.887  21.601  1.00  0.00     0.035 A
HETATM   20  C7  UNL     1     -21.194   8.918  22.323  1.00  0.00     0.121 A
HETATM   21  S3  UNL     1     -21.100   8.277  23.897  1.00  0.00    -0.063 SA
BRANCH  20  22
HETATM   22  S2  UNL     1     -20.714  10.529  21.778  1.00  0.00     0.263 S
HETATM   23  O5  UNL     1     -20.794  11.524  22.906  1.00  0.00    -0.200 OA
HETATM   24  O6  UNL     1     -19.299  10.508  21.278  1.00  0.00    -0.200 OA
BRANCH  22  25
HETATM   25  N6  UNL     1     -21.725  11.077  20.513  1.00  0.00    -0.324 N
ATOM     26  H62 UNL     1     -22.160  10.458  19.828  1.00  0.00     0.169 HD
ATOM     27  H61 UNL     1     -21.828  12.092  20.540  1.00  0.00     0.169 HD
ENDBRANCH  22  25
ENDBRANCH  20  22
ENDBRANCH   1  17
TORSDOF 8
ENDMDL