MODEL 1
REMARK VINA RESULT: -7.280584110      0.000      0.000
REMARK  11 active torsions:
REMARK  status: ('A' for Active; 'I' for Inactive)
REMARK    1  A    between atoms: C2_2  and  O1_3
REMARK    2  A    between atoms: C2_2  and  C3_5
REMARK    3  A    between atoms: C3_5  and  O2_6
REMARK    4  A    between atoms: C3_5  and  C4_8
REMARK    5  A    between atoms: C4_8  and  N1_9
REMARK    6  A    between atoms: C4_8  and  C5_13
REMARK    7  A    between atoms: C5_13  and  O3_14
REMARK    8  A    between atoms: C5_13  and  C6_16
REMARK    9  A    between atoms: C6_16  and  N2_19
REMARK   10  A    between atoms: N2_19  and  C9_21
REMARK   11  A    between atoms: C15_30  and  O6_31
ROOT
HETATM    1  C6  UNL     1     -22.317   6.301  25.342  1.00  0.00     0.046 C
HETATM    2  C7  UNL     1     -22.785   7.023  24.085  1.00  0.00     0.040 C
HETATM    3  C8  UNL     1     -21.696   4.998  24.778  1.00  0.00     0.040 C
ENDROOT
BRANCH   1   4
HETATM    4  C5  UNL     1     -23.572   5.986  26.129  1.00  0.00     0.178 C
BRANCH   4   5
HETATM    5  C4  UNL     1     -23.900   6.866  27.258  1.00  0.00     0.245 C
BRANCH   5   6
HETATM    6  C3  UNL     1     -23.939   6.345  28.637  1.00  0.00     0.179 C
BRANCH   6   7
HETATM    7  C2  UNL     1     -25.267   6.166  29.288  1.00  0.00     0.145 C
HETATM    8  C1  UNL     1     -25.269   5.131  30.412  1.00  0.00     0.042 C
BRANCH   7   9
HETATM    9  O1  UNL     1     -25.912   7.285  29.721  1.00  0.00    -0.393 OA
ATOM     10  H1  UNL     1     -25.808   7.969  29.071  1.00  0.00     0.210 HD
ENDBRANCH   7   9
ENDBRANCH   6   7
BRANCH   6  11
HETATM   11  O2  UNL     1     -23.319   7.386  29.431  1.00  0.00    -0.391 OA
ATOM     12  H2  UNL     1     -22.597   6.936  29.855  1.00  0.00     0.210 HD
ENDBRANCH   6  11
ENDBRANCH   5   6
BRANCH   5  13
HETATM   13  N1  UNL     1     -25.164   7.598  27.028  1.00  0.00    -0.070 N
ATOM     14  H13 UNL     1     -25.798   7.562  27.827  1.00  0.00     0.274 HD
ATOM     15  H12 UNL     1     -25.040   8.611  27.004  1.00  0.00     0.274 HD
ATOM     16  H11 UNL     1     -25.579   7.227  26.173  1.00  0.00     0.274 HD
ENDBRANCH   5  13
ENDBRANCH   4   5
BRANCH   4  17
HETATM   17  O3  UNL     1     -23.701   4.625  26.347  1.00  0.00    -0.391 OA
ATOM     18  H3  UNL     1     -22.961   4.083  26.099  1.00  0.00     0.210 HD
ENDBRANCH   4  17
ENDBRANCH   1   4
BRANCH   1  19
HETATM   19  N2  UNL     1     -21.293   6.888  26.071  1.00  0.00    -0.404 N
ATOM     20  H2  UNL     1     -20.799   6.301  26.743  1.00  0.00     0.154 HD
BRANCH  19  21
HETATM   21  C9  UNL     1     -20.878   8.235  25.955  1.00  0.00     0.108 C
HETATM   22  C10 UNL     1     -19.595   8.376  25.254  1.00  0.00     0.052 C
HETATM   23  C11 UNL     1     -18.878   9.689  25.413  1.00  0.00     0.059 C
HETATM   24  C12 UNL     1     -18.571  10.308  24.045  1.00  0.00     0.032 C
HETATM   25  C13 UNL     1     -17.519   9.500  26.058  1.00  0.00     0.032 C
HETATM   26  S1  UNL     1     -19.785  10.916  26.298  1.00  0.00     0.154 S
HETATM   27  O4  UNL     1     -20.554  11.792  25.339  1.00  0.00    -0.227 OA
HETATM   28  O5  UNL     1     -18.767  11.830  26.966  1.00  0.00    -0.227 OA
HETATM   29  C14 UNL     1     -20.917  10.260  27.458  1.00  0.00     0.174 C
HETATM   30  C15 UNL     1     -20.902   8.769  27.376  1.00  0.00     0.154 C
BRANCH  30  31
HETATM   31  O6  UNL     1     -19.965   8.160  28.206  1.00  0.00    -0.393 OA
ATOM     32  H6  UNL     1     -19.179   8.679  28.326  1.00  0.00     0.210 HD
ENDBRANCH  30  31
ENDBRANCH  19  21
ENDBRANCH   1  19
TORSDOF 11
ENDMDL