MODEL 2
REMARK VINA RESULT: -8.062400037      3.024      5.048
REMARK  7 active torsions:
REMARK  status: ('A' for Active; 'I' for Inactive)
REMARK       I    between atoms: C1_2  and  N1_3
REMARK    1  A    between atoms: C1_2  and  C11_23
REMARK    2  A    between atoms: N1_3  and  C2_5
REMARK    3  A    between atoms: C2_5  and  C3_6
REMARK    4  A    between atoms: C2_5  and  C4_14
REMARK       I    between atoms: C3_6  and  N2_8
REMARK    5  A    between atoms: N2_8  and  S1_10
REMARK    6  A    between atoms: C4_14  and  O6_15
REMARK    7  A    between atoms: C4_14  and  C5_17
ROOT
HETATM    1  C2  UNL     1     -23.003   6.468  26.152  1.00  0.00     0.138 C
ENDROOT
BRANCH   1   2
HETATM    2  N1  UNL     1     -22.619   7.877  26.090  1.00  0.00    -0.317 N
HETATM    3  C1  UNL     1     -21.319   8.306  26.359  1.00  0.00     0.270 C
HETATM    4  O1  UNL     1     -20.440   7.464  26.668  1.00  0.00    -0.269 OA
ATOM      5  H1  UNL     1     -23.325   8.570  25.841  1.00  0.00     0.169 HD
BRANCH   3   6
HETATM    6  C11 UNL     1     -20.933   9.731  26.296  1.00  0.00     0.385 C
HETATM    7  N3  UNL     1     -19.623   9.908  26.909  1.00  0.00    -0.046 N
HETATM    8  C12 UNL     1     -19.368  11.355  26.960  1.00  0.00     0.252 C
ATOM      9  H32 UNL     1     -19.540   9.453  27.819  1.00  0.00     0.279 HD
ATOM     10  H31 UNL     1     -18.885   9.387  26.437  1.00  0.00     0.279 HD
HETATM   11  C13 UNL     1     -19.303  11.831  25.517  1.00  0.00     0.158 C
HETATM   12  N4  UNL     1     -20.592  11.548  24.908  1.00  0.00    -0.144 NA
HETATM   13  N5  UNL     1     -20.843  10.185  24.913  1.00  0.00    -0.105 NA
ENDBRANCH   3   6
ENDBRANCH   1   2
BRANCH   1  14
HETATM   14  C3  UNL     1     -24.143   6.183  26.988  1.00  0.00     0.286 C
HETATM   15  O2  UNL     1     -25.300   6.186  26.496  1.00  0.00    -0.265 OA
HETATM   16  N2  UNL     1     -23.985   5.905  28.366  1.00  0.00    -0.230 N
ATOM     17  H2  UNL     1     -23.039   5.907  28.749  1.00  0.00     0.184 HD
BRANCH  16  18
HETATM   18  S1  UNL     1     -25.281   5.563  29.434  1.00  0.00     0.211 S
HETATM   19  O3  UNL     1     -26.061   4.349  28.969  1.00  0.00    -0.578 OA
HETATM   20  O4  UNL     1     -24.712   5.252  30.794  1.00  0.00    -0.578 OA
HETATM   21  O5  UNL     1     -26.366   6.808  29.601  1.00  0.00    -0.578 OA
ENDBRANCH  16  18
ENDBRANCH   1  14
BRANCH   1  22
HETATM   22  C4  UNL     1     -22.831   5.824  24.857  1.00  0.00     0.108 C
BRANCH  22  23
HETATM   23  O6  UNL     1     -23.411   4.641  24.762  1.00  0.00    -0.357 OA
ATOM     24  H6  UNL     1     -23.651   4.260  25.599  1.00  0.00     0.217 HD
ENDBRANCH  22  23
BRANCH  22  25
HETATM   25  C5  UNL     1     -22.157   6.216  23.653  1.00  0.00    -0.001 A
HETATM   26  C6  UNL     1     -22.615   7.064  22.672  1.00  0.00     0.014 A
HETATM   27  C7  UNL     1     -21.906   7.339  21.494  1.00  0.00     0.001 A
HETATM   28  C8  UNL     1     -20.695   6.757  21.265  1.00  0.00     0.000 A
HETATM   29  C9  UNL     1     -20.202   5.912  22.212  1.00  0.00     0.001 A
HETATM   30  C10 UNL     1     -20.904   5.646  23.367  1.00  0.00     0.014 A
ENDBRANCH  22  25
ENDBRANCH   1  22
TORSDOF 7
ENDMDL