MODEL 4
REMARK VINA RESULT: -7.597448195      2.750      6.626
REMARK  8 active torsions:
REMARK  status: ('A' for Active; 'I' for Inactive)
REMARK    1  A    between atoms: C2_2  and  C4_4
REMARK    2  A    between atoms: C4_4  and  N1_5
REMARK    3  A    between atoms: C4_4  and  C5_9
REMARK    4  A    between atoms: C5_9  and  O1_10
REMARK    5  A    between atoms: C5_9  and  N2_12
REMARK    6  A    between atoms: N2_12  and  C6_14
REMARK    7  A    between atoms: C8_16  and  N3_17
REMARK    8  A    between atoms: N3_17  and  S1_19
REMARK       I    between atoms: N4_25  and  C11_27
ROOT
HETATM    1  C6  UNL     1     -22.409   8.692  26.266  1.00  0.00     0.158 C
HETATM    2  C7  UNL     1     -22.095   7.968  25.014  1.00  0.00     0.088 C
HETATM    3  C8  UNL     1     -22.510   6.491  25.183  1.00  0.00     0.241 C
HETATM    4  O4  UNL     1     -23.398   6.576  26.286  1.00  0.00    -0.311 OA
HETATM    5  C10 UNL     1     -22.866   7.556  27.153  1.00  0.00     0.145 C
HETATM    6  N4  UNL     1     -22.769   7.543  28.414  1.00  0.00    -0.312 N
ATOM      7  H4  UNL     1     -22.351   8.356  28.866  1.00  0.00     0.170 HD
HETATM    8  C11 UNL     1     -23.197   6.482  29.239  1.00  0.00     0.203 C
HETATM    9  N5  UNL     1     -22.302   5.452  29.599  1.00  0.00    -0.062 NA
HETATM   10  N6  UNL     1     -24.398   6.458  29.659  1.00  0.00    -0.267 N
ATOM     11  H6  UNL     1     -25.021   7.216  29.381  1.00  0.00     0.180 HD
HETATM   12  C12 UNL     1     -24.906   5.466  30.467  1.00  0.00     0.184 C
HETATM   13  N7  UNL     1     -25.325   4.613  31.155  1.00  0.00    -0.172 NA
ENDROOT
BRANCH   1  14
HETATM   14  N2  UNL     1     -21.383   9.446  26.819  1.00  0.00    -0.383 N
ATOM     15  H2  UNL     1     -21.639  10.222  27.429  1.00  0.00     0.156 HD
BRANCH  14  16
HETATM   16  C5  UNL     1     -20.032   9.217  26.598  1.00  0.00     0.245 C
BRANCH  16  17
HETATM   17  C4  UNL     1     -19.046  10.309  26.533  1.00  0.00     0.234 C
BRANCH  17  18
HETATM   18  C2  UNL     1     -18.614  10.579  25.070  1.00  0.00     0.012 C
HETATM   19  C1  UNL     1     -18.700   9.278  24.278  1.00  0.00     0.012 C
HETATM   20  C3  UNL     1     -19.678  11.504  24.508  1.00  0.00     0.012 C
ENDBRANCH  17  18
BRANCH  17  21
HETATM   21  N1  UNL     1     -19.444  11.589  27.033  1.00  0.00    -0.071 N
ATOM     22  H13 UNL     1     -18.820  12.351  26.769  1.00  0.00     0.274 HD
ATOM     23  H12 UNL     1     -20.281  11.967  26.589  1.00  0.00     0.274 HD
ATOM     24  H11 UNL     1     -19.533  11.455  28.041  1.00  0.00     0.274 HD
ENDBRANCH  17  21
ENDBRANCH  16  17
BRANCH  16  25
HETATM   25  O1  UNL     1     -19.599   8.381  27.701  1.00  0.00    -0.375 OA
ATOM     26  H1  UNL     1     -20.377   8.243  28.228  1.00  0.00     0.212 HD
ENDBRANCH  16  25
ENDBRANCH  14  16
ENDBRANCH   1  14
BRANCH   3  27
HETATM   27  N3  UNL     1     -21.315   5.763  25.511  1.00  0.00    -0.292 N
ATOM     28  H3  UNL     1     -20.494   6.217  25.912  1.00  0.00     0.174 HD
BRANCH  27  29
HETATM   29  S1  UNL     1     -21.357   4.099  25.185  1.00  0.00     0.224 S
HETATM   30  C9  UNL     1     -21.690   3.245  26.732  1.00  0.00     0.186 C
HETATM   31  O2  UNL     1     -22.461   3.732  24.235  1.00  0.00    -0.206 OA
HETATM   32  O3  UNL     1     -20.033   3.627  24.708  1.00  0.00    -0.206 OA
ENDBRANCH  27  29
ENDBRANCH   3  27
TORSDOF 8
ENDMDL