MODEL 3
REMARK VINA RESULT: -11.179933029      4.617      7.881
REMARK  6 active torsions:
REMARK  status: ('A' for Active; 'I' for Inactive)
REMARK    1  A    between atoms: C5_6  and  N2_7
REMARK    2  A    between atoms: N2_7  and  C6_9
REMARK    3  A    between atoms: N6_21  and  C12_22
REMARK    4  A    between atoms: C22_32  and  C23_33
REMARK    5  A    between atoms: C26_36  and  S1_37
REMARK    6  A    between atoms: S1_37  and  N7_38
ROOT
HETATM    1  N1  UNL     1       9.374  -2.042  -6.794  1.00  0.00    -0.191 NA
HETATM    2  C1  UNL     1       9.303  -3.210  -6.711  1.00  0.00     0.100 C
HETATM    3  C2  UNL     1       9.245  -4.640  -6.602  1.00  0.00     0.055 A
HETATM    4  C3  UNL     1      10.002  -5.438  -7.439  1.00  0.00     0.026 A
HETATM    5  C4  UNL     1       9.948  -6.811  -7.315  1.00  0.00     0.031 A
HETATM    6  C5  UNL     1       9.154  -7.434  -6.369  1.00  0.00     0.034 A
HETATM    7  C21 UNL     1       8.413  -6.604  -5.552  1.00  0.00     0.043 A
HETATM    8  C22 UNL     1       8.451  -5.229  -5.658  1.00  0.00    -0.003 A
ENDROOT
BRANCH   8   9
HETATM    9  C23 UNL     1       7.592  -4.460  -4.726  1.00  0.00    -0.024 A
HETATM   10  C24 UNL     1       8.118  -4.075  -3.513  1.00  0.00     0.014 A
HETATM   11  C25 UNL     1       7.317  -3.371  -2.645  1.00  0.00     0.026 A
HETATM   12  C26 UNL     1       6.016  -3.039  -2.938  1.00  0.00     0.079 A
HETATM   13  C27 UNL     1       5.525  -3.441  -4.155  1.00  0.00     0.026 A
HETATM   14  C28 UNL     1       6.292  -4.140  -5.042  1.00  0.00     0.014 A
BRANCH  12  15
HETATM   15  S1  UNL     1       5.016  -2.134  -1.799  1.00  0.00     0.256 S
HETATM   16  O1  UNL     1       3.612  -2.675  -1.855  1.00  0.00    -0.201 OA
HETATM   17  O2  UNL     1       5.043  -0.698  -2.196  1.00  0.00    -0.201 OA
BRANCH  15  18
HETATM   18  N7  UNL     1       5.673  -2.398  -0.227  1.00  0.00    -0.324 N
ATOM     19  H72 UNL     1       6.436  -3.036  -0.000  1.00  0.00     0.169 HD
ATOM     20  H71 UNL     1       5.156  -1.801   0.417  1.00  0.00     0.169 HD
ENDBRANCH  15  18
ENDBRANCH  12  15
ENDBRANCH   8   9
BRANCH   6  21
HETATM   21  N2  UNL     1       9.131  -8.852  -6.279  1.00  0.00    -0.342 N
ATOM     22  H2  UNL     1       8.311  -9.388  -6.566  1.00  0.00     0.167 HD
BRANCH  21  23
HETATM   23  C6  UNL     1      10.185  -9.436  -5.820  1.00  0.00     0.119 A
HETATM   24  N3  UNL     1      11.199  -9.844  -6.631  1.00  0.00    -0.338 N
HETATM   25  C7  UNL     1      12.238 -10.437  -6.029  1.00  0.00     0.182 A
ATOM     26  H3  UNL     1      11.170  -9.706  -7.641  1.00  0.00     0.168 HD
HETATM   27  N4  UNL     1      12.334 -10.647  -4.707  1.00  0.00    -0.352 N
HETATM   28  C8  UNL     1      11.347 -10.253  -3.881  1.00  0.00     0.048 A
ATOM     29  H4  UNL     1      13.161 -11.108  -4.326  1.00  0.00     0.166 HD
HETATM   30  C9  UNL     1      11.379 -10.435  -2.528  1.00  0.00     0.045 A
HETATM   31  C20 UNL     1      10.254  -9.636  -4.459  1.00  0.00     0.037 A
HETATM   32  C10 UNL     1      10.322 -10.000  -1.755  1.00  0.00     0.012 A
HETATM   33  C11 UNL     1      10.069 -10.042  -0.379  1.00  0.00     0.121 A
HETATM   34  C18 UNL     1       9.208  -9.377  -2.289  1.00  0.00     0.069 A
HETATM   35  N5  UNL     1       8.864  -9.466  -0.157  1.00  0.00    -0.304 N
HETATM   36  N6  UNL     1       8.346  -9.066  -1.305  1.00  0.00    -0.256 N
ATOM     37  H5  UNL     1       8.424  -9.357   0.757  1.00  0.00     0.186 HD
HETATM   38  C19 UNL     1       9.210  -9.210  -3.667  1.00  0.00     0.050 A
BRANCH  36  39
HETATM   39  C12 UNL     1       7.086  -8.413  -1.483  1.00  0.00     0.057 A
HETATM   40  C13 UNL     1       6.947  -7.063  -1.219  1.00  0.00     0.031 A
HETATM   41  C14 UNL     1       5.746  -6.406  -1.382  1.00  0.00     0.002 A
HETATM   42  C15 UNL     1       4.652  -7.117  -1.820  1.00  0.00     0.000 A
HETATM   43  C16 UNL     1       4.773  -8.463  -2.088  1.00  0.00     0.002 A
HETATM   44  C17 UNL     1       5.984  -9.097  -1.918  1.00  0.00     0.031 A
ENDBRANCH  36  39
ENDBRANCH  21  23
ENDBRANCH   6  21
TORSDOF 6
ENDMDL