MODEL 1
REMARK VINA RESULT: -10.871911653      0.000      0.000
REMARK  5 active torsions:
REMARK  status: ('A' for Active; 'I' for Inactive)
REMARK       I    between atoms: C2_2  and  N1_4
REMARK    1  A    between atoms: N1_4  and  N2_6
REMARK       I    between atoms: N2_6  and  C3_8
REMARK    2  A    between atoms: C3_8  and  C4_10
REMARK    3  A    between atoms: C7_13  and  N3_14
REMARK    4  A    between atoms: C8_15  and  N4_16
REMARK    5  A    between atoms: C9_17  and  C10_18
ROOT
HETATM    1  N3  UNL     1       7.005  -5.832  -3.521  1.00  0.00    -0.110 N
HETATM    2  C8  UNL     1       6.799  -6.900  -2.758  1.00  0.00     0.701 A
HETATM    3  N6  UNL     1       5.806  -6.815  -1.804  1.00  0.00    -0.190 N
ATOM      4  H6  UNL     1       5.630  -7.622  -1.207  1.00  0.00     0.184 HD
HETATM    5  C22 UNL     1       5.063  -5.714  -1.632  1.00  0.00     0.065 A
HETATM    6  C23 UNL     1       4.065  -5.646  -0.667  1.00  0.00     0.031 A
HETATM    7  C24 UNL     1       3.317  -4.508  -0.509  1.00  0.00     0.002 A
HETATM    8  C25 UNL     1       3.510  -3.380  -1.290  1.00  0.00     0.001 A
HETATM    9  C26 UNL     1       4.499  -3.454  -2.245  1.00  0.00     0.019 A
HETATM   10  C27 UNL     1       5.269  -4.600  -2.419  1.00  0.00     0.060 A
HETATM   11  C28 UNL     1       6.254  -4.687  -3.364  1.00  0.00     0.279 A
HETATM   12  O3  UNL     1       6.482  -3.689  -4.113  1.00  0.00    -0.266 OA
ENDROOT
BRANCH   2  13
HETATM   13  N4  UNL     1       7.561  -8.083  -2.858  1.00  0.00    -0.129 N
HETATM   14  C9  UNL     1       7.382  -9.128  -3.664  1.00  0.00     0.140 A
HETATM   15  N5  UNL     1       8.393 -10.030  -3.398  1.00  0.00    -0.339 N
HETATM   16  C16 UNL     1       9.196  -9.567  -2.439  1.00  0.00     0.061 A
ATOM     17  H5  UNL     1       8.511 -10.927  -3.869  1.00  0.00     0.167 HD
HETATM   18  C17 UNL     1      10.321 -10.055  -1.793  1.00  0.00     0.032 A
HETATM   19  C21 UNL     1       8.667  -8.340  -2.102  1.00  0.00     0.085 A
HETATM   20  C18 UNL     1      10.911  -9.314  -0.811  1.00  0.00     0.002 A
HETATM   21  C19 UNL     1      10.399  -8.092  -0.461  1.00  0.00     0.002 A
HETATM   22  C20 UNL     1       9.284  -7.623  -1.112  1.00  0.00     0.033 A
BRANCH  14  23
HETATM   23  C10 UNL     1       6.385  -9.446  -4.666  1.00  0.00     0.009 A
HETATM   24  C11 UNL     1       6.580  -9.410  -6.022  1.00  0.00     0.015 A
HETATM   25  C12 UNL     1       5.581  -9.750  -6.934  1.00  0.00     0.001 A
HETATM   26  C13 UNL     1       4.337 -10.139  -6.505  1.00  0.00     0.000 A
HETATM   27  C14 UNL     1       4.123 -10.181  -5.153  1.00  0.00     0.001 A
HETATM   28  C15 UNL     1       5.118  -9.844  -4.244  1.00  0.00     0.015 A
ENDBRANCH  14  23
ENDBRANCH   2  13
BRANCH   1  29
HETATM   29  C7  UNL     1       8.014  -5.797  -4.527  1.00  0.00     0.060 A
HETATM   30  C6  UNL     1       7.798  -6.156  -5.841  1.00  0.00     0.032 A
HETATM   31  C5  UNL     1       8.783  -6.146  -6.812  1.00  0.00     0.019 A
HETATM   32  C4  UNL     1      10.069  -5.765  -6.501  1.00  0.00     0.033 A
HETATM   33  C30 UNL     1      10.319  -5.399  -5.191  1.00  0.00     0.019 A
HETATM   34  C29 UNL     1       9.321  -5.417  -4.243  1.00  0.00     0.032 A
BRANCH  32  35
HETATM   35  C3  UNL     1      11.138  -5.741  -7.495  1.00  0.00     0.270 C
HETATM   36  N2  UNL     1      11.048  -5.074  -8.730  1.00  0.00    -0.263 N
ATOM     37  H2  UNL     1      10.192  -4.572  -8.966  1.00  0.00     0.190 HD
HETATM   38  O2  UNL     1      12.219  -6.359  -7.230  1.00  0.00    -0.266 OA
BRANCH  36  39
HETATM   39  N1  UNL     1      12.102  -5.085  -9.638  1.00  0.00    -0.268 N
HETATM   40  C2  UNL     1      12.139  -6.061 -10.672  1.00  0.00     0.232 C
HETATM   41  C1  UNL     1      13.254  -6.065 -11.624  1.00  0.00     0.119 C
HETATM   42  O1  UNL     1      11.222  -6.923 -10.781  1.00  0.00    -0.272 OA
ATOM     43  H1  UNL     1      12.848  -4.394  -9.563  1.00  0.00     0.190 HD
ENDBRANCH  36  39
ENDBRANCH  32  35
ENDBRANCH   1  29
TORSDOF 5
ENDMDL