MODEL 1
REMARK VINA RESULT: -11.363667139      0.000      0.000
REMARK  5 active torsions:
REMARK  status: ('A' for Active; 'I' for Inactive)
REMARK    1  A    between atoms: N1_1  and  C1_4
REMARK    2  A    between atoms: N3_9  and  C4_10
REMARK    3  A    between atoms: N4_17  and  C11_18
REMARK    4  A    between atoms: C17_24  and  N5_25
REMARK    5  A    between atoms: N6_28  and  C20_29
ROOT
HETATM    1  C11 UNL     1       6.552  -6.987  -1.876  1.00  0.00     0.103 A
HETATM    2  C12 UNL     1       5.260  -7.072  -1.379  1.00  0.00     0.049 A
HETATM    3  C13 UNL     1       4.421  -5.990  -1.270  1.00  0.00     0.017 A
HETATM    4  C14 UNL     1       4.916  -4.752  -1.688  1.00  0.00    -0.009 A
HETATM    5  C15 UNL     1       4.153  -3.626  -1.617  1.00  0.00     0.016 A
HETATM    6  C16 UNL     1       4.665  -2.422  -2.038  1.00  0.00     0.030 A
HETATM    7  C17 UNL     1       5.942  -2.273  -2.543  1.00  0.00     0.032 A
HETATM    8  C27 UNL     1       6.692  -3.440  -2.601  1.00  0.00     0.059 A
HETATM    9  C28 UNL     1       6.197  -4.660  -2.183  1.00  0.00     0.046 A
HETATM   10  N8  UNL     1       6.981  -5.776  -2.266  1.00  0.00    -0.342 N
ATOM     11  H8  UNL     1       7.926  -5.686  -2.637  1.00  0.00     0.167 HD
ENDROOT
BRANCH   1  12
HETATM   12  N4  UNL     1       7.364  -8.146  -1.972  1.00  0.00    -0.361 N
HETATM   13  C10 UNL     1       7.475  -8.840  -3.220  1.00  0.00     0.183 C
HETATM   14  C3  UNL     1       8.654  -9.730  -3.296  1.00  0.00     0.054 A
HETATM   15  C2  UNL     1       9.092 -10.349  -2.156  1.00  0.00     0.015 A
HETATM   16  N2  UNL     1       9.477 -10.124  -4.261  1.00  0.00    -0.294 N
HETATM   17  C1  UNL     1      10.196 -11.115  -2.488  1.00  0.00     0.129 A
HETATM   18  C30 UNL     1       8.359 -10.093  -0.889  1.00  0.00     0.064 C
HETATM   19  N3  UNL     1      10.404 -10.950  -3.803  1.00  0.00    -0.240 N
HETATM   20  C29 UNL     1       8.059  -8.610  -0.804  1.00  0.00     0.129 C
ATOM     21  H2  UNL     1       9.404  -9.826  -5.234  1.00  0.00     0.187 HD
BRANCH  17  22
HETATM   22  N1  UNL     1      10.889 -11.844  -1.710  1.00  0.00    -0.384 N
ATOM     23  H12 UNL     1      11.464 -11.513  -0.935  1.00  0.00     0.157 HD
ATOM     24  H11 UNL     1      10.985 -12.860  -1.736  1.00  0.00     0.157 HD
ENDBRANCH  17  22
BRANCH  19  25
HETATM   25  C4  UNL     1      11.405 -11.507  -4.649  1.00  0.00     0.058 A
HETATM   26  C5  UNL     1      11.432 -12.856  -4.968  1.00  0.00     0.031 A
HETATM   27  C6  UNL     1      12.405 -13.395  -5.784  1.00  0.00     0.002 A
HETATM   28  C7  UNL     1      13.397 -12.609  -6.321  1.00  0.00     0.000 A
HETATM   29  C8  UNL     1      13.387 -11.265  -6.016  1.00  0.00     0.002 A
HETATM   30  C9  UNL     1      12.404 -10.728  -5.192  1.00  0.00     0.031 A
ENDBRANCH  19  25
ENDBRANCH   1  12
BRANCH   7  31
HETATM   31  N5  UNL     1       6.489  -1.034  -2.973  1.00  0.00    -0.378 N
HETATM   32  C18 UNL     1       5.804  -0.208  -3.934  1.00  0.00     0.143 C
HETATM   33  C19 UNL     1       6.626  -0.275  -5.224  1.00  0.00     0.144 C
HETATM   34  N6  UNL     1       8.001  -0.415  -4.832  1.00  0.00    -0.364 N
HETATM   35  C25 UNL     1       8.484   0.121  -3.559  1.00  0.00     0.144 C
HETATM   36  C26 UNL     1       7.775  -0.593  -2.441  1.00  0.00     0.143 C
BRANCH  34  37
HETATM   37  C20 UNL     1       8.946  -1.077  -5.677  1.00  0.00     0.102 A
HETATM   38  C21 UNL     1      10.116  -0.465  -6.059  1.00  0.00     0.048 A
HETATM   39  C22 UNL     1      11.020  -1.129  -6.891  1.00  0.00     0.005 A
HETATM   40  C23 UNL     1      10.738  -2.407  -7.332  1.00  0.00     0.017 A
HETATM   41  C24 UNL     1       9.561  -2.983  -6.927  1.00  0.00     0.089 A
HETATM   42  N7  UNL     1       8.715  -2.319  -6.130  1.00  0.00    -0.352 N
ATOM     43  H7  UNL     1       7.849  -2.781  -5.852  1.00  0.00     0.166 HD
ENDBRANCH  34  37
ENDBRANCH   7  31
TORSDOF 5
ENDMDL