MODEL 4
REMARK VINA RESULT: -10.997633175      1.871      5.874
REMARK  5 active torsions:
REMARK  status: ('A' for Active; 'I' for Inactive)
REMARK    1  A    between atoms: C4_4  and  N1_5
REMARK    2  A    between atoms: N2_8  and  C7_9
REMARK    3  A    between atoms: C8_12  and  N4_13
REMARK    4  A    between atoms: N4_13  and  C9_15
REMARK    5  A    between atoms: C15_23  and  N6_24
ROOT
HETATM    1  C7  UNL     1       8.278  -5.100  -5.492  1.00  0.00     0.709 A
HETATM    2  N3  UNL     1       7.069  -4.970  -4.925  1.00  0.00    -0.021 N
ATOM      3  H3  UNL     1       6.532  -5.815  -4.728  1.00  0.00     0.203 HD
HETATM    4  C8  UNL     1       6.534  -3.793  -4.607  1.00  0.00     0.707 A
HETATM    5  N5  UNL     1       7.287  -2.692  -4.889  1.00  0.00    -0.021 N
ATOM      6  H5  UNL     1       6.906  -1.774  -4.658  1.00  0.00     0.203 HD
HETATM    7  C15 UNL     1       8.503  -2.751  -5.454  1.00  0.00     0.709 A
HETATM    8  N7  UNL     1       8.978  -3.953  -5.746  1.00  0.00    -0.021 N
ATOM      9  H7  UNL     1       9.900  -4.026  -6.175  1.00  0.00     0.203 HD
ENDROOT
BRANCH   1  10
HETATM   10  N2  UNL     1       8.891  -6.316  -5.858  1.00  0.00    -0.214 N
HETATM   11  C6  UNL     1      10.168  -6.386  -6.547  1.00  0.00     0.161 C
HETATM   12  C5  UNL     1      11.010  -7.410  -5.780  1.00  0.00     0.143 C
HETATM   13  N1  UNL     1      10.305  -8.658  -5.701  1.00  0.00    -0.377 N
HETATM   14  C22 UNL     1       8.922  -8.711  -6.100  1.00  0.00     0.143 C
HETATM   15  C21 UNL     1       8.196  -7.532  -5.507  1.00  0.00     0.161 C
BRANCH  13  16
HETATM   16  C4  UNL     1      10.941  -9.821  -5.210  1.00  0.00     0.046 A
HETATM   17  C3  UNL     1      11.387 -10.768  -6.160  1.00  0.00     0.055 A
HETATM   18  C2  UNL     1      11.961 -11.928  -5.748  1.00  0.00     0.009 A
HETATM   19  C1  UNL     1      12.415 -12.893  -6.808  1.00  0.00     0.068 C
HETATM   20  N9  UNL     1      12.113 -12.196  -4.443  1.00  0.00    -0.345 N
HETATM   21  C28 UNL     1      11.706 -11.329  -3.509  1.00  0.00     0.119 A
ATOM     22  H9  UNL     1      12.547 -13.074  -4.159  1.00  0.00     0.167 HD
HETATM   23  C23 UNL     1      11.112 -10.123  -3.883  1.00  0.00     0.042 A
HETATM   24  N8  UNL     1      11.745 -11.336  -2.161  1.00  0.00    -0.345 N
HETATM   25  C24 UNL     1      10.801  -9.411  -2.747  1.00  0.00    -0.024 A
HETATM   26  C25 UNL     1      10.181  -8.071  -2.623  1.00  0.00     0.051 C
HETATM   27  C26 UNL     1      11.218 -10.215  -1.676  1.00  0.00     0.014 A
HETATM   28  C27 UNL     1      11.049  -9.789  -0.256  1.00  0.00     0.068 C
ATOM     29  H8  UNL     1      12.126 -12.093  -1.594  1.00  0.00     0.167 HD
ENDBRANCH  13  16
ENDBRANCH   1  10
BRANCH   4  30
HETATM   30  N4  UNL     1       5.420  -3.568  -4.051  1.00  0.00    -0.220 N
ATOM     31  H4  UNL     1       4.712  -3.152  -4.656  1.00  0.00     0.178 HD
BRANCH  30  32
HETATM   32  C9  UNL     1       5.001  -3.805  -2.712  1.00  0.00     0.099 C
HETATM   33  C10 UNL     1       3.770  -4.660  -2.708  1.00  0.00     0.026 C
HETATM   34  C11 UNL     1       3.321  -4.920  -1.283  1.00  0.00     0.002 C
HETATM   35  C12 UNL     1       3.421  -3.732  -0.388  1.00  0.00     0.000 C
HETATM   36  C13 UNL     1       3.471  -2.464  -1.219  1.00  0.00     0.002 C
HETATM   37  C14 UNL     1       4.717  -2.463  -2.062  1.00  0.00     0.026 C
ENDBRANCH  30  32
ENDBRANCH   4  30
BRANCH   7  38
HETATM   38  N6  UNL     1       9.197  -1.528  -5.704  1.00  0.00    -0.217 N
HETATM   39  C16 UNL     1       9.500  -0.612  -4.598  1.00  0.00     0.141 C
HETATM   40  C17 UNL     1      10.792   0.127  -4.843  1.00  0.00     0.020 C
HETATM   41  C18 UNL     1      11.685  -0.762  -5.681  1.00  0.00     0.003 C
HETATM   42  C19 UNL     1      11.130  -0.845  -7.078  1.00  0.00     0.020 C
HETATM   43  C20 UNL     1       9.638  -1.103  -7.007  1.00  0.00     0.141 C
ENDBRANCH   7  38
TORSDOF 5
ENDMDL