MODEL 1
REMARK VINA RESULT: -11.218581220      0.000      0.000
REMARK  5 active torsions:
REMARK  status: ('A' for Active; 'I' for Inactive)
REMARK    1  A    between atoms: S1_2  and  C2_5
REMARK    2  A    between atoms: C6_11  and  C7_12
REMARK    3  A    between atoms: C19_28  and  N4_29
REMARK    4  A    between atoms: N4_29  and  C20_30
REMARK    5  A    between atoms: C20_30  and  C21_31
ROOT
HETATM    1  C2  UNL     1      11.899  -7.406  -8.895  1.00  0.00     0.061 A
HETATM    2  C3  UNL     1      11.434  -8.686  -8.598  1.00  0.00     0.026 A
HETATM    3  C4  UNL     1      11.017  -9.012  -7.322  1.00  0.00     0.033 A
HETATM    4  C5  UNL     1      11.036  -8.104  -6.283  1.00  0.00     0.059 A
HETATM    5  N1  UNL     1      10.625  -8.429  -5.044  1.00  0.00    -0.350 N
ATOM      6  H1  UNL     1      10.293  -9.379  -4.879  1.00  0.00     0.166 HD
HETATM    7  C6  UNL     1      10.629  -7.574  -4.017  1.00  0.00     0.104 A
HETATM    8  C19 UNL     1      11.094  -6.274  -4.282  1.00  0.00     0.206 A
HETATM    9  N6  UNL     1      11.511  -5.960  -5.566  1.00  0.00    -0.327 N
ATOM     10  H6  UNL     1      11.846  -5.014  -5.751  1.00  0.00     0.168 HD
HETATM   11  C27 UNL     1      11.493  -6.835  -6.565  1.00  0.00     0.062 A
HETATM   12  C28 UNL     1      11.911  -6.512  -7.850  1.00  0.00     0.055 A
ENDROOT
BRANCH   7  13
HETATM   13  C7  UNL     1      10.176  -7.958  -2.683  1.00  0.00     0.025 A
HETATM   14  C8  UNL     1      10.925  -8.745  -1.836  1.00  0.00     0.016 A
HETATM   15  C9  UNL     1      10.496  -9.083  -0.562  1.00  0.00     0.003 A
HETATM   16  C10 UNL     1       9.285  -8.627  -0.102  1.00  0.00     0.032 A
HETATM   17  C11 UNL     1       8.519  -7.835  -0.938  1.00  0.00     0.060 A
HETATM   18  N2  UNL     1       7.327  -7.377  -0.513  1.00  0.00    -0.353 N
HETATM   19  C18 UNL     1       8.965  -7.503  -2.220  1.00  0.00     0.072 A
HETATM   20  C12 UNL     1       6.574  -6.606  -1.327  1.00  0.00     0.059 A
ATOM     21  H2  UNL     1       6.992  -7.613   0.421  1.00  0.00     0.166 HD
HETATM   22  C13 UNL     1       5.336  -6.136  -0.880  1.00  0.00     0.032 A
HETATM   23  C17 UNL     1       7.022  -6.284  -2.591  1.00  0.00     0.059 A
HETATM   24  C14 UNL     1       4.591  -5.353  -1.730  1.00  0.00     0.002 A
HETATM   25  C15 UNL     1       5.058  -5.043  -2.992  1.00  0.00     0.002 A
HETATM   26  C16 UNL     1       6.272  -5.493  -3.456  1.00  0.00     0.032 A
HETATM   27  N3  UNL     1       8.224  -6.740  -3.032  1.00  0.00    -0.352 N
ATOM     28  H3  UNL     1       8.557  -6.503  -3.967  1.00  0.00     0.166 HD
ENDBRANCH   7  13
BRANCH   8  29
HETATM   29  N4  UNL     1      11.139  -5.459  -3.412  1.00  0.00    -0.397 NA
BRANCH  29  30
HETATM   30  C20 UNL     1      11.193  -4.539  -2.445  1.00  0.00     0.196 C
BRANCH  30  31
HETATM   31  C21 UNL     1      10.416  -3.268  -2.718  1.00  0.00    -0.007 A
HETATM   32  C22 UNL     1      11.022  -2.066  -2.975  1.00  0.00     0.016 A
HETATM   33  C23 UNL     1      10.280  -0.914  -3.225  1.00  0.00     0.027 A
HETATM   34  C24 UNL     1       8.905  -0.983  -3.213  1.00  0.00     0.046 A
HETATM   35  N5  UNL     1       8.081   0.152  -3.461  1.00  0.00    -0.102 NA
HETATM   36  C25 UNL     1       8.277  -2.171  -2.959  1.00  0.00     0.027 A
HETATM   37  C26 UNL     1       9.041  -3.295  -2.716  1.00  0.00     0.016 A
ENDBRANCH  30  31
ENDBRANCH  29  30
ENDBRANCH   8  29
BRANCH   1  38
HETATM   38  S1  UNL     1      12.427  -7.002 -10.513  1.00  0.00     0.172 S
HETATM   39  C1  UNL     1      14.099  -7.454 -10.813  1.00  0.00     0.167 C
HETATM   40  O1  UNL     1      11.543  -7.712 -11.503  1.00  0.00    -0.223 OA
HETATM   41  O2  UNL     1      12.288  -5.531 -10.789  1.00  0.00    -0.223 OA
ENDBRANCH   1  38
TORSDOF 5
ENDMDL