MODEL 3
REMARK VINA RESULT: -11.115102103      3.857      9.775
REMARK  5 active torsions:
REMARK  status: ('A' for Active; 'I' for Inactive)
REMARK    1  A    between atoms: C6_9  and  C7_10
REMARK    2  A    between atoms: C9_13  and  N3_14
REMARK    3  A    between atoms: N3_14  and  S2_16
REMARK    4  A    between atoms: S2_16  and  C10_19
REMARK    5  A    between atoms: C13_22  and  N4_23
ROOT
HETATM    1  S2  UNL     1       8.114  -1.432  -3.334  1.00  0.00     0.264 S
HETATM    2  O1  UNL     1       8.776  -2.146  -2.145  1.00  0.00    -0.200 OA
HETATM    3  O2  UNL     1       8.371   0.027  -3.156  1.00  0.00    -0.200 OA
ENDROOT
BRANCH   1   4
HETATM    4  N3  UNL     1       6.492  -1.871  -3.451  1.00  0.00    -0.260 N
ATOM      5  H3  UNL     1       5.886  -1.329  -4.067  1.00  0.00     0.181 HD
BRANCH   4   6
HETATM    6  C9  UNL     1       5.972  -2.871  -2.792  1.00  0.00     0.158 A
HETATM    7  S1  UNL     1       4.494  -2.889  -1.933  1.00  0.00    -0.063 SA
HETATM    8  C8  UNL     1       4.548  -4.501  -1.383  1.00  0.00     0.083 A
HETATM    9  C7  UNL     1       5.733  -4.951  -1.905  1.00  0.00     0.051 A
HETATM   10  N6  UNL     1       6.436  -4.101  -2.617  1.00  0.00    -0.335 N
ATOM     11  H6  UNL     1       7.326  -4.382  -3.029  1.00  0.00     0.168 HD
BRANCH   9  12
HETATM   12  C6  UNL     1       6.158  -6.362  -1.641  1.00  0.00    -0.007 A
HETATM   13  C5  UNL     1       5.237  -7.384  -1.565  1.00  0.00     0.016 A
HETATM   14  C4  UNL     1       5.605  -8.700  -1.325  1.00  0.00     0.033 A
HETATM   15  C3  UNL     1       6.946  -8.967  -1.162  1.00  0.00     0.060 A
HETATM   16  N2  UNL     1       7.637 -10.116  -0.918  1.00  0.00    -0.350 N
HETATM   17  C25 UNL     1       7.905  -7.983  -1.228  1.00  0.00     0.062 A
HETATM   18  C2  UNL     1       8.946  -9.868  -0.838  1.00  0.00     0.183 A
ATOM     19  H2  UNL     1       7.213 -11.038  -0.811  1.00  0.00     0.166 HD
HETATM   20  N1  UNL     1       9.114  -8.534  -1.031  1.00  0.00    -0.346 N
HETATM   21  C1  UNL     1      10.389  -7.822  -1.027  1.00  0.00     0.157 C
HETATM   22  C24 UNL     1       7.470  -6.685  -1.471  1.00  0.00     0.045 A
ENDBRANCH   9  12
ENDBRANCH   4   6
ENDBRANCH   1   4
BRANCH   1  23
HETATM   23  C10 UNL     1       8.957  -2.087  -4.742  1.00  0.00     0.080 A
HETATM   24  C11 UNL     1       8.346  -3.033  -5.564  1.00  0.00     0.027 A
HETATM   25  C12 UNL     1       8.981  -3.561  -6.668  1.00  0.00     0.031 A
HETATM   26  C13 UNL     1      10.259  -3.152  -6.982  1.00  0.00     0.032 A
HETATM   27  C22 UNL     1      10.875  -2.217  -6.179  1.00  0.00     0.031 A
HETATM   28  C23 UNL     1      10.224  -1.686  -5.060  1.00  0.00     0.027 A
BRANCH  26  29
HETATM   29  N4  UNL     1      10.896  -3.705  -8.120  1.00  0.00    -0.351 N
HETATM   30  C14 UNL     1      11.608  -4.781  -8.043  1.00  0.00     0.114 A
HETATM   31  C15 UNL     1      11.866  -5.568  -6.847  1.00  0.00     0.273 A
HETATM   32  C21 UNL     1      12.316  -5.462  -9.117  1.00  0.00     0.023 A
HETATM   33  O3  UNL     1      11.472  -5.383  -5.676  1.00  0.00    -0.266 OA
HETATM   34  N5  UNL     1      12.694  -6.656  -7.241  1.00  0.00    -0.321 N
HETATM   35  C16 UNL     1      12.971  -6.587  -8.652  1.00  0.00     0.047 A
ATOM     36  H5  UNL     1      13.042  -7.382  -6.613  1.00  0.00     0.169 HD
HETATM   37  C17 UNL     1      13.711  -7.400  -9.480  1.00  0.00     0.030 A
HETATM   38  C18 UNL     1      13.818  -7.105 -10.812  1.00  0.00     0.002 A
HETATM   39  C19 UNL     1      13.153  -5.965 -11.279  1.00  0.00     0.001 A
HETATM   40  C20 UNL     1      12.411  -5.146 -10.461  1.00  0.00     0.016 A
ATOM     41  H4  UNL     1      10.790  -3.242  -9.023  1.00  0.00     0.166 HD
ENDBRANCH  26  29
ENDBRANCH   1  23
TORSDOF 5
ENDMDL