MODEL 5
REMARK VINA RESULT: -10.879000562      2.602      4.270
REMARK  3 active torsions:
REMARK  status: ('A' for Active; 'I' for Inactive)
REMARK    1  A    between atoms: C5_6  and  C6_7
REMARK    2  A    between atoms: C6_7  and  N2_8
REMARK    3  A    between atoms: N4_18  and  C13_20
ROOT
HETATM    1  N1  UNL     1      18.553 -11.320 -14.098  1.00  0.00    -0.191 NA
HETATM    2  C1  UNL     1      17.622 -10.649 -13.854  1.00  0.00     0.099 C
HETATM    3  C2  UNL     1      16.476  -9.827 -13.564  1.00  0.00     0.044 A
HETATM    4  C3  UNL     1      16.296  -9.383 -12.271  1.00  0.00     0.023 A
HETATM    5  C4  UNL     1      15.205  -8.594 -11.968  1.00  0.00     0.010 A
HETATM    6  C5  UNL     1      14.283  -8.233 -12.927  1.00  0.00    -0.040 A
HETATM    7  C29 UNL     1      14.478  -8.687 -14.217  1.00  0.00     0.010 A
HETATM    8  C30 UNL     1      15.561  -9.476 -14.537  1.00  0.00     0.023 A
ENDROOT
BRANCH   6   9
HETATM    9  C6  UNL     1      13.113  -7.396 -12.638  1.00  0.00     0.168 C
BRANCH   9  10
HETATM   10  N2  UNL     1      12.499  -7.708 -11.368  1.00  0.00    -0.338 N
HETATM   11  C7  UNL     1      12.171  -8.944 -10.949  1.00  0.00     0.094 A
HETATM   12  C8  UNL     1      11.603  -8.883  -9.691  1.00  0.00     0.037 A
HETATM   13  C9  UNL     1      11.581  -7.547  -9.321  1.00  0.00     0.062 A
HETATM   14  C10 UNL     1      12.134  -6.868 -10.368  1.00  0.00     0.124 A
HETATM   15  C28 UNL     1      11.093  -6.905  -8.099  1.00  0.00     0.217 A
HETATM   16  N3  UNL     1      12.240  -5.468 -10.260  1.00  0.00    -0.307 N
HETATM   17  C11 UNL     1      11.796  -4.758  -9.118  1.00  0.00     0.277 A
ATOM     18  H3  UNL     1      12.651  -4.945 -11.034  1.00  0.00     0.170 HD
HETATM   19  O1  UNL     1      11.889  -3.506  -9.021  1.00  0.00    -0.266 OA
HETATM   20  C12 UNL     1      11.189  -5.457  -7.962  1.00  0.00     0.150 A
HETATM   21  N4  UNL     1      10.796  -4.799  -6.941  1.00  0.00    -0.353 N
ATOM     22  H4  UNL     1      10.938  -3.791  -7.009  1.00  0.00     0.162 HD
HETATM   23  O3  UNL     1      10.600  -7.625  -7.194  1.00  0.00    -0.285 OA
BRANCH  21  24
HETATM   24  C13 UNL     1      10.205  -5.221  -5.748  1.00  0.00     0.277 C
HETATM   25  N5  UNL     1       9.307  -4.165  -5.232  1.00  0.00    -0.360 N
HETATM   26  C14 UNL     1       8.593  -4.149  -4.125  1.00  0.00     0.053 C
ATOM     27  H5  UNL     1       9.230  -3.331  -5.815  1.00  0.00     0.162 HD
HETATM   28  C15 UNL     1       7.834  -2.957  -3.922  1.00  0.00    -0.009 A
HETATM   29  C21 UNL     1       8.496  -5.294  -3.257  1.00  0.00     0.018 A
HETATM   30  C16 UNL     1       7.174  -2.630  -2.791  1.00  0.00     0.014 A
HETATM   31  C20 UNL     1       7.657  -2.066  -4.999  1.00  0.00     0.014 A
HETATM   32  C17 UNL     1       6.369  -1.519  -2.651  1.00  0.00     0.001 A
HETATM   33  C18 UNL     1       6.209  -0.662  -3.713  1.00  0.00     0.000 A
HETATM   34  C19 UNL     1       6.871  -0.962  -4.888  1.00  0.00     0.001 A
HETATM   35  C22 UNL     1       7.229  -5.459  -2.754  1.00  0.00     0.016 A
HETATM   36  C26 UNL     1       9.510  -6.187  -2.870  1.00  0.00     0.047 A
HETATM   37  C23 UNL     1       7.012  -6.497  -1.879  1.00  0.00     0.001 A
HETATM   38  C24 UNL     1       8.019  -7.374  -1.494  1.00  0.00     0.002 A
HETATM   39  C25 UNL     1       9.301  -7.219  -2.000  1.00  0.00     0.030 A
HETATM   40  N6  UNL     1      10.833  -6.187  -3.422  1.00  0.00    -0.323 N
HETATM   41  C27 UNL     1      11.181  -5.601  -4.672  1.00  0.00     0.264 C
ATOM     42  H6  UNL     1      11.574  -6.636  -2.884  1.00  0.00     0.169 HD
HETATM   43  O2  UNL     1      12.422  -5.383  -4.893  1.00  0.00    -0.269 OA
ENDBRANCH  21  24
ENDBRANCH   9  10
ENDBRANCH   6   9
TORSDOF 3
ENDMDL