MODEL 3
REMARK VINA RESULT: -11.459264876      1.253      1.397
REMARK  8 active torsions:
REMARK  status: ('A' for Active; 'I' for Inactive)
REMARK    1  A    between atoms: O1_2  and  C2_3
REMARK    2  A    between atoms: C3_4  and  C4_5
REMARK    3  A    between atoms: C5_6  and  C6_7
REMARK    4  A    between atoms: N4_25  and  C19_26
REMARK    5  A    between atoms: C19_26  and  C20_27
REMARK    6  A    between atoms: C20_27  and  C21_28
REMARK    7  A    between atoms: C21_28  and  C22_29
REMARK    8  A    between atoms: C25_32  and  N5_33
ROOT
HETATM    1  C6  UNL     1       5.072  -4.989  -1.391  1.00  0.00     0.019 A
HETATM    2  C7  UNL     1       3.899  -5.281  -2.081  1.00  0.00     0.021 A
HETATM    3  C8  UNL     1       2.882  -4.367  -2.146  1.00  0.00     0.003 A
HETATM    4  C9  UNL     1       2.985  -3.140  -1.536  1.00  0.00     0.023 A
HETATM    5  C10 UNL     1       4.143  -2.853  -0.856  1.00  0.00     0.046 A
HETATM    6  C11 UNL     1       4.339  -1.595  -0.188  1.00  0.00     0.099 C
HETATM    7  N1  UNL     1       4.497  -0.574   0.332  1.00  0.00    -0.191 NA
HETATM    8  C12 UNL     1       5.190  -3.768  -0.778  1.00  0.00     0.043 A
ENDROOT
BRANCH   1   9
HETATM    9  C5  UNL     1       6.132  -5.943  -1.326  1.00  0.00    -0.061 C
HETATM   10  C4  UNL     1       7.036  -6.776  -1.285  1.00  0.00    -0.059 C
BRANCH  10  11
HETATM   11  C3  UNL     1       8.110  -7.730  -1.261  1.00  0.00     0.052 A
HETATM   12  C2  UNL     1       8.866  -7.939  -2.428  1.00  0.00     0.101 A
HETATM   13  C31 UNL     1       9.882  -8.823  -2.365  1.00  0.00     0.055 A
HETATM   14  C15 UNL     1      10.157  -9.530  -1.189  1.00  0.00     0.047 A
HETATM   15  C30 UNL     1      10.671  -9.105  -3.462  1.00  0.00     0.079 A
HETATM   16  C14 UNL     1       9.391  -9.308  -0.058  1.00  0.00     0.032 A
HETATM   17  N2  UNL     1      11.119 -10.469  -1.132  1.00  0.00    -0.363 N
HETATM   18  C13 UNL     1       8.381  -8.407  -0.109  1.00  0.00     0.026 A
HETATM   19  C16 UNL     1      11.874 -10.779  -2.173  1.00  0.00     0.120 A
ATOM     20  H2  UNL     1      11.271 -10.962  -0.252  1.00  0.00     0.165 HD
HETATM   21  C17 UNL     1      11.664 -10.096  -3.358  1.00  0.00     0.076 A
HETATM   22  N3  UNL     1      12.324 -10.120  -4.510  1.00  0.00    -0.349 N
HETATM   23  C18 UNL     1      11.812  -9.200  -5.287  1.00  0.00     0.183 A
ATOM     24  H3  UNL     1      13.095 -10.744  -4.746  1.00  0.00     0.166 HD
HETATM   25  N4  UNL     1      10.762  -8.525  -4.640  1.00  0.00    -0.340 N
BRANCH  12  26
HETATM   26  O1  UNL     1       8.389  -7.198  -3.468  1.00  0.00    -0.353 OA
HETATM   27  C1  UNL     1       7.286  -7.826  -4.249  1.00  0.00     0.210 C
ENDBRANCH  12  26
BRANCH  25  28
HETATM   28  C19 UNL     1      10.379  -7.315  -5.269  1.00  0.00     0.130 C
BRANCH  28  29
HETATM   29  C20 UNL     1      11.401  -6.189  -4.738  1.00  0.00     0.026 C
BRANCH  29  30
HETATM   30  C21 UNL     1      11.701  -5.302  -5.881  1.00  0.00     0.058 C
BRANCH  30  31
HETATM   31  C22 UNL     1      12.370  -5.956  -7.031  1.00  0.00     0.009 A
HETATM   32  C23 UNL     1      11.723  -6.052  -8.271  1.00  0.00     0.041 A
HETATM   33  C24 UNL     1      12.292  -6.651  -9.360  1.00  0.00     0.021 A
HETATM   34  C25 UNL     1      11.686  -6.762 -10.590  1.00  0.00     0.110 A
HETATM   35  C28 UNL     1      13.568  -7.186  -9.227  1.00  0.00    -0.005 A
HETATM   36  N6  UNL     1      12.320  -7.378 -11.635  1.00  0.00    -0.352 N
HETATM   37  C26 UNL     1      13.547  -7.898 -11.525  1.00  0.00     0.090 A
ATOM     38  H6  UNL     1      11.839  -7.442 -12.533  1.00  0.00     0.166 HD
HETATM   39  C27 UNL     1      14.185  -7.804 -10.311  1.00  0.00     0.031 A
HETATM   40  C29 UNL     1      14.186  -7.082  -8.005  1.00  0.00     0.100 A
HETATM   41  N7  UNL     1      13.602  -6.491  -6.960  1.00  0.00    -0.368 N
ATOM     42  H7  UNL     1      14.109  -6.443  -6.076  1.00  0.00     0.165 HD
BRANCH  34  43
HETATM   43  N5  UNL     1      10.529  -6.298 -10.777  1.00  0.00    -0.385 N
ATOM     44  H52 UNL     1       9.735  -6.788 -10.364  1.00  0.00     0.157 HD
ATOM     45  H51 UNL     1      10.394  -5.450 -11.327  1.00  0.00     0.157 HD
ENDBRANCH  34  43
ENDBRANCH  30  31
ENDBRANCH  29  30
ENDBRANCH  28  29
ENDBRANCH  25  28
ENDBRANCH  10  11
ENDBRANCH   1   9
TORSDOF 8
ENDMDL