MODEL 2
REMARK VINA RESULT: -10.028821814      3.351      5.273
REMARK  5 active torsions:
REMARK  status: ('A' for Active; 'I' for Inactive)
REMARK    1  A    between atoms: N2_6  and  C4_7
REMARK    2  A    between atoms: C7_10  and  N3_11
REMARK    3  A    between atoms: C10_17  and  C11_18
REMARK    4  A    between atoms: C14_21  and  C15_22
REMARK    5  A    between atoms: C20_29  and  N5_30
ROOT
HETATM    1  C11 UNL     1      10.119  -9.303  -4.361  1.00  0.00     0.004 C
HETATM    2  C12 UNL     1      10.869 -10.409  -5.117  1.00  0.00     0.017 C
HETATM    3  C13 UNL     1      11.672  -9.726  -6.194  1.00  0.00     0.018 C
HETATM    4  C14 UNL     1      11.031  -8.410  -6.602  1.00  0.00     0.019 C
HETATM    5  C27 UNL     1       9.534  -8.556  -6.689  1.00  0.00     0.018 C
HETATM    6  C28 UNL     1       9.039  -8.861  -5.282  1.00  0.00     0.017 C
HETATM    7  C29 UNL     1      11.197  -7.354  -5.533  1.00  0.00     0.018 C
HETATM    8  C30 UNL     1      11.205  -8.189  -4.253  1.00  0.00     0.017 C
ENDROOT
BRANCH   4   9
HETATM    9  C15 UNL     1      11.663  -7.973  -7.835  1.00  0.00     0.092 A
HETATM   10  N4  UNL     1      11.611  -6.807  -8.503  1.00  0.00    -0.342 N
HETATM   11  C16 UNL     1      12.354  -6.887  -9.621  1.00  0.00     0.084 A
ATOM     12  H4  UNL     1      11.087  -5.984  -8.206  1.00  0.00     0.167 HD
HETATM   13  C17 UNL     1      12.663  -6.050 -10.661  1.00  0.00    -0.028 A
HETATM   14  C26 UNL     1      12.900  -8.156  -9.660  1.00  0.00     0.136 A
HETATM   15  C18 UNL     1      12.104  -4.692 -10.658  1.00  0.00     0.050 C
HETATM   16  C19 UNL     1      13.495  -6.512 -11.690  1.00  0.00     0.057 A
HETATM   17  C20 UNL     1      14.015  -7.777 -11.692  1.00  0.00     0.105 A
HETATM   18  N7  UNL     1      13.695  -8.578 -10.654  1.00  0.00    -0.327 N
ATOM     19  H7  UNL     1      14.069  -9.527 -10.624  1.00  0.00     0.169 HD
HETATM   20  N8  UNL     1      12.462  -8.780  -8.571  1.00  0.00    -0.329 N
ATOM     21  H8  UNL     1      12.698  -9.741  -8.322  1.00  0.00     0.168 HD
BRANCH  17  22
HETATM   22  N5  UNL     1      14.840  -8.285 -12.706  1.00  0.00    -0.364 N
HETATM   23  C21 UNL     1      16.080  -8.998 -12.421  1.00  0.00     0.154 C
HETATM   24  C22 UNL     1      16.066 -10.321 -13.153  1.00  0.00     0.291 C
HETATM   25  N6  UNL     1      15.791 -10.094 -14.567  1.00  0.00     0.087 N
HETATM   26  C23 UNL     1      15.823 -11.386 -15.222  1.00  0.00     0.310 C
HETATM   27  C24 UNL     1      14.465  -9.550 -14.701  1.00  0.00     0.291 C
HETATM   28  C25 UNL     1      14.495  -8.137 -14.095  1.00  0.00     0.154 C
ENDBRANCH  17  22
ENDBRANCH   4   9
BRANCH   1  29
HETATM   29  C10 UNL     1       9.764  -9.657  -2.997  1.00  0.00     0.045 A
HETATM   30  C2  UNL     1      10.431 -10.653  -2.262  1.00  0.00    -0.020 A
HETATM   31  C1  UNL     1      11.600 -11.469  -2.601  1.00  0.00     0.052 C
HETATM   32  C3  UNL     1       9.814 -10.786  -1.029  1.00  0.00     0.116 A
HETATM   33  N1  UNL     1       8.827  -9.910  -1.030  1.00  0.00    -0.309 N
HETATM   34  N2  UNL     1       8.780  -9.226  -2.199  1.00  0.00    -0.291 N
ATOM     35  H1  UNL     1       8.183  -9.768  -0.251  1.00  0.00     0.186 HD
BRANCH  34  36
HETATM   36  C4  UNL     1       7.759  -8.236  -2.446  1.00  0.00     0.108 C
HETATM   37  C5  UNL     1       6.384  -8.874  -2.572  1.00  0.00     0.029 C
HETATM   38  C6  UNL     1       5.445  -8.587  -1.465  1.00  0.00     0.035 C
HETATM   39  C7  UNL     1       5.232  -7.114  -1.198  1.00  0.00     0.183 C
HETATM   40  C8  UNL     1       6.570  -6.385  -1.278  1.00  0.00     0.035 C
HETATM   41  C9  UNL     1       7.628  -7.435  -1.106  1.00  0.00     0.029 C
BRANCH  39  42
HETATM   42  N3  UNL     1       4.330  -6.586  -2.177  1.00  0.00    -0.075 N
ATOM     43  H33 UNL     1       4.334  -5.566  -2.197  1.00  0.00     0.274 HD
ATOM     44  H32 UNL     1       4.653  -6.750  -3.130  1.00  0.00     0.274 HD
ATOM     45  H31 UNL     1       3.399  -6.967  -2.012  1.00  0.00     0.274 HD
ENDBRANCH  39  42
ENDBRANCH  34  36
ENDBRANCH   1  29
TORSDOF 5
ENDMDL