MODEL 1
REMARK VINA RESULT: -10.893529106      0.000      0.000
REMARK  6 active torsions:
REMARK  status: ('A' for Active; 'I' for Inactive)
REMARK    1  A    between atoms: N1_1  and  S1_4
REMARK    2  A    between atoms: S1_4  and  C1_7
REMARK    3  A    between atoms: C4_10  and  N2_11
REMARK    4  A    between atoms: N2_11  and  C5_13
REMARK    5  A    between atoms: N4_22  and  C11_23
REMARK    6  A    between atoms: C11_23  and  C12_24
ROOT
HETATM    1  C5  UNL     1      10.463  -5.715  -5.340  1.00  0.00     0.119 A
HETATM    2  N3  UNL     1      10.103  -6.969  -5.019  1.00  0.00    -0.327 N
ATOM      3  H3  UNL     1       9.821  -7.575  -5.790  1.00  0.00     0.169 HD
HETATM    4  C6  UNL     1      10.078  -7.500  -3.800  1.00  0.00     0.123 A
HETATM    5  C7  UNL     1      10.474  -6.630  -2.786  1.00  0.00     0.027 A
HETATM    6  C8  UNL     1      10.535  -7.006  -1.476  1.00  0.00     0.022 A
HETATM    7  C9  UNL     1      10.192  -8.293  -1.146  1.00  0.00     0.075 A
HETATM    8  C10 UNL     1       9.805  -9.131  -2.165  1.00  0.00     0.249 A
HETATM    9  O3  UNL     1       9.491 -10.315  -1.889  1.00  0.00    -0.268 OA
HETATM   10  N4  UNL     1       9.744  -8.754  -3.477  1.00  0.00    -0.295 N
HETATM   11  C17 UNL     1      10.850  -5.327  -3.091  1.00  0.00     0.034 A
HETATM   12  S2  UNL     1      11.374  -4.037  -2.110  1.00  0.00    -0.088 SA
HETATM   13  C18 UNL     1      11.605  -2.859  -3.323  1.00  0.00     0.017 A
HETATM   14  C19 UNL     1      12.029  -1.544  -3.246  1.00  0.00     0.020 A
HETATM   15  C20 UNL     1      12.133  -0.785  -4.404  1.00  0.00     0.001 A
HETATM   16  C21 UNL     1      11.798  -1.409  -5.577  1.00  0.00     0.001 A
HETATM   17  C22 UNL     1      11.379  -2.714  -5.629  1.00  0.00     0.014 A
HETATM   18  C23 UNL     1      11.262  -3.510  -4.481  1.00  0.00    -0.004 A
HETATM   19  C24 UNL     1      10.868  -4.798  -4.361  1.00  0.00     0.038 A
ENDROOT
BRANCH   1  20
HETATM   20  N2  UNL     1      10.419  -5.388  -6.596  1.00  0.00    -0.342 N
ATOM     21  H2  UNL     1       9.813  -4.612  -6.859  1.00  0.00     0.167 HD
BRANCH  20  22
HETATM   22  C4  UNL     1      11.133  -6.013  -7.608  1.00  0.00     0.033 A
HETATM   23  C3  UNL     1      10.478  -6.534  -8.699  1.00  0.00     0.031 A
HETATM   24  C2  UNL     1      11.168  -7.170  -9.734  1.00  0.00     0.027 A
HETATM   25  C1  UNL     1      12.537  -7.279  -9.665  1.00  0.00     0.079 A
HETATM   26  C26 UNL     1      13.205  -6.770  -8.593  1.00  0.00     0.027 A
HETATM   27  C25 UNL     1      12.504  -6.136  -7.560  1.00  0.00     0.031 A
BRANCH  25  28
HETATM   28  S1  UNL     1      13.365  -8.091 -10.999  1.00  0.00     0.256 S
HETATM   29  O1  UNL     1      12.723  -9.416 -11.288  1.00  0.00    -0.201 OA
HETATM   30  O2  UNL     1      14.804  -8.331 -10.677  1.00  0.00    -0.201 OA
BRANCH  28  31
HETATM   31  N1  UNL     1      13.284  -7.121 -12.434  1.00  0.00    -0.324 N
ATOM     32  H12 UNL     1      12.854  -7.409 -13.312  1.00  0.00     0.169 HD
ATOM     33  H11 UNL     1      13.736  -6.227 -12.243  1.00  0.00     0.169 HD
ENDBRANCH  28  31
ENDBRANCH  25  28
ENDBRANCH  20  22
ENDBRANCH   1  20
BRANCH  10  34
HETATM   34  C11 UNL     1       9.299  -9.661  -4.490  1.00  0.00     0.174 C
BRANCH  34  35
HETATM   35  C12 UNL     1      10.437 -10.433  -5.049  1.00  0.00    -0.024 A
HETATM   36  C13 UNL     1      10.840 -11.629  -4.431  1.00  0.00     0.011 A
HETATM   37  C14 UNL     1      11.884 -12.361  -4.938  1.00  0.00     0.018 A
HETATM   38  C15 UNL     1      12.584 -11.976  -6.054  1.00  0.00     0.087 A
HETATM   39  N5  UNL     1      12.206 -10.843  -6.638  1.00  0.00    -0.375 N
HETATM   40  C16 UNL     1      11.170 -10.091  -6.160  1.00  0.00     0.096 A
ATOM     41  H5  UNL     1      12.704 -10.526  -7.470  1.00  0.00     0.164 HD
ENDBRANCH  34  35
ENDBRANCH  10  34
TORSDOF 6
ENDMDL