MODEL 2
REMARK VINA RESULT: -7.566776038      2.201      2.522
REMARK  8 active torsions:
REMARK  status: ('A' for Active; 'I' for Inactive)
REMARK    1  A    between atoms: N1_2  and  N2_3
REMARK    2  A    between atoms: N1_2  and  S1_6
REMARK    3  A    between atoms: S1_6  and  N3_9
REMARK    4  A    between atoms: N3_9  and  N4_11
REMARK    5  A    between atoms: N4_11  and  C2_13
REMARK    6  A    between atoms: C7_18  and  S2_19
REMARK    7  A    between atoms: S2_19  and  N5_20
REMARK    8  A    between atoms: S2_19  and  N6_24
REMARK       I    between atoms: N6_24  and  C8_26
ROOT
HETATM    1  C2  UNL     1      14.872   2.641  21.476  1.00  0.00     0.073 A
HETATM    2  C3  UNL     1      15.570   1.512  21.098  1.00  0.00     0.072 A
HETATM    3  C4  UNL     1      15.033   0.494  20.327  1.00  0.00     0.107 A
HETATM    4  C5  UNL     1      13.703   0.603  19.902  1.00  0.00     0.106 A
HETATM    5  C6  UNL     1      13.007   1.719  20.274  1.00  0.00     0.065 A
HETATM    6  C7  UNL     1      13.559   2.737  21.049  1.00  0.00     0.089 A
HETATM    7  O4  UNL     1      13.406  -0.541  19.149  1.00  0.00    -0.323 OA
HETATM    8  C9  UNL     1      14.623  -1.153  18.759  1.00  0.00     0.352 C
HETATM    9  O5  UNL     1      15.475  -0.714  19.810  1.00  0.00    -0.323 OA
ENDROOT
BRANCH   1  10
HETATM   10  N4  UNL     1      15.440   3.677  22.265  1.00  0.00    -0.289 N
ATOM     11  H4  UNL     1      15.330   3.600  23.276  1.00  0.00     0.188 HD
BRANCH  10  12
HETATM   12  N3  UNL     1      16.127   4.778  21.793  1.00  0.00    -0.212 N
ATOM     13  H3  UNL     1      15.820   5.389  21.035  1.00  0.00     0.201 HD
BRANCH  12  14
HETATM   14  S1  UNL     1      17.592   4.953  22.696  1.00  0.00     0.332 S
HETATM   15  O1  UNL     1      18.330   3.636  22.736  1.00  0.00    -0.185 OA
HETATM   16  O2  UNL     1      18.497   5.920  21.979  1.00  0.00    -0.185 OA
BRANCH  14  17
HETATM   17  N1  UNL     1      17.308   5.492  24.303  1.00  0.00    -0.113 NA
HETATM   18  C1  UNL     1      18.201   4.851  25.234  1.00  0.00     0.157 C
BRANCH  17  19
HETATM   19  N2  UNL     1      15.985   5.226  24.645  1.00  0.00    -0.349 NA
ATOM     20  H22 UNL     1      15.967   4.646  25.484  1.00  0.00     0.172 HD
ATOM     21  H21 UNL     1      15.476   6.098  24.789  1.00  0.00     0.172 HD
ENDBRANCH  17  19
ENDBRANCH  14  17
ENDBRANCH  12  14
ENDBRANCH  10  12
ENDBRANCH   1  10
BRANCH   6  22
HETATM   22  S2  UNL     1      12.571   4.106  21.465  1.00  0.00     0.141 S
HETATM   23  O3  UNL     1      13.358   5.357  21.704  1.00  0.00    -0.223 OA
BRANCH  22  24
HETATM   24  N5  UNL     1      11.449   4.379  20.183  1.00  0.00    -0.341 N
ATOM     25  H52 UNL     1      11.703   4.550  19.210  1.00  0.00     0.167 HD
ATOM     26  H51 UNL     1      10.505   4.339  20.566  1.00  0.00     0.167 HD
ENDBRANCH  22  24
BRANCH  22  27
HETATM   27  N6  UNL     1      11.830   3.808  22.830  1.00  0.00    -0.271 N
HETATM   28  C8  UNL     1      12.415   4.336  24.007  1.00  0.00     0.194 C
HETATM   29  N7  UNL     1      11.972   5.450  24.459  1.00  0.00    -0.373 N
HETATM   30  N8  UNL     1      13.469   3.669  24.687  1.00  0.00    -0.063 NA
ATOM     31  H72 UNL     1      11.215   5.929  23.971  1.00  0.00     0.158 HD
ATOM     32  H71 UNL     1      12.393   5.831  25.307  1.00  0.00     0.158 HD
ATOM     33  H6  UNL     1      10.970   3.261  22.862  1.00  0.00     0.180 HD
ENDBRANCH  22  27
ENDBRANCH   6  22
TORSDOF 8
ENDMDL