MODEL 2
REMARK VINA RESULT: -8.675346494      1.441      1.782
REMARK  6 active torsions:
REMARK  status: ('A' for Active; 'I' for Inactive)
REMARK    1  A    between atoms: N2_4  and  O1_6
REMARK    2  A    between atoms: O1_6  and  C1_7
REMARK    3  A    between atoms: C1_7  and  C2_8
REMARK    4  A    between atoms: C2_8  and  N3_9
REMARK    5  A    between atoms: C10_26  and  O4_27
REMARK    6  A    between atoms: O4_27  and  S1_28
ROOT
HETATM    1  N3  UNL     1      14.329   3.701  22.010  1.00  0.00    -0.375 N
ATOM      2  H3  UNL     1      13.701   3.139  21.435  1.00  0.00     0.160 HD
HETATM    3  C3  UNL     1      15.596   3.646  21.796  1.00  0.00     0.124 C
HETATM    4  N4  UNL     1      16.484   4.436  22.604  1.00  0.00    -0.295 N
ATOM      5  H4  UNL     1      16.198   4.739  23.535  1.00  0.00     0.172 HD
HETATM    6  C4  UNL     1      17.765   4.790  22.097  1.00  0.00     0.328 C
HETATM    7  O2  UNL     1      18.547   5.488  22.814  1.00  0.00    -0.247 OA
HETATM    8  N5  UNL     1      18.163   4.366  20.798  1.00  0.00    -0.276 N
ATOM      9  H5  UNL     1      19.078   4.613  20.421  1.00  0.00     0.173 HD
HETATM   10  C5  UNL     1      17.243   3.588  20.045  1.00  0.00     0.266 C
HETATM   11  O3  UNL     1      17.314   3.570  18.768  1.00  0.00    -0.269 OA
HETATM   12  C6  UNL     1      16.221   2.815  20.760  1.00  0.00     0.201 A
HETATM   13  N6  UNL     1      16.782   1.573  21.249  1.00  0.00    -0.362 N
ATOM     14  H6  UNL     1      17.514   1.306  21.906  1.00  0.00     0.161 HD
HETATM   15  C7  UNL     1      15.860   0.887  20.405  1.00  0.00     0.039 A
HETATM   16  C8  UNL     1      15.402  -0.349  19.974  1.00  0.00     0.032 A
HETATM   17  C9  UNL     1      14.380  -0.415  19.049  1.00  0.00     0.040 A
HETATM   18  C10 UNL     1      13.840   0.765  18.579  1.00  0.00     0.092 A
HETATM   19  C11 UNL     1      14.279   1.987  18.993  1.00  0.00     0.051 A
HETATM   20  C12 UNL     1      15.292   2.042  19.909  1.00  0.00     0.016 A
ENDROOT
BRANCH   1  21
HETATM   21  C2  UNL     1      13.775   4.540  23.046  1.00  0.00     0.150 C
BRANCH  21  22
HETATM   22  C1  UNL     1      13.050   3.668  24.046  1.00  0.00     0.222 C
BRANCH  22  23
HETATM   23  O1  UNL     1      11.690   4.018  24.167  1.00  0.00    -0.264 OA
BRANCH  23  24
HETATM   24  N2  UNL     1      11.251   5.168  23.599  1.00  0.00    -0.214 N
HETATM   25  N1  UNL     1      10.178   5.112  22.905  1.00  0.00    -0.326 N
ATOM     26  H12 UNL     1       9.683   4.228  22.794  1.00  0.00     0.178 HD
ATOM     27  H11 UNL     1       9.848   5.978  22.478  1.00  0.00     0.178 HD
ATOM     28  H2  UNL     1      11.757   6.044  23.720  1.00  0.00     0.215 HD
ENDBRANCH  23  24
ENDBRANCH  22  23
ENDBRANCH  21  22
ENDBRANCH   1  21
BRANCH  18  29
HETATM   29  O4  UNL     1      12.800   0.649  17.637  1.00  0.00    -0.214 OA
BRANCH  29  30
HETATM   30  S1  UNL     1      11.175   0.471  18.129  1.00  0.00     0.256 S
HETATM   31  O5  UNL     1      10.321   0.118  16.926  1.00  0.00    -0.572 OA
HETATM   32  O6  UNL     1      10.651   1.768  18.718  1.00  0.00    -0.572 OA
HETATM   33  O7  UNL     1      11.089  -0.741  19.291  1.00  0.00    -0.572 OA
ENDBRANCH  29  30
ENDBRANCH  18  29
TORSDOF 6
ENDMDL