MODEL 5
REMARK VINA RESULT: -7.386984457      3.289      6.881
REMARK  10 active torsions:
REMARK  status: ('A' for Active; 'I' for Inactive)
REMARK    1  A    between atoms: N1_1  and  N2_4
REMARK    2  A    between atoms: N2_4  and  N3_5
REMARK       I    between atoms: N3_5  and  C1_7
REMARK       I    between atoms: C1_7  and  N4_9
REMARK    3  A    between atoms: N4_9  and  N5_11
REMARK    4  A    between atoms: C2_13  and  C3_14
REMARK    5  A    between atoms: C5_16  and  N6_17
REMARK    6  A    between atoms: C6_22  and  N8_23
REMARK    7  A    between atoms: N8_23  and  C7_24
REMARK       I    between atoms: N8_23  and  C9_32
REMARK    8  A    between atoms: C7_24  and  C8_25
REMARK       I    between atoms: C8_25  and  N9_27
REMARK    9  A    between atoms: N9_27  and  N10_29
REMARK   10  A    between atoms: C9_32  and  C10_34
ROOT
HETATM    1  C3  UNL     1      13.947   4.302  23.208  1.00  0.00     0.029 A
HETATM    2  C4  UNL     1      14.775   4.851  24.148  1.00  0.00     0.071 A
HETATM    3  C5  UNL     1      16.068   4.695  23.746  1.00  0.00     0.176 A
HETATM    4  N7  UNL     1      15.999   4.054  22.569  1.00  0.00    -0.323 N
ATOM      5  H7  UNL     1      16.821   3.798  22.023  1.00  0.00     0.169 HD
HETATM    6  C6  UNL     1      14.759   3.786  22.185  1.00  0.00     0.124 A
ENDROOT
BRANCH   6   7
HETATM    7  N8  UNL     1      14.227   3.116  21.031  1.00  0.00    -0.286 N
HETATM    8  C9  UNL     1      13.994   3.804  19.843  1.00  0.00     0.314 C
HETATM    9  O5  UNL     1      13.535   3.161  18.841  1.00  0.00    -0.262 OA
BRANCH   7  10
HETATM   10  C7  UNL     1      13.897   1.696  21.136  1.00  0.00     0.238 C
BRANCH  10  11
HETATM   11  C8  UNL     1      15.099   0.878  20.838  1.00  0.00     0.254 C
HETATM   12  O4  UNL     1      16.245   1.300  21.172  1.00  0.00    -0.270 OA
HETATM   13  N9  UNL     1      14.991  -0.368  20.191  1.00  0.00    -0.275 N
ATOM     14  H9  UNL     1      14.073  -0.727  19.926  1.00  0.00     0.189 HD
BRANCH  13  15
HETATM   15  N10 UNL     1      16.157  -1.126  19.906  1.00  0.00    -0.343 N
ATOM     16 2H10 UNL     1      16.291  -2.021  20.377  1.00  0.00     0.176 HD
ATOM     17 1H10 UNL     1      16.846  -0.775  19.241  1.00  0.00     0.176 HD
ENDBRANCH  13  15
ENDBRANCH  10  11
ENDBRANCH   7  10
BRANCH   8  18
HETATM   18  C10 UNL     1      14.240   5.209  19.666  1.00  0.00     0.323 C
HETATM   19  N11 UNL     1      13.264   6.190  20.106  1.00  0.00    -0.053 NA
HETATM   20  O6  UNL     1      15.269   5.688  19.142  1.00  0.00    -0.266 OA
ENDBRANCH   8  18
ENDBRANCH   6   7
BRANCH   1  21
HETATM   21  C2  UNL     1      12.500   4.276  23.283  1.00  0.00     0.122 C
HETATM   22  N5  UNL     1      11.740   5.101  22.663  1.00  0.00    -0.307 N
ATOM     23  H5  UNL     1      12.143   5.831  22.074  1.00  0.00     0.186 HD
BRANCH  22  24
HETATM   24  N4  UNL     1      10.334   4.989  22.803  1.00  0.00    -0.250 N
HETATM   25  C1  UNL     1       9.429   5.771  22.045  1.00  0.00     0.365 C
HETATM   26  N3  UNL     1       8.041   5.601  22.250  1.00  0.00    -0.164 N
HETATM   27  O1  UNL     1       9.881   6.588  21.215  1.00  0.00    -0.243 OA
ATOM     28  H3  UNL     1       7.492   6.377  22.620  1.00  0.00     0.209 HD
ATOM     29  H4  UNL     1       9.959   4.320  23.476  1.00  0.00     0.192 HD
BRANCH  26  30
HETATM   30  N2  UNL     1       7.476   4.526  21.987  1.00  0.00    -0.239 NA
BRANCH  30  31
HETATM   31  N1  UNL     1       7.002   3.572  21.367  1.00  0.00    -0.260 N
ATOM     32  H12 UNL     1       6.122   4.033  21.135  1.00  0.00     0.193 HD
ATOM     33  H11 UNL     1       6.893   2.654  20.936  1.00  0.00     0.193 HD
ENDBRANCH  30  31
ENDBRANCH  26  30
ENDBRANCH  22  24
ENDBRANCH   1  21
BRANCH   3  34
HETATM   34  N6  UNL     1      17.227   5.136  24.445  1.00  0.00    -0.098 N
HETATM   35  O2  UNL     1      17.153   5.730  25.547  1.00  0.00    -0.531 OA
HETATM   36  O3  UNL     1      18.494   4.939  23.959  1.00  0.00    -0.531 OA
ENDBRANCH   3  34
TORSDOF 10
ENDMDL