MODEL 5
REMARK VINA RESULT: -8.566351145      2.137      3.669
REMARK  7 active torsions:
REMARK  status: ('A' for Active; 'I' for Inactive)
REMARK    1  A    between atoms: N1_1  and  S1_4
REMARK    2  A    between atoms: S1_4  and  C1_7
REMARK    3  A    between atoms: C4_12  and  C5_13
REMARK       I    between atoms: C5_13  and  N3_15
REMARK    4  A    between atoms: N3_15  and  N4_17
REMARK       I    between atoms: N4_17  and  C6_19
REMARK    5  A    between atoms: C6_19  and  C7_21
REMARK    6  A    between atoms: C7_21  and  O5_22
REMARK    7  A    between atoms: O5_22  and  N5_23
ROOT
HETATM    1  C1  UNL     1      14.342   4.793  23.890  1.00  0.00     0.227 A
HETATM    2  N2  UNL     1      14.421   4.536  22.575  1.00  0.00    -0.331 N
ATOM      3  H2  UNL     1      13.560   4.463  22.035  1.00  0.00     0.168 HD
HETATM    4  C2  UNL     1      15.603   4.370  21.944  1.00  0.00     0.051 A
HETATM    5  C3  UNL     1      15.688   4.107  20.597  1.00  0.00     0.047 A
HETATM    6  C4  UNL     1      16.909   3.932  19.929  1.00  0.00     0.035 A
HETATM    7  C8  UNL     1      18.037   4.037  20.699  1.00  0.00     0.018 A
HETATM    8  C9  UNL     1      17.948   4.305  22.068  1.00  0.00     0.020 A
HETATM    9  C10 UNL     1      16.746   4.473  22.707  1.00  0.00     0.059 A
HETATM   10  C11 UNL     1      16.654   4.738  24.061  1.00  0.00     0.260 A
HETATM   11  O8  UNL     1      17.698   4.833  24.757  1.00  0.00    -0.267 OA
HETATM   12  N6  UNL     1      15.453   4.895  24.643  1.00  0.00    -0.298 N
ATOM     13  H6  UNL     1      15.383   5.090  25.642  1.00  0.00     0.171 HD
ENDROOT
BRANCH   6  14
HETATM   14  C5  UNL     1      16.921   3.657  18.498  1.00  0.00     0.270 C
HETATM   15  O3  UNL     1      18.033   3.698  17.851  1.00  0.00    -0.266 OA
HETATM   16  N3  UNL     1      15.717   3.352  17.835  1.00  0.00    -0.263 N
ATOM     17  H3  UNL     1      14.841   3.324  18.355  1.00  0.00     0.190 HD
BRANCH  16  18
HETATM   18  N4  UNL     1      15.725   3.087  16.466  1.00  0.00    -0.265 N
HETATM   19  C6  UNL     1      14.616   2.488  15.808  1.00  0.00     0.262 C
HETATM   20  O4  UNL     1      13.580   2.168  16.418  1.00  0.00    -0.269 OA
ATOM     21  H4  UNL     1      16.551   3.332  15.920  1.00  0.00     0.190 HD
BRANCH  19  22
HETATM   22  C7  UNL     1      14.682   2.230  14.347  1.00  0.00     0.312 C
BRANCH  22  23
HETATM   23  O5  UNL     1      15.919   2.655  13.837  1.00  0.00    -0.212 OA
BRANCH  23  24
HETATM   24  N5  UNL     1      16.616   2.058  12.839  1.00  0.00     0.005 N
HETATM   25  O6  UNL     1      17.522   2.659  12.243  1.00  0.00    -0.511 OA
HETATM   26  O7  UNL     1      16.360   0.751  12.431  1.00  0.00    -0.511 OA
ENDBRANCH  23  24
ENDBRANCH  22  23
ENDBRANCH  19  22
ENDBRANCH  16  18
ENDBRANCH   6  14
BRANCH   1  27
HETATM   27  S1  UNL     1      12.761   4.992  24.613  1.00  0.00     0.289 S
HETATM   28  O1  UNL     1      12.746   6.029  25.681  1.00  0.00    -0.198 OA
HETATM   29  O2  UNL     1      12.402   3.676  25.248  1.00  0.00    -0.198 OA
BRANCH  27  30
HETATM   30  N1  UNL     1      11.578   5.298  23.389  1.00  0.00    -0.322 N
ATOM     31  H12 UNL     1      11.701   6.000  22.660  1.00  0.00     0.169 HD
ATOM     32  H11 UNL     1      10.759   4.700  23.488  1.00  0.00     0.169 HD
ENDBRANCH  27  30
ENDBRANCH   1  27
TORSDOF 7
ENDMDL