MODEL 1
REMARK VINA RESULT: -8.560612840      0.000      0.000
REMARK  10 active torsions:
REMARK  status: ('A' for Active; 'I' for Inactive)
REMARK    1  A    between atoms: C2_2  and  S1_5
REMARK    2  A    between atoms: S1_5  and  N1_8
REMARK    3  A    between atoms: N1_8  and  N2_10
REMARK    4  A    between atoms: N2_10  and  C5_12
REMARK    5  A    between atoms: C8_15  and  C9_16
REMARK    6  A    between atoms: N3_17  and  N4_19
REMARK    7  A    between atoms: C11_24  and  O3_25
REMARK    8  A    between atoms: O3_25  and  N7_26
REMARK    9  A    between atoms: N8_28  and  N9_29
REMARK   10  A    between atoms: N8_28  and  O4_32
ROOT
HETATM    1  C5  UNL     1      15.468   3.014  17.975  1.00  0.00     0.122 A
HETATM    2  C6  UNL     1      14.724   2.007  18.549  1.00  0.00     0.051 A
HETATM    3  C7  UNL     1      13.981   1.171  17.720  1.00  0.00     0.021 A
HETATM    4  C8  UNL     1      13.984   1.344  16.348  1.00  0.00     0.034 A
HETATM    5  C11 UNL     1      14.756   2.385  15.801  1.00  0.00     0.185 A
HETATM    6  N10 UNL     1      15.449   3.154  16.636  1.00  0.00    -0.319 N
ATOM      7  H10 UNL     1      16.008   3.906  16.231  1.00  0.00     0.169 HD
ENDROOT
BRANCH   1   8
HETATM    8  N2  UNL     1      16.173   3.812  18.707  1.00  0.00    -0.276 N
ATOM      9  H2  UNL     1      16.907   4.384  18.290  1.00  0.00     0.189 HD
BRANCH   8  10
HETATM   10  N1  UNL     1      15.913   3.878  20.077  1.00  0.00    -0.225 N
ATOM     11  H1  UNL     1      16.189   3.091  20.665  1.00  0.00     0.200 HD
BRANCH  10  12
HETATM   12  S1  UNL     1      15.149   5.230  20.819  1.00  0.00     0.251 S
HETATM   13  O1  UNL     1      15.615   5.337  22.246  1.00  0.00    -0.204 OA
HETATM   14  O2  UNL     1      15.546   6.471  20.065  1.00  0.00    -0.204 OA
BRANCH  12  15
HETATM   15  C2  UNL     1      13.365   5.062  20.773  1.00  0.00     0.073 C
HETATM   16  C1  UNL     1      12.958   3.717  21.283  1.00  0.00     0.033 C
HETATM   17  C3  UNL     1      12.791   6.119  21.695  1.00  0.00     0.033 C
HETATM   18  C4  UNL     1      12.914   5.304  19.347  1.00  0.00     0.033 C
ENDBRANCH  12  15
ENDBRANCH  10  12
ENDBRANCH   8  10
ENDBRANCH   1   8
BRANCH   5  19
HETATM   19  O3  UNL     1      14.754   2.550  14.434  1.00  0.00    -0.200 OA
BRANCH  19  20
HETATM   20  N7  UNL     1      15.852   2.536  13.646  1.00  0.00    -0.158 N
HETATM   21  N8  UNL     1      16.121   1.607  12.826  1.00  0.00    -0.081 N
ATOM     22  H7  UNL     1      16.502   3.319  13.715  1.00  0.00     0.220 HD
BRANCH  21  23
HETATM   23  N9  UNL     1      15.312   0.481  12.641  1.00  0.00    -0.302 N
ATOM     24  H92 UNL     1      14.489   0.389  13.236  1.00  0.00     0.181 HD
ATOM     25  H91 UNL     1      15.502  -0.242  11.947  1.00  0.00     0.181 HD
ENDBRANCH  21  23
BRANCH  21  26
HETATM   26  O4  UNL     1      17.269   1.696  12.073  1.00  0.00    -0.252 OA
ATOM     27  H4  UNL     1      17.234   1.457  11.154  1.00  0.00     0.248 HD
ENDBRANCH  21  26
ENDBRANCH  19  20
ENDBRANCH   5  19
BRANCH   4  28
HETATM   28  C9  UNL     1      13.230   0.505  15.439  1.00  0.00     0.123 C
HETATM   29  N3  UNL     1      13.197  -0.734  15.434  1.00  0.00    -0.309 N
ATOM     30  H3  UNL     1      12.596  -1.110  14.700  1.00  0.00     0.186 HD
BRANCH  29  31
HETATM   31  N4  UNL     1      13.769  -1.684  16.168  1.00  0.00    -0.276 N
HETATM   32  C10 UNL     1      13.097  -2.427  16.978  1.00  0.00     0.215 C
HETATM   33  N5  UNL     1      11.697  -2.267  17.130  1.00  0.00    -0.065 NA
HETATM   34  N6  UNL     1      13.787  -3.413  17.720  1.00  0.00    -0.065 NA
ATOM     35  H4  UNL     1      14.775  -1.829  16.087  1.00  0.00     0.189 HD
ENDBRANCH  29  31
ENDBRANCH   4  28
TORSDOF 10
ENDMDL