MODEL 1
REMARK VINA RESULT: -7.962392329      0.000      0.000
REMARK  10 active torsions:
REMARK  status: ('A' for Active; 'I' for Inactive)
REMARK    1  A    between atoms: O1_2  and  C2_3
REMARK    2  A    between atoms: C2_3  and  C3_4
REMARK    3  A    between atoms: C3_4  and  N1_5
REMARK    4  A    between atoms: N1_5  and  C4_7
REMARK    5  A    between atoms: C5_10  and  N3_11
REMARK    6  A    between atoms: C11_18  and  C12_19
REMARK    7  A    between atoms: C12_19  and  N5_20
REMARK    8  A    between atoms: C13_24  and  N6_25
REMARK    9  A    between atoms: N6_25  and  C14_27
REMARK   10  A    between atoms: C16_33  and  N9_34
ROOT
HETATM    1  C4  UNL     1      14.465   0.408  18.609  1.00  0.00     0.681 A
HETATM    2  N2  UNL     1      14.818   1.143  19.660  1.00  0.00    -0.176 N
ATOM      3  H2  UNL     1      14.903   0.678  20.564  1.00  0.00     0.186 HD
HETATM    4  C5  UNL     1      15.072   2.482  19.598  1.00  0.00     0.131 A
HETATM    5  C11 UNL     1      14.936   3.051  18.338  1.00  0.00     0.057 A
HETATM    6  C13 UNL     1      14.574   2.299  17.251  1.00  0.00     0.148 A
HETATM    7  N11 UNL     1      14.345   0.988  17.415  1.00  0.00    -0.175 N
ATOM      8  H11 UNL     1      14.075   0.424  16.610  1.00  0.00     0.186 HD
ENDROOT
BRANCH   6   9
HETATM    9  N6  UNL     1      14.429   2.833  15.951  1.00  0.00    -0.175 N
ATOM     10  H6  UNL     1      13.904   3.703  15.867  1.00  0.00     0.186 HD
BRANCH   9  11
HETATM   11  C14 UNL     1      14.891   2.335  14.867  1.00  0.00     0.699 A
HETATM   12  N7  UNL     1      15.936   2.795  14.164  1.00  0.00    -0.186 N
HETATM   13  C15 UNL     1      16.363   2.196  13.040  1.00  0.00     0.215 A
ATOM     14  H7  UNL     1      16.423   3.628  14.494  1.00  0.00     0.185 HD
HETATM   15  N8  UNL     1      15.752   1.096  12.566  1.00  0.00    -0.187 N
HETATM   16  C16 UNL     1      14.696   0.610  13.255  1.00  0.00     0.691 A
ATOM     17  H8  UNL     1      16.076   0.642  11.712  1.00  0.00     0.185 HD
HETATM   18  N10 UNL     1      14.300   1.228  14.365  1.00  0.00    -0.022 N
ATOM     19  H10 UNL     1      13.500   0.843  14.867  1.00  0.00     0.203 HD
BRANCH  16  20
HETATM   20  N9  UNL     1      14.049  -0.456  12.858  1.00  0.00    -0.234 N
ATOM     21  H92 UNL     1      14.549  -1.343  12.799  1.00  0.00     0.174 HD
ATOM     22  H91 UNL     1      13.061  -0.421  12.608  1.00  0.00     0.174 HD
ENDBRANCH  16  20
ENDBRANCH   9  11
ENDBRANCH   6   9
BRANCH   5  23
HETATM   23  C12 UNL     1      15.170   4.490  18.179  1.00  0.00     0.275 C
BRANCH  23  24
HETATM   24  N5  UNL     1      13.981   5.297  18.334  1.00  0.00    -0.075 N
ATOM     25  H53 UNL     1      13.555   5.136  19.246  1.00  0.00     0.274 HD
ATOM     26  H52 UNL     1      14.226   6.283  18.429  1.00  0.00     0.274 HD
ATOM     27  H51 UNL     1      13.295   5.169  17.590  1.00  0.00     0.274 HD
ENDBRANCH  23  24
ENDBRANCH   5  23
BRANCH   4  28
HETATM   28  N3  UNL     1      15.451   3.200  20.747  1.00  0.00    -0.363 N
HETATM   29  C6  UNL     1      16.791   3.482  21.197  1.00  0.00     0.154 C
HETATM   30  C7  UNL     1      16.822   4.904  21.714  1.00  0.00     0.291 C
HETATM   31  N4  UNL     1      16.006   5.055  22.874  1.00  0.00     0.087 N
HETATM   32  C8  UNL     1      16.831   4.934  24.052  1.00  0.00     0.310 C
HETATM   33  C9  UNL     1      14.927   4.103  22.956  1.00  0.00     0.291 C
HETATM   34  C10 UNL     1      14.389   3.726  21.592  1.00  0.00     0.154 C
ENDBRANCH   4  28
BRANCH   1  35
HETATM   35  N1  UNL     1      14.230  -0.855  18.700  1.00  0.00    -0.224 N
ATOM     36  H1  UNL     1      13.684  -1.189  19.493  1.00  0.00     0.177 HD
BRANCH  35  37
HETATM   37  C3  UNL     1      14.697  -1.818  17.743  1.00  0.00     0.164 C
BRANCH  37  38
HETATM   38  C2  UNL     1      13.486  -2.323  16.977  1.00  0.00     0.187 C
BRANCH  38  39
HETATM   39  O1  UNL     1      13.314  -1.487  15.877  1.00  0.00    -0.394 OA
HETATM   40  C1  UNL     1      11.975  -1.235  15.615  1.00  0.00     0.201 C
ENDBRANCH  38  39
ENDBRANCH  37  38
ENDBRANCH  35  37
ENDBRANCH   1  35
TORSDOF 10
ENDMDL