MODEL 3
REMARK VINA RESULT: -7.996172286      2.153      4.249
REMARK  8 active torsions:
REMARK  status: ('A' for Active; 'I' for Inactive)
REMARK    1  A    between atoms: C8_9  and  O2_10
REMARK    2  A    between atoms: O2_10  and  C9_11
REMARK    3  A    between atoms: C9_11  and  C10_12
REMARK    4  A    between atoms: C9_11  and  C16_27
REMARK    5  A    between atoms: C10_12  and  C11_14
REMARK    6  A    between atoms: C11_14  and  O4_15
REMARK    7  A    between atoms: O4_15  and  C12_16
REMARK    8  A    between atoms: C16_27  and  O6_28
ROOT
HETATM    1  C9  UNL     1      13.324   3.943  18.973  1.00  0.00     0.231 C
ENDROOT
BRANCH   1   2
HETATM    2  O2  UNL     1      13.222   3.779  20.378  1.00  0.00    -0.362 OA
BRANCH   2   3
HETATM    3  C8  UNL     1      13.392   4.964  21.075  1.00  0.00     0.192 C
HETATM    4  C1  UNL     1      13.355   4.544  22.526  1.00  0.00     0.155 C
HETATM    5  O1  UNL     1      14.467   4.274  22.949  1.00  0.00    -0.295 OA
HETATM    6  C2  UNL     1      12.295   4.393  23.511  1.00  0.00     0.081 C
HETATM    7  C3  UNL     1      11.038   5.156  23.270  1.00  0.00     0.012 C
HETATM    8  C4  UNL     1      10.322   4.837  22.001  1.00  0.00    -0.010 A
HETATM    9  C5  UNL     1       9.761   6.096  21.281  1.00  0.00     0.010 A
HETATM   10  C6  UNL     1      10.939   5.315  20.755  1.00  0.00    -0.007 A
HETATM   11  C7  UNL     1      12.283   5.955  20.911  1.00  0.00     0.044 C
ENDBRANCH   2   3
ENDBRANCH   1   2
BRANCH   1  12
HETATM   12  C10 UNL     1      14.634   4.486  18.618  1.00  0.00     0.182 C
HETATM   13  O3  UNL     1      14.637   5.614  18.066  1.00  0.00    -0.293 OA
BRANCH  12  14
HETATM   14  C11 UNL     1      15.967   3.901  18.807  1.00  0.00     0.252 C
BRANCH  14  15
HETATM   15  O4  UNL     1      16.666   4.555  19.864  1.00  0.00    -0.352 OA
BRANCH  15  16
HETATM   16  C12 UNL     1      17.692   3.726  20.294  1.00  0.00     0.297 C
HETATM   17  O5  UNL     1      18.924   4.255  19.907  1.00  0.00    -0.306 OA
HETATM   18  C13 UNL     1      19.631   4.535  21.070  1.00  0.00     0.526 C
HETATM   19  N1  UNL     1      19.002   5.615  21.791  1.00  0.00    -0.021 N
HETATM   20  N2  UNL     1      19.232   3.387  21.909  1.00  0.00    -0.012 N
HETATM   21  C14 UNL     1      17.756   5.061  22.349  1.00  0.00     0.275 C
ATOM     22  H12 UNL     1      19.607   6.042  22.493  1.00  0.00     0.282 HD
ATOM     23  H11 UNL     1      18.858   6.452  21.226  1.00  0.00     0.282 HD
HETATM   24  C15 UNL     1      17.785   3.666  21.801  1.00  0.00     0.271 C
ATOM     25  H22 UNL     1      19.564   2.459  21.645  1.00  0.00     0.283 HD
ATOM     26  H21 UNL     1      19.639   3.308  22.841  1.00  0.00     0.283 HD
ENDBRANCH  15  16
ENDBRANCH  14  15
ENDBRANCH  12  14
ENDBRANCH   1  12
BRANCH   1  27
HETATM   27  C16 UNL     1      12.994   2.567  18.456  1.00  0.00     0.138 A
HETATM   28  C17 UNL     1      13.582   1.375  19.101  1.00  0.00     0.274 A
HETATM   29  N3  UNL     1      12.289   0.917  19.567  1.00  0.00    -0.069 N
HETATM   30  C18 UNL     1      11.673   2.091  18.977  1.00  0.00     0.274 A
ATOM     31  H32 UNL     1      11.956  -0.015  19.321  1.00  0.00     0.277 HD
ATOM     32  H31 UNL     1      12.145   0.704  20.554  1.00  0.00     0.277 HD
BRANCH  27  33
HETATM   33  O6  UNL     1      13.152   2.518  17.053  1.00  0.00    -0.383 OA
ATOM     34  H6  UNL     1      12.523   3.090  16.630  1.00  0.00     0.210 HD
ENDBRANCH  27  33
ENDBRANCH   1  27
TORSDOF 8
ENDMDL