MODEL 3
REMARK VINA RESULT: -7.836537740      1.193      1.331
REMARK  7 active torsions:
REMARK  status: ('A' for Active; 'I' for Inactive)
REMARK    1  A    between atoms: C2_3  and  C3_4
REMARK    2  A    between atoms: C6_9  and  N3_10
REMARK    3  A    between atoms: N5_16  and  S1_17
REMARK    4  A    between atoms: S1_17  and  N6_20
REMARK    5  A    between atoms: N6_20  and  C8_22
REMARK    6  A    between atoms: C8_22  and  C9_23
REMARK    7  A    between atoms: C9_23  and  N7_24
ROOT
HETATM    1  C1  UNL     1      13.749   5.495  17.218  1.00  0.00     0.161 C
HETATM    2  N1  UNL     1      14.662   4.717  18.048  1.00  0.00    -0.299 N
HETATM    3  C2  UNL     1      15.119   3.477  17.834  1.00  0.00     0.082 A
HETATM    4  C7  UNL     1      15.956   3.139  18.874  1.00  0.00     0.147 A
HETATM    5  N5  UNL     1      16.007   4.195  19.732  1.00  0.00    -0.182 N
HETATM    6  C13 UNL     1      15.221   5.140  19.220  1.00  0.00     0.343 A
HETATM    7  O3  UNL     1      14.999   6.274  19.719  1.00  0.00    -0.245 OA
ENDROOT
BRANCH   5   8
HETATM    8  S1  UNL     1      16.936   4.237  21.180  1.00  0.00     0.328 S
HETATM    9  O1  UNL     1      18.336   4.685  20.819  1.00  0.00    -0.182 OA
HETATM   10  O2  UNL     1      17.089   2.826  21.698  1.00  0.00    -0.182 OA
BRANCH   8  11
HETATM   11  N6  UNL     1      16.295   5.206  22.400  1.00  0.00    -0.300 N
ATOM     12  H6  UNL     1      16.175   6.210  22.264  1.00  0.00     0.173 HD
BRANCH  11  13
HETATM   13  C8  UNL     1      15.927   4.588  23.618  1.00  0.00     0.153 C
BRANCH  13  14
HETATM   14  C9  UNL     1      14.397   4.682  23.718  1.00  0.00     0.143 C
BRANCH  14  15
HETATM   15  N7  UNL     1      13.891   5.171  22.474  1.00  0.00    -0.361 N
HETATM   16  C10 UNL     1      12.630   5.347  22.235  1.00  0.00     0.171 C
HETATM   17  N8  UNL     1      12.093   5.831  21.016  1.00  0.00    -0.361 N
HETATM   18  N9  UNL     1      11.584   5.083  23.162  1.00  0.00    -0.361 N
HETATM   19  C11 UNL     1      10.661   5.893  21.206  1.00  0.00     0.142 C
ATOM     20  H8  UNL     1      12.612   6.084  20.175  1.00  0.00     0.162 HD
HETATM   21  C12 UNL     1      10.385   4.949  22.337  1.00  0.00     0.142 C
ATOM     22  H9  UNL     1      11.655   5.004  24.176  1.00  0.00     0.162 HD
ATOM     23  H7  UNL     1      14.558   5.392  21.735  1.00  0.00     0.162 HD
ENDBRANCH  14  15
ENDBRANCH  13  14
ENDBRANCH  11  13
ENDBRANCH   8  11
ENDBRANCH   5   8
BRANCH   3  24
HETATM   24  C3  UNL     1      14.788   2.611  16.685  1.00  0.00     0.079 A
HETATM   25  C4  UNL     1      13.955   1.530  16.864  1.00  0.00     0.050 A
HETATM   26  C5  UNL     1      13.655   0.734  15.785  1.00  0.00     0.108 A
HETATM   27  N2  UNL     1      14.184   1.024  14.569  1.00  0.00    -0.202 N
HETATM   28  C6  UNL     1      14.996   2.082  14.406  1.00  0.00     0.676 A
ATOM     29  H2  UNL     1      13.961   0.432  13.768  1.00  0.00     0.183 HD
HETATM   30  N4  UNL     1      15.284   2.856  15.464  1.00  0.00    -0.190 N
ATOM     31  H4  UNL     1      15.901   3.658  15.333  1.00  0.00     0.184 HD
BRANCH  28  32
HETATM   32  N3  UNL     1      15.466   2.308  13.229  1.00  0.00    -0.234 N
ATOM     33  H32 UNL     1      15.688   1.561  12.571  1.00  0.00     0.174 HD
ATOM     34  H31 UNL     1      15.618   3.277  12.952  1.00  0.00     0.174 HD
ENDBRANCH  28  32
ENDBRANCH   3  24
TORSDOF 7
ENDMDL