MODEL 2
REMARK VINA RESULT: -7.572131672      3.351      7.054
REMARK  11 active torsions:
REMARK  status: ('A' for Active; 'I' for Inactive)
REMARK    1  A    between atoms: N1_2  and  C2_4
REMARK    2  A    between atoms: C3_7  and  N3_8
REMARK    3  A    between atoms: N3_8  and  C4_10
REMARK    4  A    between atoms: C4_10  and  C5_11
REMARK    5  A    between atoms: C5_11  and  N4_12
REMARK       I    between atoms: N4_12  and  C6_14
REMARK    6  A    between atoms: C6_14  and  O2_16
REMARK    7  A    between atoms: C9_21  and  N6_22
REMARK    8  A    between atoms: N7_25  and  C10_26
REMARK    9  A    between atoms: C10_26  and  C11_27
REMARK   10  A    between atoms: C11_27  and  C12_29
REMARK   11  A    between atoms: C12_29  and  O5_31
ROOT
HETATM    1  C2  UNL     1      12.294   4.674  23.349  1.00  0.00     0.681 A
HETATM    2  N2  UNL     1      13.385   4.991  24.082  1.00  0.00    -0.174 N
ATOM      3  H2  UNL     1      13.286   5.632  24.870  1.00  0.00     0.186 HD
HETATM    4  C3  UNL     1      14.586   4.487  23.801  1.00  0.00     0.152 A
HETATM    5  C8  UNL     1      14.659   3.609  22.704  1.00  0.00     0.139 A
HETATM    6  N5  UNL     1      15.662   2.933  22.145  1.00  0.00    -0.184 N
ATOM      7  H5  UNL     1      16.630   2.955  22.464  1.00  0.00     0.184 HD
HETATM    8  C9  UNL     1      15.212   2.219  21.100  1.00  0.00     0.680 A
HETATM    9  N7  UNL     1      13.892   2.432  20.974  1.00  0.00    -0.158 N
HETATM   10  C14 UNL     1      13.547   3.293  21.967  1.00  0.00     0.170 A
HETATM   11  N8  UNL     1      12.366   3.838  22.307  1.00  0.00    -0.173 N
ATOM     12  H8  UNL     1      11.527   3.616  21.771  1.00  0.00     0.186 HD
ENDROOT
BRANCH   4  13
HETATM   13  N3  UNL     1      15.642   4.703  24.394  1.00  0.00    -0.352 N
ATOM     14  H3  UNL     1      15.642   4.102  25.218  1.00  0.00     0.166 HD
BRANCH  13  15
HETATM   15  C4  UNL     1      16.817   5.404  24.421  1.00  0.00     0.082 C
BRANCH  15  16
HETATM   16  C5  UNL     1      18.057   4.652  23.976  1.00  0.00     0.169 C
BRANCH  16  17
HETATM   17  N4  UNL     1      18.461   5.177  22.657  1.00  0.00    -0.332 N
HETATM   18  C6  UNL     1      18.673   4.225  21.627  1.00  0.00     0.360 C
HETATM   19  O1  UNL     1      18.530   2.998  21.804  1.00  0.00    -0.239 OA
ATOM     20  H4  UNL     1      18.583   6.177  22.494  1.00  0.00     0.165 HD
BRANCH  18  21
HETATM   21  O2  UNL     1      19.059   4.617  20.342  1.00  0.00    -0.309 OA
HETATM   22  C7  UNL     1      18.758   3.881  19.187  1.00  0.00     0.215 C
ENDBRANCH  18  21
ENDBRANCH  16  17
ENDBRANCH  15  16
ENDBRANCH  13  15
ENDBRANCH   4  13
BRANCH   1  23
HETATM   23  N1  UNL     1      11.142   5.174  23.641  1.00  0.00    -0.230 N
HETATM   24  C1  UNL     1      10.125   5.210  22.617  1.00  0.00     0.165 C
ATOM     25  H1  UNL     1      10.954   5.538  24.575  1.00  0.00     0.177 HD
ENDBRANCH   1  23
BRANCH   8  26
HETATM   26  N6  UNL     1      15.950   1.458  20.352  1.00  0.00    -0.234 N
ATOM     27  H62 UNL     1      15.866   0.448  20.239  1.00  0.00     0.174 HD
ATOM     28  H61 UNL     1      16.723   1.787  19.773  1.00  0.00     0.174 HD
ENDBRANCH   8  26
BRANCH   9  29
HETATM   29  C10 UNL     1      13.065   1.843  19.975  1.00  0.00     0.239 C
BRANCH  29  30
HETATM   30  C11 UNL     1      12.887   2.701  18.779  1.00  0.00     0.242 C
HETATM   31  O3  UNL     1      11.970   3.535  18.725  1.00  0.00    -0.285 OA
BRANCH  30  32
HETATM   32  C12 UNL     1      13.816   2.543  17.666  1.00  0.00     0.330 C
HETATM   33  O4  UNL     1      13.496   1.914  16.625  1.00  0.00    -0.256 OA
BRANCH  32  34
HETATM   34  O5  UNL     1      15.102   3.076  17.696  1.00  0.00    -0.320 OA
HETATM   35  C13 UNL     1      15.307   4.423  18.070  1.00  0.00     0.213 C
ENDBRANCH  32  34
ENDBRANCH  30  32
ENDBRANCH  29  30
ENDBRANCH   9  29
TORSDOF 11
ENDMDL