MODEL 2
REMARK VINA RESULT: -5.905820328      8.097     10.609
REMARK  3 active torsions:
REMARK  status: ('A' for Active; 'I' for Inactive)
REMARK    1  A    between atoms: C3_3  and  N1_6
REMARK    2  A    between atoms: C7_11  and  N3_12
REMARK    3  A    between atoms: N7_23  and  C11_24
ROOT
HETATM    1  C1  UNL     1      36.950 123.212  25.793  1.00  0.00     0.015 C
HETATM    2  C2  UNL     1      37.257 124.377  25.789  1.00  0.00    -0.086 C
HETATM    3  C3  UNL     1      37.663 125.825  25.771  1.00  0.00     0.087 C
HETATM    4  C4  UNL     1      36.744 126.451  24.741  1.00  0.00     0.052 C
HETATM    5  C5  UNL     1      37.129 126.342  27.125  1.00  0.00     0.052 C
ENDROOT
BRANCH   3   6
HETATM    6  N1  UNL     1      39.000 125.899  25.629  1.00  0.00    -0.354 N
HETATM    7  C6  UNL     1      40.058 125.712  25.059  1.00  0.00     0.150 A
HETATM    8  N2  UNL     1      41.215 126.163  25.661  1.00  0.00    -0.174 N
HETATM    9  C10 UNL     1      40.264 125.081  23.839  1.00  0.00     0.140 A
HETATM   10  C7  UNL     1      42.421 126.000  25.105  1.00  0.00     0.681 A
ATOM     11  H2  UNL     1      41.149 126.638  26.561  1.00  0.00     0.186 HD
HETATM   12  N4  UNL     1      42.598 125.388  23.924  1.00  0.00    -0.173 N
HETATM   13  C9  UNL     1      41.521 124.918  23.273  1.00  0.00     0.171 A
ATOM     14  H4  UNL     1      43.532 125.281  23.529  1.00  0.00     0.186 HD
HETATM   15  N7  UNL     1      41.375 124.273  22.097  1.00  0.00    -0.260 N
HETATM   16  N6  UNL     1      40.086 124.043  21.935  1.00  0.00    -0.238 N
HETATM   17  N5  UNL     1      39.425 124.520  22.964  1.00  0.00    -0.279 N
ATOM     18  H6  UNL     1      39.667 123.569  21.135  1.00  0.00     0.208 HD
ATOM     19  H5  UNL     1      38.413 124.469  23.080  1.00  0.00     0.189 HD
ATOM     20  H1  UNL     1      39.288 126.387  26.477  1.00  0.00     0.163 HD
BRANCH  10  21
HETATM   21  N3  UNL     1      43.500 126.432  25.685  1.00  0.00    -0.230 N
HETATM   22  C8  UNL     1      44.437 127.307  25.011  1.00  0.00     0.165 C
ATOM     23  H3  UNL     1      43.694 126.145  26.645  1.00  0.00     0.177 HD
ENDBRANCH  10  21
BRANCH  15  24
HETATM   24  C11 UNL     1      42.393 123.881  21.152  1.00  0.00     0.148 C
HETATM   25  C12 UNL     1      42.692 122.409  21.278  1.00  0.00     0.028 C
ENDBRANCH  15  24
ENDBRANCH   3   6
TORSDOF 3
ENDMDL