MODEL 2
REMARK VINA RESULT: -6.101828959      2.001      3.668
REMARK  2 active torsions:
REMARK  status: ('A' for Active; 'I' for Inactive)
REMARK    1  A    between atoms: C8_10  and  O1_11
REMARK    2  A    between atoms: C15_20  and  O2_21
ROOT
HETATM    1  C1  UNL     1      38.449 123.309  24.341  1.00  0.00     0.018 C
HETATM    2  C2  UNL     1      39.937 123.364  24.058  1.00  0.00    -0.010 C
HETATM    3  C3  UNL     1      40.710 123.256  25.372  1.00  0.00     0.021 C
HETATM    4  C4  UNL     1      41.656 124.433  25.370  1.00  0.00     0.048 C
HETATM    5  C5  UNL     1      42.796 124.252  24.440  1.00  0.00     0.326 C
HETATM    6  N1  UNL     1      43.174 122.923  24.129  1.00  0.00    -0.372 N
ATOM      7  H1  UNL     1      43.969 122.556  24.654  1.00  0.00     0.160 HD
HETATM    8  C6  UNL     1      42.656 122.128  23.284  1.00  0.00     0.067 C
HETATM    9  C7  UNL     1      41.522 122.354  22.390  1.00  0.00     0.084 C
HETATM   10  C8  UNL     1      41.498 123.616  21.623  1.00  0.00     0.163 C
HETATM   11  C9  UNL     1      41.410 124.786  22.555  1.00  0.00     0.260 C
HETATM   12  C10 UNL     1      40.281 124.707  23.517  1.00  0.00     0.041 C
HETATM   13  C11 UNL     1      40.738 125.493  24.755  1.00  0.00    -0.029 C
HETATM   14  C12 UNL     1      39.621 125.900  25.638  1.00  0.00     0.016 C
HETATM   15  C13 UNL     1      41.495 126.746  24.379  1.00  0.00     0.040 C
HETATM   16  C14 UNL     1      42.760 126.437  23.616  1.00  0.00     0.276 C
HETATM   17  N2  UNL     1      42.675 125.054  23.214  1.00  0.00     0.119 N
HETATM   18  C15 UNL     1      40.262 122.202  23.197  1.00  0.00     0.138 C
ENDROOT
BRANCH  10  19
HETATM   19  O1  UNL     1      42.547 123.753  20.734  1.00  0.00    -0.393 OA
ATOM     20  H1  UNL     1      42.708 124.649  20.462  1.00  0.00     0.210 HD
ENDBRANCH  10  19
BRANCH  18  21
HETATM   21  O2  UNL     1      39.251 121.838  22.307  1.00  0.00    -0.394 OA
ATOM     22  H2  UNL     1      39.557 121.418  21.512  1.00  0.00     0.210 HD
ENDBRANCH  18  21
TORSDOF 2
ENDMDL