MODEL 4
REMARK VINA RESULT: -7.247347664      2.443      3.238
REMARK  6 active torsions:
REMARK  status: ('A' for Active; 'I' for Inactive)
REMARK    1  A    between atoms: C2_2  and  C3_3
REMARK    2  A    between atoms: C4_4  and  C5_5
REMARK    3  A    between atoms: C5_5  and  N1_6
REMARK    4  A    between atoms: N1_6  and  C6_8
REMARK    5  A    between atoms: C6_8  and  N2_10
REMARK    6  A    between atoms: N2_10  and  C7_12
ROOT
HETATM    1  C7  UNL     1      45.068 131.032  21.560  1.00  0.00     0.699 A
HETATM    2  N3  UNL     1      45.131 129.690  21.599  1.00  0.00    -0.191 N
ATOM      3  H3  UNL     1      45.470 129.187  20.779  1.00  0.00     0.184 HD
HETATM    4  C8  UNL     1      44.768 129.002  22.671  1.00  0.00     0.061 A
HETATM    5  C9  UNL     1      44.859 127.499  22.654  1.00  0.00     0.072 C
HETATM    6  C10 UNL     1      44.314 129.691  23.773  1.00  0.00     0.151 A
HETATM    7  C11 UNL     1      43.931 128.900  24.915  1.00  0.00     0.121 C
HETATM    8  N4  UNL     1      43.641 128.256  25.830  1.00  0.00    -0.190 NA
HETATM    9  N5  UNL     1      44.251 131.025  23.735  1.00  0.00    -0.275 N
ATOM     10  H5  UNL     1      43.914 131.541  24.549  1.00  0.00     0.188 HD
HETATM   11  N6  UNL     1      44.627 131.688  22.635  1.00  0.00    -0.131 N
ATOM     12  H6  UNL     1      44.575 132.707  22.619  1.00  0.00     0.205 HD
ENDROOT
BRANCH   1  13
HETATM   13  N2  UNL     1      45.450 131.628  20.462  1.00  0.00    -0.165 N
ATOM     14  H2  UNL     1      46.344 132.116  20.424  1.00  0.00     0.186 HD
BRANCH  13  15
HETATM   15  C6  UNL     1      44.595 131.588  19.305  1.00  0.00     0.187 C
HETATM   16  S1  UNL     1      42.989 131.924  19.441  1.00  0.00    -0.040 SA
BRANCH  15  17
HETATM   17  N1  UNL     1      45.151 131.255  18.051  1.00  0.00    -0.356 N
ATOM     18  H1  UNL     1      46.005 130.700  18.017  1.00  0.00     0.162 HD
BRANCH  17  19
HETATM   19  C5  UNL     1      44.546 131.678  16.827  1.00  0.00     0.216 C
BRANCH  19  20
HETATM   20  C4  UNL     1      45.531 131.544  15.734  1.00  0.00    -0.087 C
HETATM   21  C3  UNL     1      46.320 131.418  14.831  1.00  0.00    -0.105 C
BRANCH  21  22
HETATM   22  C2  UNL     1      47.277 131.242  13.711  1.00  0.00     0.089 C
HETATM   23  C1  UNL     1      47.812 129.810  13.701  1.00  0.00     0.018 C
ENDBRANCH  21  22
ENDBRANCH  19  20
ENDBRANCH  17  19
ENDBRANCH  15  17
ENDBRANCH  13  15
ENDBRANCH   1  13
TORSDOF 6
ENDMDL