MODEL 4
REMARK VINA RESULT: -4.886309770      4.031      5.680
REMARK  3 active torsions:
REMARK  status: ('A' for Active; 'I' for Inactive)
REMARK    1  A    between atoms: N2_8  and  C5_9
REMARK    2  A    between atoms: C5_9  and  N3_11
REMARK    3  A    between atoms: N3_11  and  N4_13
ROOT
HETATM    1  C5  UNL     1      44.350 129.227  24.110  1.00  0.00     0.191 C
HETATM    2  S2  UNL     1      44.679 129.250  25.741  1.00  0.00    -0.039 SA
ENDROOT
BRANCH   1   3
HETATM    3  N2  UNL     1      43.997 127.971  23.571  1.00  0.00    -0.300 N
HETATM    4  C1  UNL     1      42.760 127.363  23.904  1.00  0.00     0.176 C
HETATM    5  S1  UNL     1      41.362 128.194  23.844  1.00  0.00    -0.041 SA
HETATM    6  N1  UNL     1      42.784 125.970  24.278  1.00  0.00    -0.367 N
HETATM    7  C2  UNL     1      44.071 125.313  24.027  1.00  0.00     0.123 C
ATOM      8  H1  UNL     1      41.979 125.487  24.679  1.00  0.00     0.161 HD
HETATM    9  C3  UNL     1      44.618 125.769  22.692  1.00  0.00     0.040 C
HETATM   10  C4  UNL     1      44.904 127.248  22.671  1.00  0.00     0.135 C
ENDBRANCH   1   3
BRANCH   1  11
HETATM   11  N3  UNL     1      44.458 130.440  23.409  1.00  0.00    -0.295 N
ATOM     12  H3  UNL     1      44.840 131.266  23.868  1.00  0.00     0.183 HD
BRANCH  11  13
HETATM   13  N4  UNL     1      44.033 130.506  22.063  1.00  0.00    -0.225 NA
HETATM   14  C6  UNL     1      45.127 130.615  21.145  1.00  0.00     0.140 C
HETATM   15  C7  UNL     1      45.142 131.886  20.353  1.00  0.00     0.183 C
HETATM   16  O1  UNL     1      43.952 132.191  19.742  1.00  0.00    -0.389 OA
HETATM   17  C8  UNL     1      42.835 131.666  20.363  1.00  0.00     0.183 C
HETATM   18  C9  UNL     1      43.135 131.625  21.858  1.00  0.00     0.140 C
ENDBRANCH  11  13
ENDBRANCH   1  11
TORSDOF 3
ENDMDL