MODEL 3
REMARK VINA RESULT: -5.834394195      7.804      9.489
REMARK  2 active torsions:
REMARK  status: ('A' for Active; 'I' for Inactive)
REMARK    1  A    between atoms: C8_10  and  O2_11
REMARK    2  A    between atoms: C12_16  and  C13_17
ROOT
HETATM    1  C1  UNL     1      37.723 126.695  23.834  1.00  0.00     0.012 C
HETATM    2  C2  UNL     1      38.613 125.753  24.501  1.00  0.00     0.026 C
HETATM    3  C3  UNL     1      39.184 124.657  23.582  1.00  0.00     0.279 C
HETATM    4  N1  UNL     1      40.120 124.096  24.473  1.00  0.00     0.107 N
HETATM    5  C4  UNL     1      40.916 125.267  24.924  1.00  0.00     0.245 C
HETATM    6  C5  UNL     1      42.177 125.200  24.215  1.00  0.00     0.047 C
HETATM    7  C6  UNL     1      42.816 126.335  23.547  1.00  0.00     0.015 C
HETATM    8  C7  UNL     1      41.946 124.150  23.168  1.00  0.00     0.169 C
HETATM    9  O1  UNL     1      42.926 123.276  22.891  1.00  0.00    -0.353 OA
HETATM   10  C8  UNL     1      42.234 122.169  22.359  1.00  0.00     0.260 C
HETATM   11  C9  UNL     1      40.805 122.254  22.931  1.00  0.00     0.104 C
HETATM   12  C10 UNL     1      41.059 123.212  24.020  1.00  0.00     0.187 C
HETATM   13  C11 UNL     1      41.858 122.535  25.080  1.00  0.00     0.052 C
HETATM   14  C12 UNL     1      39.957 126.341  24.962  1.00  0.00     0.126 C
ENDROOT
BRANCH  14  15
HETATM   15  C13 UNL     1      40.221 127.650  24.394  1.00  0.00     0.179 C
HETATM   16  O3  UNL     1      40.420 128.684  25.099  1.00  0.00    -0.648 OA
HETATM   17  O4  UNL     1      40.291 127.936  23.017  1.00  0.00    -0.648 OA
ENDBRANCH  14  15
BRANCH  10  18
HETATM   18  O2  UNL     1      42.179 122.186  20.989  1.00  0.00    -0.371 OA
ATOM     19  H2  UNL     1      41.296 122.307  20.658  1.00  0.00     0.212 HD
ENDBRANCH  10  18
TORSDOF 2
ENDMDL