MODEL 3
REMARK VINA RESULT: -6.216589851      0.983      1.980
REMARK  6 active torsions:
REMARK  status: ('A' for Active; 'I' for Inactive)
REMARK    1  A    between atoms: C2_2  and  N1_3
REMARK    2  A    between atoms: N2_6  and  C5_7
REMARK    3  A    between atoms: C5_7  and  N3_9
REMARK    4  A    between atoms: N3_9  and  C6_11
REMARK    5  A    between atoms: C6_11  and  O1_13
REMARK    6  A    between atoms: O1_13  and  C7_14
ROOT
HETATM    1  C5  UNL     1      44.352 131.616  18.202  1.00  0.00     0.176 C
HETATM    2  S1  UNL     1      42.739 131.843  18.120  1.00  0.00    -0.041 SA
ENDROOT
BRANCH   1   3
HETATM    3  N2  UNL     1      45.012 131.082  17.066  1.00  0.00    -0.355 N
HETATM    4  C4  UNL     1      45.377 129.698  16.909  1.00  0.00     0.144 C
HETATM    5  C3  UNL     1      46.705 129.677  16.125  1.00  0.00     0.136 C
HETATM    6  N1  UNL     1      46.402 130.061  14.796  1.00  0.00    -0.410 N
HETATM    7  C9  UNL     1      45.488 131.148  14.672  1.00  0.00     0.136 C
HETATM    8  C8  UNL     1      45.363 131.964  15.940  1.00  0.00     0.144 C
BRANCH   6   9
HETATM    9  C2  UNL     1      47.433 129.974  13.835  1.00  0.00     0.112 C
HETATM   10  C1  UNL     1      47.624 131.152  12.942  1.00  0.00     0.026 C
ENDBRANCH   6   9
ENDBRANCH   1   3
BRANCH   1  11
HETATM   11  N3  UNL     1      45.078 131.922  19.371  1.00  0.00    -0.304 N
ATOM     12  H3  UNL     1      45.729 132.706  19.315  1.00  0.00     0.171 HD
BRANCH  11  13
HETATM   13  C6  UNL     1      44.996 131.253  20.611  1.00  0.00     0.225 C
HETATM   14  S2  UNL     1      45.718 129.779  20.733  1.00  0.00    -0.032 SA
BRANCH  13  15
HETATM   15  O1  UNL     1      44.333 131.788  21.725  1.00  0.00    -0.235 OA
BRANCH  15  16
HETATM   16  C7  UNL     1      43.002 131.463  21.959  1.00  0.00     0.379 C
HETATM   17  N4  UNL     1      42.564 130.243  22.540  1.00  0.00    -0.032 NA
HETATM   18  O2  UNL     1      42.144 132.330  21.620  1.00  0.00    -0.242 OA
ENDBRANCH  15  16
ENDBRANCH  13  15
ENDBRANCH  11  13
ENDBRANCH   1  11
TORSDOF 6
ENDMDL