MODEL 4
REMARK VINA RESULT: -5.670210303      3.223      6.338
REMARK  3 active torsions:
REMARK  status: ('A' for Active; 'I' for Inactive)
REMARK    1  A    between atoms: C2_2  and  N1_5
REMARK    2  A    between atoms: N1_5  and  C5_7
REMARK    3  A    between atoms: C5_7  and  N2_9
REMARK       I    between atoms: N3_12  and  C8_13
ROOT
HETATM    1  N2  UNL     1      44.734 131.203  18.134  1.00  0.00    -0.278 N
HETATM    2  C6  UNL     1      45.599 130.577  19.112  1.00  0.00     0.162 C
HETATM    3  C7  UNL     1      45.556 131.456  20.344  1.00  0.00     0.164 C
HETATM    4  N3  UNL     1      44.146 131.621  20.700  1.00  0.00    -0.256 N
HETATM    5  C8  UNL     1      43.555 131.641  21.966  1.00  0.00     0.342 C
HETATM    6  N4  UNL     1      44.360 131.484  23.112  1.00  0.00    -0.039 NA
HETATM    7  O1  UNL     1      42.318 131.795  22.078  1.00  0.00    -0.250 OA
HETATM    8  S2  UNL     1      43.373 131.795  19.093  1.00  0.00     0.077 SA
ENDROOT
BRANCH   1   9
HETATM    9  C5  UNL     1      44.910 131.325  16.740  1.00  0.00     0.181 C
HETATM   10  S1  UNL     1      43.628 131.807  15.854  1.00  0.00    -0.040 SA
BRANCH   9  11
HETATM   11  N1  UNL     1      46.169 131.030  16.179  1.00  0.00    -0.358 N
ATOM     12  H1  UNL     1      46.998 131.432  16.617  1.00  0.00     0.162 HD
BRANCH  11  13
HETATM   13  C2  UNL     1      46.353 130.190  15.017  1.00  0.00     0.021 C
HETATM   14  C1  UNL     1      47.732 129.587  14.957  1.00  0.00     0.037 C
HETATM   15  C3  UNL     1      46.111 130.940  13.742  1.00  0.00     0.037 C
HETATM   16  C4  UNL     1      45.368 129.038  15.135  1.00  0.00     0.037 C
ENDBRANCH  11  13
ENDBRANCH   9  11
ENDBRANCH   1   9
TORSDOF 3
ENDMDL