MODEL 2
REMARK VINA RESULT: -7.601925800      1.108      1.399
REMARK  4 active torsions:
REMARK  status: ('A' for Active; 'I' for Inactive)
REMARK    1  A    between atoms: C2_2  and  N1_3
REMARK       I    between atoms: N1_3  and  C3_5
REMARK       I    between atoms: C3_5  and  N2_7
REMARK       I    between atoms: N3_10  and  C6_11
REMARK    2  A    between atoms: C6_11  and  O3_13
REMARK    3  A    between atoms: O3_13  and  C7_14
REMARK    4  A    between atoms: C7_14  and  O4_17
ROOT
HETATM    1  N1  UNL     1      42.512 130.101  23.091  1.00  0.00    -0.343 N
ATOM      2  H1  UNL     1      41.691 130.479  22.618  1.00  0.00     0.164 HD
HETATM    3  C3  UNL     1      43.804 130.323  22.565  1.00  0.00     0.318 C
HETATM    4  O1  UNL     1      44.793 129.840  23.177  1.00  0.00    -0.247 OA
HETATM    5  N2  UNL     1      43.959 131.071  21.381  1.00  0.00    -0.331 N
HETATM    6  C4  UNL     1      45.283 131.293  20.861  1.00  0.00     0.147 C
HETATM    7  C5  UNL     1      45.282 130.854  19.398  1.00  0.00     0.148 C
HETATM    8  N3  UNL     1      44.206 131.498  18.675  1.00  0.00    -0.325 N
HETATM    9  C6  UNL     1      44.231 131.473  17.265  1.00  0.00     0.365 C
HETATM   10  O2  UNL     1      43.319 132.019  16.584  1.00  0.00    -0.238 OA
HETATM   11  C10 UNL     1      43.109 132.168  19.332  1.00  0.00     0.148 C
HETATM   12  C11 UNL     1      42.825 131.607  20.699  1.00  0.00     0.147 C
ENDROOT
BRANCH   9  13
HETATM   13  O3  UNL     1      45.235 130.859  16.527  1.00  0.00    -0.267 OA
BRANCH  13  14
HETATM   14  C7  UNL     1      45.695 131.292  15.287  1.00  0.00     0.165 C
HETATM   15  C8  UNL     1      44.607 131.209  14.253  1.00  0.00     0.079 C
HETATM   16  C9  UNL     1      46.919 130.578  14.796  1.00  0.00     0.079 C
BRANCH  14  17
HETATM   17  O4  UNL     1      46.023 132.658  15.420  1.00  0.00    -0.365 OA
ATOM     18  H4  UNL     1      46.330 132.956  14.572  1.00  0.00     0.213 HD
ENDBRANCH  14  17
ENDBRANCH  13  14
ENDBRANCH   9  13
BRANCH   1  19
HETATM   19  C2  UNL     1      42.368 129.330  24.307  1.00  0.00     0.120 C
HETATM   20  C1  UNL     1      41.272 128.315  24.114  1.00  0.00     0.026 C
ENDBRANCH   1  19
TORSDOF 4
ENDMDL