MODEL 1
REMARK VINA RESULT: -7.145745502      0.000      0.000
REMARK  5 active torsions:
REMARK  status: ('A' for Active; 'I' for Inactive)
REMARK    1  A    between atoms: C3_3  and  C5_5
REMARK       I    between atoms: C5_5  and  N1_7
REMARK    2  A    between atoms: N1_7  and  C6_9
REMARK    3  A    between atoms: C6_9  and  N2_11
REMARK    4  A    between atoms: N2_11  and  C7_13
REMARK    5  A    between atoms: N4_17  and  O3_18
ROOT
HETATM    1  N2  UNL     1      45.123 131.894  18.791  1.00  0.00    -0.316 N
ATOM      2  H2  UNL     1      45.628 132.771  18.919  1.00  0.00     0.170 HD
ENDROOT
BRANCH   1   3
HETATM    3  C6  UNL     1      44.545 131.769  17.545  1.00  0.00     0.180 C
HETATM    4  S1  UNL     1      42.893 131.756  17.431  1.00  0.00    -0.040 SA
BRANCH   3   5
HETATM    5  N1  UNL     1      45.325 131.639  16.365  1.00  0.00    -0.300 N
HETATM    6  C5  UNL     1      46.044 130.460  16.043  1.00  0.00     0.253 C
HETATM    7  O1  UNL     1      46.000 129.457  16.837  1.00  0.00    -0.268 OA
ATOM      8  H1  UNL     1      45.370 132.428  15.720  1.00  0.00     0.171 HD
BRANCH   6   9
HETATM    9  C3  UNL     1      46.834 130.343  14.837  1.00  0.00     0.002 C
HETATM   10  C2  UNL     1      46.934 131.348  14.002  1.00  0.00    -0.019 C
HETATM   11  C1  UNL     1      47.741 131.254  12.752  1.00  0.00     0.036 C
HETATM   12  C4  UNL     1      47.539 129.083  14.534  1.00  0.00     0.054 C
ENDBRANCH   6   9
ENDBRANCH   3   5
ENDBRANCH   1   3
BRANCH   1  13
HETATM   13  C7  UNL     1      45.155 131.142  19.803  1.00  0.00     0.157 A
HETATM   14  N3  UNL     1      46.098 130.153  20.005  1.00  0.00    -0.221 N
HETATM   15  O2  UNL     1      45.820 129.598  21.128  1.00  0.00    -0.127 OA
ATOM     16  H3  UNL     1      46.867 129.910  19.382  1.00  0.00     0.198 HD
HETATM   17  N4  UNL     1      44.786 130.115  21.701  1.00  0.00    -0.103 N
HETATM   18  C8  UNL     1      44.324 131.113  20.886  1.00  0.00     0.110 A
HETATM   19  C9  UNL     1      43.133 131.952  21.202  1.00  0.00     0.077 C
BRANCH  17  20
HETATM   20  O3  UNL     1      44.203 129.784  22.896  1.00  0.00    -0.261 OA
ATOM     21  H3  UNL     1      44.436 130.061  23.775  1.00  0.00     0.247 HD
ENDBRANCH  17  20
ENDBRANCH   1  13
TORSDOF 5
ENDMDL