MODEL 5
REMARK VINA RESULT: -5.779131923      2.160      5.992
REMARK  14 active torsions:
REMARK  status: ('A' for Active; 'I' for Inactive)
REMARK    1  A    between atoms: C2_2  and  N1_3
REMARK    2  A    between atoms: N3_10  and  C5_11
REMARK    3  A    between atoms: C6_13  and  C7_14
REMARK    4  A    between atoms: C7_14  and  O4_15
REMARK    5  A    between atoms: C7_14  and  O5_17
REMARK    6  A    between atoms: N4_19  and  C8_20
REMARK    7  A    between atoms: C10_23  and  N5_24
REMARK    8  A    between atoms: N5_24  and  C11_27
REMARK    9  A    between atoms: C11_27  and  O7_28
REMARK   10  A    between atoms: C11_27  and  C12_30
REMARK   11  A    between atoms: C12_30  and  O8_31
REMARK   12  A    between atoms: C12_30  and  C13_33
REMARK   13  A    between atoms: C13_33  and  O9_35
REMARK   14  A    between atoms: C15_37  and  O10_38
ROOT
HETATM    1  C5  UNL     1     -13.411  71.932  26.451  1.00  0.00     0.271 C
HETATM    2  O3  UNL     1     -13.484  70.668  26.942  1.00  0.00    -0.334 OA
HETATM    3  C6  UNL     1     -12.469  69.804  26.576  1.00  0.00     0.283 C
HETATM    4  N4  UNL     1     -11.968  69.935  25.259  1.00  0.00    -0.326 N
HETATM    5  C9  UNL     1     -11.672  71.115  24.442  1.00  0.00     0.163 C
HETATM    6  C10 UNL     1     -11.258  72.306  25.223  1.00  0.00     0.239 C
HETATM    7  C15 UNL     1     -12.043  72.542  26.490  1.00  0.00     0.200 C
ENDROOT
BRANCH   6   8
HETATM    8  N5  UNL     1     -11.291  73.480  24.371  1.00  0.00    -0.038 N
ATOM      9  H52 UNL     1     -10.431  73.552  23.827  1.00  0.00     0.281 HD
ATOM     10  H51 UNL     1     -11.963  73.355  23.615  1.00  0.00     0.281 HD
BRANCH   8  11
HETATM   11  C11 UNL     1     -11.547  74.712  25.080  1.00  0.00     0.350 C
BRANCH  11  12
HETATM   12  O7  UNL     1     -10.339  75.373  25.427  1.00  0.00    -0.368 OA
ATOM     13  H7  UNL     1     -10.166  76.108  24.850  1.00  0.00     0.212 HD
ENDBRANCH  11  12
BRANCH  11  14
HETATM   14  C12 UNL     1     -12.195  75.662  24.075  1.00  0.00     0.202 C
BRANCH  14  15
HETATM   15  O8  UNL     1     -13.089  76.531  24.670  1.00  0.00    -0.389 OA
ATOM     16  H8  UNL     1     -13.470  77.142  24.050  1.00  0.00     0.210 HD
ENDBRANCH  14  15
BRANCH  14  17
HETATM   17  C13 UNL     1     -11.166  76.462  23.306  1.00  0.00     0.147 C
HETATM   18  C14 UNL     1     -11.825  77.225  22.164  1.00  0.00     0.042 C
BRANCH  17  19
HETATM   19  O9  UNL     1     -10.328  75.513  22.693  1.00  0.00    -0.393 OA
ATOM     20  H9  UNL     1     -10.909  74.861  22.319  1.00  0.00     0.210 HD
ENDBRANCH  17  19
ENDBRANCH  14  17
ENDBRANCH  11  14
ENDBRANCH   8  11
ENDBRANCH   6   8
BRANCH   7  21
HETATM   21  O10 UNL     1     -11.329  72.243  27.643  1.00  0.00    -0.389 OA
ATOM     22  H10 UNL     1     -10.389  72.201  27.512  1.00  0.00     0.210 HD
ENDBRANCH   7  21
BRANCH   4  23
HETATM   23  C8  UNL     1     -11.694  68.720  24.584  1.00  0.00     0.353 C
HETATM   24  O6  UNL     1     -10.673  68.630  23.819  1.00  0.00    -0.283 OA
ENDBRANCH   4  23
BRANCH   1  25
HETATM   25  N3  UNL     1     -14.369  72.767  27.155  1.00  0.00    -0.220 N
HETATM   26  C4  UNL     1     -14.605  72.673  28.478  1.00  0.00     0.336 A
HETATM   27  N2  UNL     1     -15.494  73.454  29.122  1.00  0.00    -0.260 N
HETATM   28  O2  UNL     1     -13.945  71.799  29.119  1.00  0.00    -0.246 OA
HETATM   29  C3  UNL     1     -16.166  74.363  28.394  1.00  0.00     0.334 A
ATOM     30  H2  UNL     1     -15.652  73.359  30.125  1.00  0.00     0.175 HD
HETATM   31  N1  UNL     1     -15.983  74.515  27.071  1.00  0.00    -0.251 N
HETATM   32  O1  UNL     1     -17.003  75.112  28.951  1.00  0.00    -0.246 OA
HETATM   33  C16 UNL     1     -15.083  73.707  26.484  1.00  0.00     0.338 A
HETATM   34  O11 UNL     1     -14.915  73.855  25.237  1.00  0.00    -0.246 OA
BRANCH  31  35
HETATM   35  C2  UNL     1     -16.723  75.514  26.295  1.00  0.00     0.134 C
HETATM   36  C1  UNL     1     -18.037  75.004  25.806  1.00  0.00     0.027 C
ENDBRANCH  31  35
ENDBRANCH   1  25
BRANCH   3  37
HETATM   37  C7  UNL     1     -13.044  68.411  26.806  1.00  0.00     0.303 C
BRANCH  37  38
HETATM   38  O4  UNL     1     -14.405  68.488  26.572  1.00  0.00    -0.367 OA
ATOM     39  H4  UNL     1     -14.529  69.062  25.825  1.00  0.00     0.212 HD
ENDBRANCH  37  38
BRANCH  37  40
HETATM   40  O5  UNL     1     -12.870  68.162  28.183  1.00  0.00    -0.367 OA
ATOM     41  H5  UNL     1     -13.718  67.866  28.492  1.00  0.00     0.212 HD
ENDBRANCH  37  40
ENDBRANCH   3  37
TORSDOF 14
ENDMDL