MODEL 3
REMARK VINA RESULT: -5.013906249      5.449      7.277
REMARK  15 active torsions:
REMARK  status: ('A' for Active; 'I' for Inactive)
REMARK    1  A    between atoms: C3_8  and  C4_9
REMARK    2  A    between atoms: C4_9  and  O1_10
REMARK    3  A    between atoms: C4_9  and  C5_12
REMARK    4  A    between atoms: C5_12  and  O2_13
REMARK    5  A    between atoms: C6_15  and  N3_16
REMARK    6  A    between atoms: C9_24  and  O4_25
REMARK    7  A    between atoms: C9_24  and  C10_27
REMARK    8  A    between atoms: C10_27  and  O5_28
REMARK    9  A    between atoms: C11_30  and  O6_31
REMARK   10  A    between atoms: O6_31  and  C12_32
REMARK   11  A    between atoms: C12_32  and  C13_33
REMARK   12  A    between atoms: C13_33  and  N5_34
REMARK   13  A    between atoms: C14_41  and  S1_42
REMARK   14  A    between atoms: S1_42  and  N9_43
REMARK   15  A    between atoms: S1_42  and  N10_46
ROOT
HETATM    1  N1  UNL     1     -13.531  75.775  24.379  1.00  0.00    -0.387 N
ATOM      2  H11 UNL     1     -12.689  76.342  24.268  1.00  0.00     0.157 HD
ATOM      3  H12 UNL     1     -14.490  76.030  24.143  1.00  0.00     0.157 HD
HETATM    4  C1  UNL     1     -13.356  74.588  24.879  1.00  0.00     0.105 C
HETATM    5  N2  UNL     1     -14.515  73.807  25.031  1.00  0.00    -0.356 N
ATOM      6  H2  UNL     1     -15.275  74.018  24.384  1.00  0.00     0.163 HD
HETATM    7  C2  UNL     1     -14.781  72.751  25.974  1.00  0.00     0.197 C
HETATM    8  C3  UNL     1     -15.767  73.254  27.004  1.00  0.00     0.099 C
HETATM    9  C6  UNL     1     -15.443  72.386  28.189  1.00  0.00     0.285 C
HETATM   10  C7  UNL     1     -13.954  72.418  28.121  1.00  0.00     0.252 C
HETATM   11  O3  UNL     1     -13.191  72.475  29.116  1.00  0.00    -0.271 OA
HETATM   12  N4  UNL     1     -13.594  72.371  26.740  1.00  0.00    -0.325 N
HETATM   13  C8  UNL     1     -12.273  72.000  26.353  1.00  0.00     0.171 C
HETATM   14  C9  UNL     1     -11.716  72.745  25.184  1.00  0.00     0.128 C
HETATM   15  C11 UNL     1     -11.968  74.220  25.221  1.00  0.00     0.226 C
ENDROOT
BRANCH  15  16
HETATM   16  O6  UNL     1     -11.076  74.842  24.360  1.00  0.00    -0.373 OA
BRANCH  16  17
HETATM   17  C12 UNL     1     -10.358  75.811  24.992  1.00  0.00     0.191 C
BRANCH  17  18
HETATM   18  C13 UNL     1      -8.903  75.847  24.699  1.00  0.00     0.179 C
BRANCH  18  19
HETATM   19  N5  UNL     1      -8.495  76.929  23.807  1.00  0.00    -0.248 N
HETATM   20  N6  UNL     1      -7.813  78.009  24.166  1.00  0.00    -0.224 N
HETATM   21  N7  UNL     1      -7.568  78.721  23.107  1.00  0.00    -0.226 N
ATOM     22  H6  UNL     1      -7.528  78.242  25.117  1.00  0.00     0.210 HD
HETATM   23  N8  UNL     1      -8.082  78.119  22.066  1.00  0.00    -0.259 N
ATOM     24  H7  UNL     1      -7.058  79.605  23.091  1.00  0.00     0.210 HD
HETATM   25  C14 UNL     1      -8.685  76.962  22.501  1.00  0.00     0.235 A
ATOM     26  H8  UNL     1      -8.043  78.449  21.101  1.00  0.00     0.191 HD
BRANCH  25  27
HETATM   27  S1  UNL     1      -9.572  75.899  21.413  1.00  0.00     0.166 S
HETATM   28  O7  UNL     1      -9.238  74.474  21.567  1.00  0.00    -0.221 OA
BRANCH  27  29
HETATM   29  N9  UNL     1      -9.219  76.328  19.960  1.00  0.00    -0.339 N
ATOM     30  H92 UNL     1      -9.508  75.843  19.111  1.00  0.00     0.167 HD
ATOM     31  H91 UNL     1      -8.652  77.173  20.024  1.00  0.00     0.167 HD
ENDBRANCH  27  29
BRANCH  27  32
HETATM   32  N10 UNL     1     -11.283  76.159  21.599  1.00  0.00    -0.339 N
ATOM     33 2H10 UNL     1     -11.748  77.053  21.444  1.00  0.00     0.167 HD
ATOM     34 1H10 UNL     1     -11.735  75.291  21.883  1.00  0.00     0.167 HD
ENDBRANCH  27  32
ENDBRANCH  25  27
ENDBRANCH  18  19
ENDBRANCH  17  18
ENDBRANCH  16  17
ENDBRANCH  15  16
BRANCH  14  35
HETATM   35  O4  UNL     1     -10.308  72.594  25.268  1.00  0.00    -0.383 OA
ATOM     36  H4  UNL     1     -10.012  73.277  25.858  1.00  0.00     0.210 HD
ENDBRANCH  14  35
BRANCH  14  37
HETATM   37  C10 UNL     1     -12.087  72.150  23.842  1.00  0.00     0.206 C
BRANCH  37  38
HETATM   38  O5  UNL     1     -11.058  72.495  22.958  1.00  0.00    -0.398 OA
ATOM     39  H5  UNL     1     -10.727  71.680  22.600  1.00  0.00     0.209 HD
ENDBRANCH  37  38
ENDBRANCH  14  37
BRANCH   8  40
HETATM   40  C4  UNL     1     -17.176  73.248  26.576  1.00  0.00     0.151 C
BRANCH  40  41
HETATM   41  O1  UNL     1     -17.215  72.924  25.208  1.00  0.00    -0.393 OA
ATOM     42  H1  UNL     1     -16.463  73.326  24.788  1.00  0.00     0.210 HD
ENDBRANCH  40  41
BRANCH  40  43
HETATM   43  C5  UNL     1     -17.930  74.518  26.748  1.00  0.00     0.196 C
BRANCH  43  44
HETATM   44  O2  UNL     1     -17.637  75.097  27.995  1.00  0.00    -0.398 OA
ATOM     45  H2  UNL     1     -18.396  75.060  28.564  1.00  0.00     0.209 HD
ENDBRANCH  43  44
ENDBRANCH  40  43
ENDBRANCH   8  40
BRANCH   9  46
HETATM   46  N3  UNL     1     -15.928  72.948  29.431  1.00  0.00    -0.066 N
ATOM     47  H33 UNL     1     -16.948  72.960  29.458  1.00  0.00     0.275 HD
ATOM     48  H32 UNL     1     -15.753  72.317  30.214  1.00  0.00     0.275 HD
ATOM     49  H31 UNL     1     -15.544  73.875  29.614  1.00  0.00     0.275 HD
ENDBRANCH   9  46
TORSDOF 15
ENDMDL