MODEL 1
REMARK VINA RESULT: -7.183550666      0.000      0.000
REMARK  13 active torsions:
REMARK  status: ('A' for Active; 'I' for Inactive)
REMARK    1  A    between atoms: C5_9  and  C6_10
REMARK    2  A    between atoms: C6_10  and  O2_11
REMARK    3  A    between atoms: C6_10  and  C7_13
REMARK    4  A    between atoms: C7_13  and  O3_14
REMARK    5  A    between atoms: C7_13  and  C8_16
REMARK    6  A    between atoms: C8_16  and  O4_17
REMARK    7  A    between atoms: C8_16  and  C9_19
REMARK    8  A    between atoms: C9_19  and  O5_20
REMARK    9  A    between atoms: C9_19  and  C10_22
REMARK   10  A    between atoms: C10_22  and  C11_24
REMARK   11  A    between atoms: C11_24  and  C12_26
REMARK   12  A    between atoms: C13_30  and  N4_31
REMARK   13  A    between atoms: C14_34  and  O10_35
ROOT
HETATM    1  N1  UNL     1     -16.618  75.777  27.947  1.00  0.00    -0.194 NA
HETATM    2  C1  UNL     1     -16.812  74.705  27.588  1.00  0.00     0.105 C
HETATM    3  C2  UNL     1     -17.041  73.362  27.120  1.00  0.00     0.427 C
HETATM    4  C3  UNL     1     -16.297  73.062  25.852  1.00  0.00     0.267 C
HETATM    5  O1  UNL     1     -16.268  73.861  24.880  1.00  0.00    -0.270 OA
HETATM    6  N2  UNL     1     -15.700  71.788  26.010  1.00  0.00    -0.326 N
ATOM      7  H2  UNL     1     -15.275  71.233  25.266  1.00  0.00     0.164 HD
HETATM    8  C4  UNL     1     -15.791  71.411  27.368  1.00  0.00     0.364 C
HETATM    9  C5  UNL     1     -14.560  71.405  28.185  1.00  0.00     0.210 C
HETATM   10  O9  UNL     1     -15.087  71.703  29.472  1.00  0.00    -0.328 OA
HETATM   11  C13 UNL     1     -16.049  72.700  29.219  1.00  0.00     0.498 C
HETATM   12  N7  UNL     1     -16.704  72.327  28.022  1.00  0.00     0.191 N
ENDROOT
BRANCH  11  13
HETATM   13  N4  UNL     1     -17.015  72.627  30.312  1.00  0.00    -0.181 N
HETATM   14  N5  UNL     1     -17.663  71.528  30.707  1.00  0.00    -0.255 N
HETATM   15  C14 UNL     1     -18.473  71.822  31.739  1.00  0.00     0.240 A
ATOM     16  H5  UNL     1     -17.559  70.603  30.289  1.00  0.00     0.191 HD
HETATM   17  N6  UNL     1     -18.340  73.136  32.010  1.00  0.00    -0.272 N
HETATM   18  C15 UNL     1     -17.443  73.606  31.126  1.00  0.00     0.348 A
ATOM     19  H6  UNL     1     -18.821  73.665  32.737  1.00  0.00     0.174 HD
HETATM   20  O11 UNL     1     -17.051  74.807  31.062  1.00  0.00    -0.245 OA
BRANCH  15  21
HETATM   21  O10 UNL     1     -19.326  70.955  32.443  1.00  0.00    -0.331 OA
ATOM     22  H10 UNL     1     -19.245  70.014  32.551  1.00  0.00     0.221 HD
ENDBRANCH  15  21
ENDBRANCH  11  13
BRANCH   9  23
HETATM   23  C6  UNL     1     -13.548  72.470  27.898  1.00  0.00     0.182 C
BRANCH  23  24
HETATM   24  O2  UNL     1     -12.862  72.671  29.133  1.00  0.00    -0.390 OA
ATOM     25  H2  UNL     1     -13.233  73.467  29.495  1.00  0.00     0.210 HD
ENDBRANCH  23  24
BRANCH  23  26
HETATM   26  C7  UNL     1     -12.457  72.057  26.943  1.00  0.00     0.181 C
BRANCH  26  27
HETATM   27  O3  UNL     1     -11.263  71.776  27.588  1.00  0.00    -0.390 OA
ATOM     28  H3  UNL     1     -10.694  72.533  27.651  1.00  0.00     0.210 HD
ENDBRANCH  26  27
BRANCH  26  29
HETATM   29  C8  UNL     1     -12.235  73.264  26.012  1.00  0.00     0.186 C
BRANCH  29  30
HETATM   30  O4  UNL     1     -13.374  74.055  26.150  1.00  0.00    -0.390 OA
ATOM     31  H4  UNL     1     -13.269  74.763  25.524  1.00  0.00     0.210 HD
ENDBRANCH  29  30
BRANCH  29  32
HETATM   32  C9  UNL     1     -12.182  72.773  24.578  1.00  0.00     0.227 C
BRANCH  32  33
HETATM   33  O5  UNL     1     -13.478  72.546  24.172  1.00  0.00    -0.385 OA
ATOM     34  H5  UNL     1     -13.456  72.364  23.241  1.00  0.00     0.210 HD
ENDBRANCH  32  33
BRANCH  32  35
HETATM   35  C10 UNL     1     -11.574  73.798  23.701  1.00  0.00     0.235 C
HETATM   36  O6  UNL     1     -12.021  73.951  22.543  1.00  0.00    -0.286 OA
BRANCH  35  37
HETATM   37  C11 UNL     1     -10.473  74.622  24.164  1.00  0.00     0.284 C
HETATM   38  O7  UNL     1      -9.284  74.223  24.126  1.00  0.00    -0.279 OA
BRANCH  37  39
HETATM   39  C12 UNL     1     -10.704  75.959  24.694  1.00  0.00     0.308 C
HETATM   40  N3  UNL     1      -9.635  76.834  25.037  1.00  0.00    -0.054 NA
HETATM   41  O8  UNL     1     -11.902  76.327  24.846  1.00  0.00    -0.267 OA
ENDBRANCH  37  39
ENDBRANCH  35  37
ENDBRANCH  32  35
ENDBRANCH  29  32
ENDBRANCH  26  29
ENDBRANCH  23  26
ENDBRANCH   9  23
TORSDOF 13
ENDMDL