MODEL 1
REMARK VINA RESULT: -6.821737057      0.000      0.000
REMARK  11 active torsions:
REMARK  status: ('A' for Active; 'I' for Inactive)
REMARK    1  A    between atoms: C1_2  and  C2_4
REMARK    2  A    between atoms: C3_10  and  N3_11
REMARK    3  A    between atoms: N3_11  and  O4_12
REMARK    4  A    between atoms: O4_12  and  S2_13
REMARK    5  A    between atoms: S2_13  and  O7_16
REMARK    6  A    between atoms: O7_16  and  C4_17
REMARK    7  A    between atoms: C6_19  and  O8_20
REMARK    8  A    between atoms: C7_22  and  O9_23
REMARK    9  A    between atoms: O9_23  and  C8_24
REMARK   10  A    between atoms: C8_24  and  C9_25
REMARK   11  A    between atoms: C10_33  and  O12_34
ROOT
HETATM    1  S2  UNL     1     -14.282  69.221  28.455  1.00  0.00     0.421 S
HETATM    2  O5  UNL     1     -15.587  68.558  28.779  1.00  0.00    -0.167 OA
HETATM    3  O6  UNL     1     -13.227  68.151  28.436  1.00  0.00    -0.167 OA
ENDROOT
BRANCH   1   4
HETATM    4  O4  UNL     1     -13.945  70.312  29.683  1.00  0.00    -0.134 OA
BRANCH   4   5
HETATM    5  N3  UNL     1     -14.178  71.583  29.284  1.00  0.00    -0.037 NA
BRANCH   5   6
HETATM    6  C3  UNL     1     -15.628  71.753  29.165  1.00  0.00     0.347 C
HETATM    7  S1  UNL     1     -15.959  73.281  28.344  1.00  0.00     0.266 S
HETATM    8  N2  UNL     1     -17.648  73.565  28.450  1.00  0.00    -0.299 N
HETATM    9  O2  UNL     1     -15.590  73.184  26.872  1.00  0.00    -0.202 OA
HETATM   10  O3  UNL     1     -15.168  74.424  28.909  1.00  0.00    -0.202 OA
HETATM   11  C2  UNL     1     -18.200  72.767  29.497  1.00  0.00     0.230 C
ATOM     12  H2  UNL     1     -18.175  74.205  27.857  1.00  0.00     0.173 HD
HETATM   13  C10 UNL     1     -17.284  72.619  30.686  1.00  0.00     0.247 C
HETATM   14  N5  UNL     1     -16.176  71.763  30.474  1.00  0.00    -0.362 N
ATOM     15  H5  UNL     1     -15.793  71.184  31.221  1.00  0.00     0.158 HD
BRANCH  11  16
HETATM   16  C1  UNL     1     -19.450  73.394  29.982  1.00  0.00     0.258 C
HETATM   17  N1  UNL     1     -19.757  73.598  31.356  1.00  0.00    -0.060 NA
HETATM   18  O1  UNL     1     -20.300  73.774  29.143  1.00  0.00    -0.274 OA
ENDBRANCH  11  16
BRANCH  13  19
HETATM   19  O12 UNL     1     -16.936  73.899  31.141  1.00  0.00    -0.374 OA
ATOM     20  H12 UNL     1     -16.465  73.809  31.961  1.00  0.00     0.212 HD
ENDBRANCH  13  19
ENDBRANCH   5   6
ENDBRANCH   4   5
ENDBRANCH   1   4
BRANCH   1  21
HETATM   21  O7  UNL     1     -14.383  69.967  26.971  1.00  0.00    -0.219 OA
BRANCH  21  22
HETATM   22  C4  UNL     1     -13.155  70.001  26.306  1.00  0.00     0.348 C
HETATM   23  C5  UNL     1     -13.118  71.119  25.286  1.00  0.00     0.099 C
HETATM   24  C6  UNL     1     -12.088  72.094  25.872  1.00  0.00     0.178 C
HETATM   25  C7  UNL     1     -11.143  71.093  26.552  1.00  0.00     0.353 C
HETATM   26  N4  UNL     1     -12.084  70.262  27.245  1.00  0.00    -0.019 N
ATOM     27  H42 UNL     1     -12.404  70.659  28.129  1.00  0.00     0.283 HD
ATOM     28  H41 UNL     1     -11.669  69.415  27.634  1.00  0.00     0.283 HD
BRANCH  24  29
HETATM   29  O8  UNL     1     -12.720  72.855  26.838  1.00  0.00    -0.391 OA
ATOM     30  H8  UNL     1     -12.444  73.758  26.729  1.00  0.00     0.210 HD
ENDBRANCH  24  29
BRANCH  25  31
HETATM   31  O9  UNL     1     -10.457  70.381  25.599  1.00  0.00    -0.346 OA
BRANCH  31  32
HETATM   32  C8  UNL     1      -9.178  70.823  25.357  1.00  0.00     0.283 C
BRANCH  32  33
HETATM   33  C9  UNL     1      -8.124  69.825  25.561  1.00  0.00     0.197 C
HETATM   34  O10 UNL     1      -7.623  69.236  24.579  1.00  0.00    -0.646 OA
HETATM   35  O11 UNL     1      -7.670  69.518  26.826  1.00  0.00    -0.646 OA
ENDBRANCH  32  33
ENDBRANCH  31  32
ENDBRANCH  25  31
ENDBRANCH  21  22
ENDBRANCH   1  21
TORSDOF 11
ENDMDL