MODEL 5
REMARK VINA RESULT: -6.164628659      1.759      2.650
REMARK  15 active torsions:
REMARK  status: ('A' for Active; 'I' for Inactive)
REMARK    1  A    between atoms: N1_2  and  N2_3
REMARK    2  A    between atoms: N1_2  and  C2_6
REMARK    3  A    between atoms: N5_13  and  N6_15
REMARK    4  A    between atoms: N6_15  and  C6_17
REMARK    5  A    between atoms: C6_17  and  C7_18
REMARK    6  A    between atoms: C7_18  and  O2_20
REMARK    7  A    between atoms: O2_20  and  C8_21
REMARK    8  A    between atoms: C8_21  and  C9_22
REMARK    9  A    between atoms: C9_22  and  C10_23
REMARK   10  A    between atoms: C10_23  and  O3_24
REMARK   11  A    between atoms: C11_27  and  O5_28
REMARK   12  A    between atoms: C12_30  and  O6_31
REMARK   13  A    between atoms: C13_33  and  C14_34
REMARK       I    between atoms: C14_34  and  N7_36
REMARK   14  A    between atoms: N7_36  and  C15_38
REMARK   15  A    between atoms: N8_39  and  N9_41
ROOT
HETATM    1  C9  UNL     1     -15.703  71.406  27.992  1.00  0.00     0.211 C
HETATM    2  O4  UNL     1     -15.884  72.132  26.850  1.00  0.00    -0.318 OA
HETATM    3  C11 UNL     1     -15.713  73.473  26.918  1.00  0.00     0.292 C
HETATM    4  C12 UNL     1     -16.274  74.069  28.162  1.00  0.00     0.211 C
HETATM    5  C13 UNL     1     -16.276  73.181  29.366  1.00  0.00     0.251 C
HETATM    6  O8  UNL     1     -16.413  71.846  29.084  1.00  0.00    -0.334 OA
ENDROOT
BRANCH   1   7
HETATM    7  C8  UNL     1     -14.252  71.339  28.408  1.00  0.00     0.249 C
BRANCH   7   8
HETATM    8  O2  UNL     1     -13.406  70.891  27.350  1.00  0.00    -0.315 OA
BRANCH   8   9
HETATM    9  C7  UNL     1     -12.169  71.456  27.125  1.00  0.00     0.278 C
HETATM   10  O1  UNL     1     -11.867  72.585  27.560  1.00  0.00    -0.263 OA
BRANCH   9  11
HETATM   11  C6  UNL     1     -11.176  70.676  26.335  1.00  0.00     0.251 C
BRANCH  11  12
HETATM   12  N6  UNL     1     -10.812  71.334  25.118  1.00  0.00    -0.313 N
ATOM     13  H6  UNL     1     -11.059  70.846  24.257  1.00  0.00     0.181 HD
BRANCH  12  14
HETATM   14  N5  UNL     1     -10.202  72.483  24.967  1.00  0.00    -0.136 N
HETATM   15  C5  UNL     1     -10.510  73.678  24.815  1.00  0.00     0.699 A
HETATM   16  N4  UNL     1     -11.714  74.221  24.754  1.00  0.00    -0.177 N
HETATM   17  N10 UNL     1      -9.467  74.583  24.693  1.00  0.00    -0.174 N
HETATM   18  C4  UNL     1     -11.959  75.557  24.585  1.00  0.00     0.135 A
ATOM     19  H4  UNL     1     -12.518  73.599  24.838  1.00  0.00     0.185 HD
HETATM   20  C3  UNL     1     -10.887  76.397  24.472  1.00  0.00     0.096 A
HETATM   21  N3  UNL     1     -13.299  76.017  24.537  1.00  0.00    -0.082 NA
HETATM   22  C2  UNL     1      -9.599  75.883  24.529  1.00  0.00     0.140 A
ATOM     23  H10 UNL     1      -8.519  74.210  24.734  1.00  0.00     0.186 HD
ATOM     24  H5  UNL     1      -9.188  72.365  24.977  1.00  0.00     0.205 HD
BRANCH  22  25
HETATM   25  N1  UNL     1      -8.462  76.723  24.416  1.00  0.00    -0.287 N
HETATM   26  C1  UNL     1      -8.340  77.553  23.236  1.00  0.00     0.179 C
BRANCH  25  27
HETATM   27  N2  UNL     1      -7.517  76.719  25.427  1.00  0.00    -0.342 N
ATOM     28  H22 UNL     1      -6.578  77.066  25.231  1.00  0.00     0.177 HD
ATOM     29  H21 UNL     1      -7.720  76.382  26.369  1.00  0.00     0.177 HD
ENDBRANCH  25  27
ENDBRANCH  22  25
ENDBRANCH  12  14
ENDBRANCH  11  12
ENDBRANCH   9  11
ENDBRANCH   8   9
ENDBRANCH   7   8
ENDBRANCH   1   7
BRANCH   1  30
HETATM   30  C10 UNL     1     -16.160  69.996  27.712  1.00  0.00     0.235 C
BRANCH  30  31
HETATM   31  O3  UNL     1     -15.770  69.529  26.469  1.00  0.00    -0.395 OA
ATOM     32  H3  UNL     1     -16.471  69.539  25.827  1.00  0.00     0.209 HD
ENDBRANCH  30  31
ENDBRANCH   1  30
BRANCH   3  33
HETATM   33  O5  UNL     1     -14.416  73.901  26.627  1.00  0.00    -0.368 OA
ATOM     34  H5  UNL     1     -14.369  74.764  26.232  1.00  0.00     0.212 HD
ENDBRANCH   3  33
BRANCH   5  35
HETATM   35  C14 UNL     1     -17.368  73.574  30.294  1.00  0.00     0.254 C
HETATM   36  O7  UNL     1     -17.330  74.705  30.902  1.00  0.00    -0.270 OA
HETATM   37  N7  UNL     1     -18.442  72.692  30.496  1.00  0.00    -0.320 N
ATOM     38  H7  UNL     1     -18.445  71.800  30.000  1.00  0.00     0.169 HD
BRANCH  37  39
HETATM   39  C15 UNL     1     -19.521  72.996  31.362  1.00  0.00     0.199 C
HETATM   40  N8  UNL     1     -19.968  72.155  32.223  1.00  0.00    -0.303 N
ATOM     41  H8  UNL     1     -20.747  72.402  32.832  1.00  0.00     0.187 HD
BRANCH  40  42
HETATM   42  N9  UNL     1     -19.372  70.901  32.312  1.00  0.00    -0.344 N
ATOM     43  H92 UNL     1     -18.358  70.821  32.238  1.00  0.00     0.176 HD
ATOM     44  H91 UNL     1     -19.963  70.082  32.452  1.00  0.00     0.176 HD
ENDBRANCH  40  42
ENDBRANCH  37  39
ENDBRANCH   5  35
BRANCH   4  45
HETATM   45  O6  UNL     1     -15.549  75.246  28.400  1.00  0.00    -0.388 OA
ATOM     46  H6  UNL     1     -15.902  75.623  29.197  1.00  0.00     0.210 HD
ENDBRANCH   4  45
TORSDOF 15
ENDMDL