MODEL 5
REMARK VINA RESULT: -5.783519571      3.566      6.844
REMARK  13 active torsions:
REMARK  status: ('A' for Active; 'I' for Inactive)
REMARK    1  A    between atoms: C2_3  and  C3_4
REMARK    2  A    between atoms: C3_4  and  N2_5
REMARK       I    between atoms: N2_5  and  C4_7
REMARK    3  A    between atoms: C4_7  and  C5_9
REMARK    4  A    between atoms: C5_9  and  N3_10
REMARK    5  A    between atoms: C5_9  and  C6_14
REMARK    6  A    between atoms: C6_14  and  C7_15
REMARK    7  A    between atoms: C7_15  and  O2_16
REMARK    8  A    between atoms: C7_15  and  C8_18
REMARK       I    between atoms: C8_18  and  N4_20
REMARK    9  A    between atoms: N4_20  and  C9_22
REMARK   10  A    between atoms: C10_28  and  C11_29
REMARK   11  A    between atoms: C11_29  and  C12_31
REMARK   12  A    between atoms: C13_39  and  O7_40
REMARK   13  A    between atoms: C14_42  and  O8_43
ROOT
HETATM    1  N2  UNL     1     -15.764  70.382  28.515  1.00  0.00    -0.355 N
ATOM      2  H2  UNL     1     -16.393  70.525  27.726  1.00  0.00     0.162 HD
HETATM    3  C4  UNL     1     -14.381  70.100  28.263  1.00  0.00     0.248 C
HETATM    4  O1  UNL     1     -13.642  69.932  29.263  1.00  0.00    -0.271 OA
ENDROOT
BRANCH   1   5
HETATM    5  C3  UNL     1     -16.283  70.468  29.849  1.00  0.00     0.159 C
BRANCH   5   6
HETATM    6  C2  UNL     1     -16.969  71.703  30.216  1.00  0.00    -0.025 C
HETATM    7  C1  UNL     1     -17.967  71.659  31.157  1.00  0.00     0.060 C
HETATM    8  N1  UNL     1     -18.442  70.517  31.844  1.00  0.00    -0.104 NA
HETATM    9  C14 UNL     1     -18.451  73.050  31.425  1.00  0.00     0.195 C
HETATM   10  C13 UNL     1     -17.150  73.840  31.037  1.00  0.00     0.168 C
HETATM   11  C10 UNL     1     -16.936  73.096  29.704  1.00  0.00     0.127 C
BRANCH   9  12
HETATM   12  O8  UNL     1     -19.456  73.414  30.566  1.00  0.00    -0.387 OA
ATOM     13  H8  UNL     1     -20.280  73.543  31.021  1.00  0.00     0.210 HD
ENDBRANCH   9  12
BRANCH  10  14
HETATM   14  O7  UNL     1     -17.420  75.159  30.934  1.00  0.00    -0.392 OA
ATOM     15  H7  UNL     1     -16.677  75.741  31.043  1.00  0.00     0.210 HD
ENDBRANCH  10  14
BRANCH  11  16
HETATM   16  C11 UNL     1     -15.821  73.518  28.918  1.00  0.00     0.206 C
HETATM   17  O6  UNL     1     -14.645  73.157  29.134  1.00  0.00    -0.288 OA
BRANCH  16  18
HETATM   18  C12 UNL     1     -15.992  74.426  27.779  1.00  0.00     0.181 A
HETATM   19  N6  UNL     1     -15.530  74.199  26.511  1.00  0.00    -0.269 N
HETATM   20  N7  UNL     1     -15.864  75.172  25.722  1.00  0.00    -0.225 N
ATOM     21  H6  UNL     1     -14.996  73.378  26.227  1.00  0.00     0.190 HD
HETATM   22  N8  UNL     1     -16.544  76.051  26.437  1.00  0.00    -0.005 NA
ATOM     23  H7  UNL     1     -15.641  75.246  24.729  1.00  0.00     0.205 HD
HETATM   24  N9  UNL     1     -16.622  75.600  27.677  1.00  0.00    -0.264 N
ATOM     25  H9  UNL     1     -17.093  76.079  28.444  1.00  0.00     0.186 HD
ENDBRANCH  16  18
ENDBRANCH  11  16
ENDBRANCH   5   6
ENDBRANCH   1   5
BRANCH   3  26
HETATM   26  C5  UNL     1     -13.816  70.005  26.896  1.00  0.00     0.277 C
BRANCH  26  27
HETATM   27  N3  UNL     1     -14.697  70.589  25.908  1.00  0.00    -0.066 N
ATOM     28  H33 UNL     1     -15.666  70.589  26.228  1.00  0.00     0.275 HD
ATOM     29  H32 UNL     1     -14.554  71.596  25.832  1.00  0.00     0.275 HD
ATOM     30  H31 UNL     1     -14.606  70.132  25.000  1.00  0.00     0.275 HD
ENDBRANCH  26  27
BRANCH  26  31
HETATM   31  C6  UNL     1     -12.424  70.594  26.830  1.00  0.00     0.084 C
BRANCH  31  32
HETATM   32  C7  UNL     1     -12.436  72.105  26.746  1.00  0.00     0.212 C
BRANCH  32  33
HETATM   33  O2  UNL     1     -11.921  72.693  27.878  1.00  0.00    -0.386 OA
ATOM     34  H2  UNL     1     -12.493  73.366  28.227  1.00  0.00     0.210 HD
ENDBRANCH  32  33
BRANCH  32  35
HETATM   35  C8  UNL     1     -11.599  72.475  25.581  1.00  0.00     0.248 C
HETATM   36  O3  UNL     1     -11.311  71.574  24.752  1.00  0.00    -0.271 OA
HETATM   37  N4  UNL     1     -11.126  73.809  25.389  1.00  0.00    -0.323 N
ATOM     38  H4  UNL     1     -11.377  74.516  26.080  1.00  0.00     0.165 HD
BRANCH  37  39
HETATM   39  C9  UNL     1     -10.317  74.203  24.275  1.00  0.00     0.341 A
HETATM   40  N5  UNL     1      -8.913  74.487  24.539  1.00  0.00    -0.279 N
HETATM   41  S1  UNL     1      -9.829  75.868  24.061  1.00  0.00     0.270 S
ATOM     42  H5  UNL     1      -8.003  74.118  24.816  1.00  0.00     0.175 HD
HETATM   43  O4  UNL     1      -9.708  76.386  22.669  1.00  0.00    -0.202 OA
HETATM   44  O5  UNL     1     -10.079  76.835  25.191  1.00  0.00    -0.202 OA
ENDBRANCH  37  39
ENDBRANCH  32  35
ENDBRANCH  31  32
ENDBRANCH  26  31
ENDBRANCH   3  26
TORSDOF 13
ENDMDL