MODEL 3
REMARK VINA RESULT: -6.143559473      2.424      7.969
REMARK  11 active torsions:
REMARK  status: ('A' for Active; 'I' for Inactive)
REMARK    1  A    between atoms: N1_1  and  N2_4
REMARK    2  A    between atoms: C1_7  and  N4_8
REMARK    3  A    between atoms: C6_18  and  C7_19
REMARK    4  A    between atoms: C7_19  and  N6_20
REMARK    5  A    between atoms: N6_20  and  C8_22
REMARK    6  A    between atoms: C8_22  and  C9_23
REMARK    7  A    between atoms: C9_23  and  N7_24
REMARK    8  A    between atoms: N7_24  and  C10_26
REMARK    9  A    between atoms: C11_32  and  C12_33
REMARK   10  A    between atoms: C12_33  and  O4_34
REMARK   11  A    between atoms: C14_40  and  C15_41
ROOT
HETATM    1  C8  UNL     1     -18.269  74.710  26.947  1.00  0.00     0.133 C
ENDROOT
BRANCH   1   2
HETATM    2  N6  UNL     1     -17.747  75.091  25.693  1.00  0.00    -0.415 N
ATOM      3  H6  UNL     1     -18.059  74.659  24.823  1.00  0.00     0.153 HD
BRANCH   2   4
HETATM    4  C7  UNL     1     -16.764  76.106  25.715  1.00  0.00     0.171 C
BRANCH   4   5
HETATM    5  C6  UNL     1     -15.680  75.894  24.736  1.00  0.00     0.288 C
HETATM    6  N2  UNL     1     -14.997  77.090  24.293  1.00  0.00    -0.205 N
HETATM    7  N3  UNL     1     -13.696  76.624  23.964  1.00  0.00    -0.245 N
HETATM    8  C1  UNL     1     -13.425  75.533  24.566  1.00  0.00     0.252 C
ATOM      9  H3  UNL     1     -13.059  77.102  23.328  1.00  0.00     0.192 HD
HETATM   10  O3  UNL     1     -14.560  75.229  25.344  1.00  0.00    -0.289 OA
BRANCH   6  11
HETATM   11  N1  UNL     1     -15.526  78.356  24.228  1.00  0.00    -0.326 N
ATOM     12  H12 UNL     1     -15.476  79.071  24.954  1.00  0.00     0.178 HD
ATOM     13  H11 UNL     1     -16.046  78.813  23.480  1.00  0.00     0.178 HD
ENDBRANCH   6  11
BRANCH   8  14
HETATM   14  N4  UNL     1     -12.243  74.734  24.515  1.00  0.00    -0.238 N
HETATM   15  C2  UNL     1     -12.370  73.429  24.128  1.00  0.00     0.111 A
HETATM   16  C3  UNL     1     -11.271  72.605  24.032  1.00  0.00     0.092 A
HETATM   17  C4  UNL     1     -10.006  73.063  24.321  1.00  0.00     0.250 A
HETATM   18  O1  UNL     1      -8.981  72.322  24.238  1.00  0.00    -0.268 OA
HETATM   19  N5  UNL     1      -9.924  74.368  24.703  1.00  0.00    -0.275 N
HETATM   20  C5  UNL     1     -11.008  75.158  24.792  1.00  0.00     0.336 A
ATOM     21  H5  UNL     1      -9.009  74.759  24.928  1.00  0.00     0.173 HD
HETATM   22  O2  UNL     1     -10.871  76.363  25.149  1.00  0.00    -0.246 OA
ENDBRANCH   8  14
ENDBRANCH   4   5
ENDBRANCH   2   4
ENDBRANCH   1   2
BRANCH   1  23
HETATM   23  C9  UNL     1     -17.219  74.775  28.049  1.00  0.00     0.140 C
BRANCH  23  24
HETATM   24  N7  UNL     1     -17.107  73.445  28.578  1.00  0.00    -0.375 N
ATOM     25  H7  UNL     1     -17.861  73.103  29.172  1.00  0.00     0.160 HD
BRANCH  24  26
HETATM   26  C10 UNL     1     -16.016  72.573  28.329  1.00  0.00     0.126 C
HETATM   27  N8  UNL     1     -15.112  73.291  27.694  1.00  0.00    -0.275 N
HETATM   28  N9  UNL     1     -13.865  72.983  27.205  1.00  0.00    -0.244 N
ATOM     29  H8  UNL     1     -15.389  74.260  27.536  1.00  0.00     0.189 HD
HETATM   30  N10 UNL     1     -12.734  72.225  27.600  1.00  0.00    -0.109 NA
ATOM     31  H9  UNL     1     -13.708  73.427  26.300  1.00  0.00     0.203 HD
HETATM   32  C11 UNL     1     -13.026  70.891  27.086  1.00  0.00     0.216 C
HETATM   33  C13 UNL     1     -13.878  70.137  28.023  1.00  0.00     0.242 C
HETATM   34  O5  UNL     1     -13.273  69.109  28.440  1.00  0.00    -0.272 OA
HETATM   35  N11 UNL     1     -15.163  70.303  28.529  1.00  0.00    -0.339 N
HETATM   36  C14 UNL     1     -16.226  71.229  28.827  1.00  0.00     0.255 C
ATOM     37  H11 UNL     1     -15.491  69.378  28.807  1.00  0.00     0.163 HD
BRANCH  32  38
HETATM   38  C12 UNL     1     -11.670  70.208  26.894  1.00  0.00     0.197 C
BRANCH  38  39
HETATM   39  O4  UNL     1     -10.694  71.168  27.232  1.00  0.00    -0.399 OA
ATOM     40  H4  UNL     1     -10.008  70.699  27.691  1.00  0.00     0.209 HD
ENDBRANCH  38  39
ENDBRANCH  32  38
BRANCH  36  41
HETATM   41  C15 UNL     1     -16.312  71.289  30.308  1.00  0.00     0.204 C
HETATM   42  O6  UNL     1     -15.437  70.719  31.051  1.00  0.00    -0.646 OA
HETATM   43  O7  UNL     1     -17.333  71.957  30.941  1.00  0.00    -0.646 OA
ENDBRANCH  36  41
ENDBRANCH  24  26
ENDBRANCH  23  24
ENDBRANCH   1  23
TORSDOF 11
ENDMDL