MODEL 5
REMARK VINA RESULT: -6.198163521      3.263      6.793
REMARK  14 active torsions:
REMARK  status: ('A' for Active; 'I' for Inactive)
REMARK    1  A    between atoms: C1_2  and  C2_4
REMARK    2  A    between atoms: C3_7  and  O2_8
REMARK    3  A    between atoms: N5_20  and  N6_21
REMARK    4  A    between atoms: C8_24  and  O6_25
REMARK    5  A    between atoms: O6_25  and  C9_26
REMARK    6  A    between atoms: C9_26  and  O7_27
REMARK    7  A    between atoms: C9_26  and  C10_29
REMARK    8  A    between atoms: C10_29  and  O8_30
REMARK    9  A    between atoms: C10_29  and  C11_32
REMARK   10  A    between atoms: C11_32  and  O9_33
REMARK   11  A    between atoms: C11_32  and  C12_35
REMARK   12  A    between atoms: C12_35  and  O10_36
REMARK   13  A    between atoms: C12_35  and  C13_38
REMARK   14  A    between atoms: C13_38  and  O11_39
ROOT
HETATM    1  C2  UNL     1     -13.229  75.557  24.501  1.00  0.00     0.150 C
HETATM    2  N2  UNL     1     -11.936  75.716  24.402  1.00  0.00    -0.308 N
ATOM      3  H2  UNL     1     -11.634  76.582  23.956  1.00  0.00     0.166 HD
HETATM    4  C3  UNL     1     -10.903  74.859  24.825  1.00  0.00     0.413 C
HETATM    5  N3  UNL     1     -11.642  73.991  25.763  1.00  0.00     0.035 N
ATOM      6  H31 UNL     1     -12.037  74.487  26.561  1.00  0.00     0.289 HD
ATOM      7  H32 UNL     1     -11.046  73.361  26.300  1.00  0.00     0.289 HD
HETATM    8  C4  UNL     1     -12.611  73.324  24.963  1.00  0.00     0.301 C
HETATM    9  N4  UNL     1     -12.564  73.158  23.520  1.00  0.00    -0.319 N
ATOM     10  H4  UNL     1     -12.864  73.869  22.854  1.00  0.00     0.165 HD
HETATM   11  C5  UNL     1     -12.051  71.887  23.149  1.00  0.00     0.228 C
HETATM   12  O3  UNL     1     -12.102  71.153  22.175  1.00  0.00    -0.273 OA
HETATM   13  C6  UNL     1     -11.288  71.553  24.420  1.00  0.00     0.131 C
HETATM   14  C7  UNL     1     -10.106  72.394  24.311  1.00  0.00     0.173 C
HETATM   15  N5  UNL     1     -10.303  73.834  24.013  1.00  0.00    -0.190 N
HETATM   16  C8  UNL     1     -12.454  71.956  25.346  1.00  0.00     0.205 C
HETATM   17  C14 UNL     1     -13.682  74.280  25.122  1.00  0.00     0.240 C
HETATM   18  O12 UNL     1     -14.788  74.220  25.630  1.00  0.00    -0.286 OA
ENDROOT
BRANCH  16  19
HETATM   19  O6  UNL     1     -12.183  71.662  26.654  1.00  0.00    -0.348 OA
BRANCH  19  20
HETATM   20  C9  UNL     1     -13.348  71.246  27.355  1.00  0.00     0.288 C
BRANCH  20  21
HETATM   21  O7  UNL     1     -13.030  70.096  28.081  1.00  0.00    -0.369 OA
ATOM     22  H7  UNL     1     -13.515  70.118  28.898  1.00  0.00     0.212 HD
ENDBRANCH  20  21
BRANCH  20  23
HETATM   23  C10 UNL     1     -13.859  72.337  28.234  1.00  0.00     0.204 C
BRANCH  23  24
HETATM   24  O8  UNL     1     -12.945  72.697  29.215  1.00  0.00    -0.388 OA
ATOM     25  H8  UNL     1     -12.194  72.116  29.241  1.00  0.00     0.210 HD
ENDBRANCH  23  24
BRANCH  23  26
HETATM   26  C11 UNL     1     -15.241  72.214  28.735  1.00  0.00     0.182 C
BRANCH  26  27
HETATM   27  O9  UNL     1     -15.289  71.423  29.897  1.00  0.00    -0.390 OA
ATOM     28  H9  UNL     1     -14.496  70.910  29.994  1.00  0.00     0.210 HD
ENDBRANCH  26  27
BRANCH  26  29
HETATM   29  C12 UNL     1     -16.015  73.453  28.972  1.00  0.00     0.173 C
BRANCH  29  30
HETATM   30  O10 UNL     1     -15.351  74.640  28.781  1.00  0.00    -0.391 OA
ATOM     31  H10 UNL     1     -14.767  74.686  28.033  1.00  0.00     0.210 HD
ENDBRANCH  29  30
BRANCH  29  32
HETATM   32  C13 UNL     1     -17.343  73.485  28.244  1.00  0.00     0.198 C
BRANCH  32  33
HETATM   33  O11 UNL     1     -17.825  74.773  28.142  1.00  0.00    -0.398 OA
ATOM     34  H11 UNL     1     -17.327  75.370  28.688  1.00  0.00     0.209 HD
ENDBRANCH  32  33
ENDBRANCH  29  32
ENDBRANCH  26  29
ENDBRANCH  23  26
ENDBRANCH  20  23
ENDBRANCH  19  20
ENDBRANCH  16  19
BRANCH   4  35
HETATM   35  O2  UNL     1      -9.908  75.548  25.560  1.00  0.00    -0.330 OA
ATOM     36  H2  UNL     1      -9.457  74.978  26.172  1.00  0.00     0.216 HD
ENDBRANCH   4  35
BRANCH   1  37
HETATM   37  C1  UNL     1     -14.173  76.565  24.009  1.00  0.00     0.285 C
HETATM   38  N1  UNL     1     -14.385  76.763  22.628  1.00  0.00    -0.056 NA
HETATM   39  O1  UNL     1     -14.800  77.260  24.832  1.00  0.00    -0.269 OA
ENDBRANCH   1  37
BRANCH  15  40
HETATM   40  N6  UNL     1      -9.815  74.284  22.758  1.00  0.00    -0.036 N
HETATM   41  O4  UNL     1      -9.435  75.459  22.585  1.00  0.00    -0.516 OA
HETATM   42  O5  UNL     1      -9.750  73.422  21.693  1.00  0.00    -0.516 OA
ENDBRANCH  15  40
TORSDOF 14
ENDMDL