MODEL 4
REMARK VINA RESULT: -6.712549476      2.360      8.657
REMARK  13 active torsions:
REMARK  status: ('A' for Active; 'I' for Inactive)
REMARK    1  A    between atoms: N1_1  and  C1_5
REMARK    2  A    between atoms: C1_5  and  C2_6
REMARK    3  A    between atoms: C2_6  and  O1_7
REMARK    4  A    between atoms: C6_16  and  O4_17
REMARK    5  A    between atoms: O4_17  and  C7_18
REMARK    6  A    between atoms: C7_18  and  O5_19
REMARK    7  A    between atoms: C7_18  and  C8_21
REMARK    8  A    between atoms: C8_21  and  C9_22
REMARK    9  A    between atoms: C9_22  and  C10_24
REMARK   10  A    between atoms: N3_25  and  N4_27
REMARK   11  A    between atoms: C12_29  and  C13_30
REMARK       I    between atoms: C13_30  and  N5_32
REMARK   12  A    between atoms: N5_32  and  N6_34
REMARK   13  A    between atoms: C16_43  and  O10_44
ROOT
HETATM    1  C7  UNL     1     -15.723  71.266  25.861  1.00  0.00     0.265 C
ENDROOT
BRANCH   1   2
HETATM    2  O4  UNL     1     -14.416  70.985  25.480  1.00  0.00    -0.345 OA
BRANCH   2   3
HETATM    3  C6  UNL     1     -13.780  70.159  26.401  1.00  0.00     0.236 C
HETATM    4  C5  UNL     1     -13.803  70.845  27.701  1.00  0.00     0.247 C
HETATM    5  C4  UNL     1     -12.924  71.939  28.102  1.00  0.00     0.290 C
HETATM    6  O3  UNL     1     -14.643  70.491  28.586  1.00  0.00    -0.284 OA
HETATM    7  N2  UNL     1     -11.690  72.290  27.490  1.00  0.00    -0.351 N
HETATM    8  O2  UNL     1     -13.256  72.659  29.076  1.00  0.00    -0.264 OA
HETATM    9  C3  UNL     1     -11.318  71.905  26.125  1.00  0.00     0.165 C
ATOM     10  H2  UNL     1     -11.024  72.842  28.032  1.00  0.00     0.162 HD
HETATM   11  C2  UNL     1     -11.263  70.420  25.933  1.00  0.00     0.126 C
HETATM   12  C16 UNL     1     -12.497  69.653  25.909  1.00  0.00     0.192 C
BRANCH  11  13
HETATM   13  C1  UNL     1     -10.183  69.819  26.854  1.00  0.00     0.271 C
BRANCH  13  14
HETATM   14  N1  UNL     1      -8.864  69.988  26.399  1.00  0.00    -0.076 N
ATOM     15  H13 UNL     1      -8.294  69.183  26.658  1.00  0.00     0.274 HD
ATOM     16  H12 UNL     1      -8.828  69.909  25.383  1.00  0.00     0.274 HD
ATOM     17  H11 UNL     1      -8.417  70.853  26.704  1.00  0.00     0.274 HD
ENDBRANCH  13  14
ENDBRANCH  11  13
BRANCH  11  18
HETATM   18  O1  UNL     1     -10.625  70.289  24.659  1.00  0.00    -0.384 OA
ATOM     19  H1  UNL     1     -11.081  70.961  24.166  1.00  0.00     0.210 HD
ENDBRANCH  11  18
BRANCH  12  20
HETATM   20  O10 UNL     1     -12.244  68.436  26.603  1.00  0.00    -0.389 OA
ATOM     21  H10 UNL     1     -11.884  68.670  27.450  1.00  0.00     0.210 HD
ENDBRANCH  12  20
ENDBRANCH   2   3
ENDBRANCH   1   2
BRANCH   1  22
HETATM   22  O5  UNL     1     -16.537  70.372  25.169  1.00  0.00    -0.371 OA
ATOM     23  H5  UNL     1     -17.396  70.775  25.116  1.00  0.00     0.212 HD
ENDBRANCH   1  22
BRANCH   1  24
HETATM   24  C8  UNL     1     -16.111  72.707  25.559  1.00  0.00     0.145 C
BRANCH  24  25
HETATM   25  C9  UNL     1     -16.036  73.453  26.835  1.00  0.00     0.170 C
HETATM   26  O6  UNL     1     -15.194  74.407  26.900  1.00  0.00    -0.292 OA
BRANCH  25  27
HETATM   27  C10 UNL     1     -16.863  73.147  27.986  1.00  0.00     0.158 C
HETATM   28  N3  UNL     1     -16.354  72.963  29.149  1.00  0.00    -0.298 N
ATOM     29  H3  UNL     1     -15.344  73.033  29.270  1.00  0.00     0.186 HD
BRANCH  28  30
HETATM   30  N4  UNL     1     -17.158  72.669  30.253  1.00  0.00    -0.216 N
HETATM   31  C11 UNL     1     -17.503  71.434  30.607  1.00  0.00     0.144 A
HETATM   32  C12 UNL     1     -18.298  71.205  31.704  1.00  0.00     0.119 A
HETATM   33  C14 UNL     1     -18.740  72.280  32.444  1.00  0.00     0.266 A
HETATM   34  O8  UNL     1     -19.466  72.107  33.450  1.00  0.00    -0.267 OA
HETATM   35  N7  UNL     1     -18.388  73.535  32.083  1.00  0.00    -0.273 N
HETATM   36  C15 UNL     1     -17.602  73.701  30.993  1.00  0.00     0.348 A
ATOM     37  H7  UNL     1     -18.709  74.339  32.621  1.00  0.00     0.173 HD
HETATM   38  O9  UNL     1     -17.293  74.882  30.685  1.00  0.00    -0.245 OA
BRANCH  32  39
HETATM   39  C13 UNL     1     -18.669  69.852  32.079  1.00  0.00     0.276 C
HETATM   40  O7  UNL     1     -17.829  68.927  32.045  1.00  0.00    -0.266 OA
HETATM   41  N5  UNL     1     -19.992  69.587  32.483  1.00  0.00    -0.272 N
ATOM     42  H5  UNL     1     -20.672  70.347  32.508  1.00  0.00     0.189 HD
BRANCH  41  43
HETATM   43  N6  UNL     1     -20.385  68.302  32.850  1.00  0.00    -0.342 N
ATOM     44  H62 UNL     1     -19.861  67.508  32.480  1.00  0.00     0.176 HD
ATOM     45  H61 UNL     1     -21.178  68.154  33.474  1.00  0.00     0.176 HD
ENDBRANCH  41  43
ENDBRANCH  32  39
ENDBRANCH  28  30
ENDBRANCH  25  27
ENDBRANCH  24  25
ENDBRANCH   1  24
TORSDOF 13
ENDMDL