MODEL 4
REMARK VINA RESULT: -6.783475286      1.063      1.491
REMARK  13 active torsions:
REMARK  status: ('A' for Active; 'I' for Inactive)
REMARK    1  A    between atoms: C1_2  and  O2_4
REMARK    2  A    between atoms: O2_4  and  C2_5
REMARK    3  A    between atoms: C2_5  and  C3_6
REMARK    4  A    between atoms: C3_6  and  N2_7
REMARK    5  A    between atoms: C3_6  and  C4_11
REMARK       I    between atoms: C4_11  and  N3_13
REMARK    6  A    between atoms: N3_13  and  C5_15
REMARK    7  A    between atoms: C5_15  and  O4_16
REMARK    8  A    between atoms: C6_18  and  O5_19
REMARK    9  A    between atoms: C6_18  and  C7_21
REMARK   10  A    between atoms: C8_25  and  O6_26
REMARK   11  A    between atoms: C9_28  and  N5_29
REMARK   12  A    between atoms: N6_34  and  N7_35
REMARK   13  A    between atoms: C14_41  and  C15_42
ROOT
HETATM    1  C7  UNL     1     -13.627  70.101  27.448  1.00  0.00     0.287 C
HETATM    2  N4  UNL     1     -12.242  69.673  27.435  1.00  0.00    -0.031 N
ATOM      3  H41 UNL     1     -12.186  68.663  27.303  1.00  0.00     0.281 HD
ATOM      4  H42 UNL     1     -11.839  69.752  28.368  1.00  0.00     0.281 HD
HETATM    5  C8  UNL     1     -11.422  70.340  26.486  1.00  0.00     0.369 C
HETATM    6  C9  UNL     1     -12.284  71.245  25.653  1.00  0.00     0.289 C
HETATM    7  O9  UNL     1     -12.858  72.158  26.489  1.00  0.00    -0.345 OA
HETATM    8  C14 UNL     1     -13.870  71.516  27.272  1.00  0.00     0.250 C
ENDROOT
BRANCH   1   9
HETATM    9  C6  UNL     1     -14.224  69.385  28.654  1.00  0.00     0.128 C
HETATM   10  C5  UNL     1     -15.569  68.927  28.467  1.00  0.00     0.174 C
BRANCH  10  11
HETATM   11  N3  UNL     1     -16.568  68.765  29.404  1.00  0.00    -0.304 N
HETATM   12  C4  UNL     1     -17.968  68.705  29.318  1.00  0.00     0.256 C
HETATM   13  O3  UNL     1     -18.692  68.785  28.302  1.00  0.00    -0.271 OA
ATOM     14  H3  UNL     1     -16.217  68.667  30.356  1.00  0.00     0.171 HD
BRANCH  12  15
HETATM   15  C3  UNL     1     -18.815  68.519  30.585  1.00  0.00     0.299 C
BRANCH  15  16
HETATM   16  C2  UNL     1     -18.448  69.557  31.586  1.00  0.00     0.222 C
BRANCH  16  17
HETATM   17  O2  UNL     1     -18.076  70.799  31.155  1.00  0.00    -0.304 OA
BRANCH  17  18
HETATM   18  C1  UNL     1     -17.002  71.574  31.435  1.00  0.00     0.372 C
HETATM   19  N1  UNL     1     -17.190  72.963  31.721  1.00  0.00    -0.032 NA
HETATM   20  O1  UNL     1     -15.860  71.072  31.443  1.00  0.00    -0.242 OA
ENDBRANCH  17  18
ENDBRANCH  16  17
ENDBRANCH  15  16
BRANCH  15  21
HETATM   21  N2  UNL     1     -20.170  68.398  30.216  1.00  0.00    -0.064 N
ATOM     22  H23 UNL     1     -20.485  67.447  30.413  1.00  0.00     0.275 HD
ATOM     23  H22 UNL     1     -20.741  68.932  30.870  1.00  0.00     0.275 HD
ATOM     24  H21 UNL     1     -20.435  68.646  29.263  1.00  0.00     0.275 HD
ENDBRANCH  15  21
ENDBRANCH  12  15
ENDBRANCH  10  11
BRANCH  10  25
HETATM   25  O4  UNL     1     -15.911  68.615  27.244  1.00  0.00    -0.344 OA
ATOM     26  H4  UNL     1     -15.251  68.134  26.758  1.00  0.00     0.219 HD
ENDBRANCH  10  25
BRANCH   9  27
HETATM   27  O5  UNL     1     -13.815  69.914  29.837  1.00  0.00    -0.359 OA
ATOM     28  H5  UNL     1     -13.195  70.633  29.869  1.00  0.00     0.217 HD
ENDBRANCH   9  27
ENDBRANCH   1   9
BRANCH   8  29
HETATM   29  C15 UNL     1     -14.045  72.395  28.431  1.00  0.00     0.262 C
HETATM   30  N8  UNL     1     -15.270  73.053  28.737  1.00  0.00    -0.060 NA
HETATM   31  O10 UNL     1     -13.107  72.614  29.219  1.00  0.00    -0.274 OA
ENDBRANCH   8  29
BRANCH   5  32
HETATM   32  O6  UNL     1     -10.436  71.032  27.187  1.00  0.00    -0.366 OA
ATOM     33  H6  UNL     1      -9.596  70.649  26.961  1.00  0.00     0.212 HD
ENDBRANCH   5  32
BRANCH   6  34
HETATM   34  N5  UNL     1     -11.583  71.826  24.534  1.00  0.00    -0.276 N
HETATM   35  C10 UNL     1     -11.141  73.091  24.628  1.00  0.00     0.104 A
HETATM   36  C11 UNL     1     -10.468  73.670  23.571  1.00  0.00     0.094 A
HETATM   37  C12 UNL     1     -10.269  72.913  22.434  1.00  0.00     0.271 A
HETATM   38  O7  UNL     1      -9.647  73.449  21.460  1.00  0.00    -0.266 OA
HETATM   39  N6  UNL     1     -10.710  71.646  22.338  1.00  0.00    -0.175 N
HETATM   40  C13 UNL     1     -11.367  71.124  23.405  1.00  0.00     0.352 A
HETATM   41  O8  UNL     1     -11.784  69.938  23.325  1.00  0.00    -0.244 OA
BRANCH  39  42
HETATM   42  N7  UNL     1     -10.493  70.905  21.173  1.00  0.00    -0.332 N
ATOM     43  H72 UNL     1      -9.607  70.433  20.994  1.00  0.00     0.177 HD
ATOM     44  H71 UNL     1     -11.226  70.819  20.470  1.00  0.00     0.177 HD
ENDBRANCH  39  42
ENDBRANCH   6  34
TORSDOF 13
ENDMDL