MODEL 2
REMARK VINA RESULT: -6.000941092      3.004      4.489
REMARK  1 active torsions:
REMARK  status: ('A' for Active; 'I' for Inactive)
REMARK    1  A    between atoms: C6_6  and  C7_7
ROOT
HETATM    1  C1  UNL     1     -13.358  -8.888   0.395  1.00  0.00     0.046 C
HETATM    2  C2  UNL     1     -12.266  -8.070   1.050  1.00  0.00     0.118 C
HETATM    3  C3  UNL     1     -10.974  -8.419   0.320  1.00  0.00     0.046 C
HETATM    4  C4  UNL     1     -12.150  -8.308   2.521  1.00  0.00     0.039 C
HETATM    5  C5  UNL     1     -12.130  -6.995   3.303  1.00  0.00     0.018 C
HETATM    6  C6  UNL     1     -13.412  -6.248   3.023  1.00  0.00     0.119 C
HETATM    7  C8  UNL     1     -13.648  -6.205   1.523  1.00  0.00     0.246 C
HETATM    8  N1  UNL     1     -12.473  -6.645   0.847  1.00  0.00    -0.066 N
ATOM      9  H11 UNL     1     -12.493  -6.404  -0.144  1.00  0.00     0.278 HD
ATOM     10  H12 UNL     1     -11.654  -6.102   1.120  1.00  0.00     0.278 HD
ENDROOT
BRANCH   6  11
HETATM   11  C7  UNL     1     -13.299  -4.834   3.567  1.00  0.00     0.393 C
HETATM   12  F1  UNL     1     -13.805  -3.902   2.703  1.00  0.00    -0.171 F
HETATM   13  F2  UNL     1     -11.937  -4.626   3.803  1.00  0.00    -0.171 F
HETATM   14  F3  UNL     1     -13.913  -4.785   4.803  1.00  0.00    -0.171 F
ENDBRANCH   6  11
TORSDOF 1
ENDMDL