MODEL 5
REMARK VINA RESULT: -5.285773300      1.560      2.709
REMARK  2 active torsions:
REMARK  status: ('A' for Active; 'I' for Inactive)
REMARK    1  A    between atoms: C3_3  and  C4_6
REMARK    2  A    between atoms: C8_10  and  N1_11
ROOT
HETATM    1  C1  UNL     1     -15.240  -6.376   0.190  1.00  0.00     0.018 C
HETATM    2  C2  UNL     1     -14.200  -6.844   0.590  1.00  0.00    -0.040 C
HETATM    3  C3  UNL     1     -12.948  -7.426   1.068  1.00  0.00     0.309 C
HETATM    4  F1  UNL     1     -13.019  -8.815   1.072  1.00  0.00    -0.191 F
HETATM    5  F2  UNL     1     -11.982  -7.101   0.111  1.00  0.00    -0.191 F
ENDROOT
BRANCH   3   6
HETATM    6  C4  UNL     1     -12.555  -6.891   2.430  1.00  0.00     0.073 C
HETATM    7  C5  UNL     1     -13.162  -7.773   3.475  1.00  0.00     0.012 C
HETATM    8  C6  UNL     1     -12.756  -7.265   4.817  1.00  0.00     0.003 C
HETATM    9  C7  UNL     1     -13.305  -5.886   5.053  1.00  0.00     0.033 C
HETATM   10  C8  UNL     1     -13.066  -4.931   3.932  1.00  0.00     0.184 C
HETATM   11  C9  UNL     1     -13.140  -5.517   2.565  1.00  0.00     0.044 C
BRANCH  10  12
HETATM   12  N1  UNL     1     -11.774  -4.291   4.116  1.00  0.00    -0.075 N
ATOM     13  H13 UNL     1     -11.215  -4.296   3.263  1.00  0.00     0.274 HD
ATOM     14  H12 UNL     1     -11.855  -3.280   4.230  1.00  0.00     0.274 HD
ATOM     15  H11 UNL     1     -11.290  -4.731   4.898  1.00  0.00     0.274 HD
ENDBRANCH  10  12
ENDBRANCH   3   6
TORSDOF 2
ENDMDL