MODEL 3
REMARK VINA RESULT: -5.763931133      2.491      3.968
REMARK  1 active torsions:
REMARK  status: ('A' for Active; 'I' for Inactive)
REMARK    1  A    between atoms: C4_4  and  N1_5
ROOT
HETATM    1  C1  UNL     1     -12.795  -3.897   3.098  1.00  0.00     0.010 C
HETATM    2  C2  UNL     1     -13.478  -5.257   2.889  1.00  0.00    -0.011 C
HETATM    3  C3  UNL     1     -13.799  -5.373   1.457  1.00  0.00     0.037 C
HETATM    4  C4  UNL     1     -13.947  -6.776   0.943  1.00  0.00     0.193 C
HETATM    5  C5  UNL     1     -12.659  -7.509   1.283  1.00  0.00     0.084 C
HETATM    6  C6  UNL     1     -12.587  -8.865   0.660  1.00  0.00     0.018 C
HETATM    7  C7  UNL     1     -12.619  -7.617   2.796  1.00  0.00     0.249 C
HETATM    8  F1  UNL     1     -13.649  -8.460   3.170  1.00  0.00    -0.206 F
HETATM    9  F2  UNL     1     -11.425  -8.273   3.102  1.00  0.00    -0.206 F
HETATM   10  C8  UNL     1     -12.626  -6.304   3.477  1.00  0.00     0.084 C
ENDROOT
BRANCH   4  11
HETATM   11  N1  UNL     1     -14.084  -6.679  -0.510  1.00  0.00    -0.074 N
ATOM     12  H13 UNL     1     -14.396  -5.760  -0.824  1.00  0.00     0.274 HD
ATOM     13  H12 UNL     1     -13.191  -6.687  -1.000  1.00  0.00     0.274 HD
ATOM     14  H11 UNL     1     -14.707  -7.434  -0.796  1.00  0.00     0.274 HD
ENDBRANCH   4  11
TORSDOF 1
ENDMDL