MODEL 4
REMARK VINA RESULT: -6.233361714      2.776      3.754
REMARK  2 active torsions:
REMARK  status: ('A' for Active; 'I' for Inactive)
REMARK    1  A    between atoms: N1_1  and  C1_5
REMARK    2  A    between atoms: C5_9  and  C6_10
ROOT
HETATM    1  C1  UNL     1     -13.452  -6.710   0.913  1.00  0.00     0.183 C
HETATM    2  C2  UNL     1     -13.105  -5.283   1.170  1.00  0.00     0.033 C
HETATM    3  C3  UNL     1     -13.461  -4.776   2.519  1.00  0.00     0.002 C
HETATM    4  C4  UNL     1     -12.351  -4.949   3.533  1.00  0.00     0.010 C
HETATM    5  C5  UNL     1     -12.210  -6.380   3.988  1.00  0.00     0.051 C
HETATM    6  C7  UNL     1     -11.890  -7.228   2.804  1.00  0.00     0.012 C
HETATM    7  C8  UNL     1     -13.076  -7.655   2.002  1.00  0.00     0.033 C
ENDROOT
BRANCH   1   8
HETATM    8  N1  UNL     1     -14.877  -6.848   0.623  1.00  0.00    -0.075 N
ATOM      9  H13 UNL     1     -15.409  -7.115   1.451  1.00  0.00     0.274 HD
ATOM     10  H12 UNL     1     -15.316  -5.944   0.444  1.00  0.00     0.274 HD
ATOM     11  H11 UNL     1     -15.024  -7.499  -0.147  1.00  0.00     0.274 HD
ENDBRANCH   1   8
BRANCH   5  12
HETATM   12  C6  UNL     1     -13.419  -6.826   4.757  1.00  0.00     0.357 C
HETATM   13  F1  UNL     1     -13.107  -7.841   5.615  1.00  0.00    -0.214 F
HETATM   14  F2  UNL     1     -13.845  -5.749   5.520  1.00  0.00    -0.214 F
ENDBRANCH   5  12
TORSDOF 2
ENDMDL