MODEL 5
REMARK VINA RESULT: -4.347646951      2.120      3.113
REMARK  0 active torsions:
REMARK  status: ('A' for Active; 'I' for Inactive)
ROOT
HETATM    1  C1  UNL     1     -11.416  -8.954   0.605  1.00  0.00     0.032 C
HETATM    2  C2  UNL     1     -11.632  -7.777   1.566  1.00  0.00     0.078 C
HETATM    3  C3  UNL     1     -12.312  -8.217   2.826  1.00  0.00     0.103 C
HETATM    4  C4  UNL     1     -12.576  -6.926   3.615  1.00  0.00     0.247 C
HETATM    5  F1  UNL     1     -12.966  -7.168   4.890  1.00  0.00    -0.206 F
HETATM    6  F2  UNL     1     -11.410  -6.183   3.532  1.00  0.00    -0.206 F
HETATM    7  C5  UNL     1     -13.630  -6.190   2.839  1.00  0.00     0.108 C
HETATM    8  C6  UNL     1     -13.399  -6.127   1.379  1.00  0.00     0.024 C
HETATM    9  C7  UNL     1     -14.601  -6.726   0.639  1.00  0.00     0.037 C
HETATM   10  C8  UNL     1     -13.388  -4.644   0.976  1.00  0.00     0.037 C
HETATM   11  N1  UNL     1     -12.231  -6.713   0.878  1.00  0.00    -0.409 N
ATOM     12  H1  UNL     1     -11.816  -6.367   0.014  1.00  0.00     0.154 HD
ENDROOT
TORSDOF 0
ENDMDL