MODEL 5
REMARK VINA RESULT: -4.230843731      1.975      3.549
REMARK  0 active torsions:
REMARK  status: ('A' for Active; 'I' for Inactive)
ROOT
HETATM    1  C1  UNL     1     -14.347  -6.942  -0.033  1.00  0.00     0.017 C
HETATM    2  C2  UNL     1     -13.254  -6.472   0.897  1.00  0.00     0.080 C
HETATM    3  C3  UNL     1     -13.752  -5.265   1.642  1.00  0.00     0.243 C
HETATM    4  N1  UNL     1     -12.912  -4.948   2.767  1.00  0.00    -0.066 N
ATOM      5  H11 UNL     1     -13.166  -4.042   3.160  1.00  0.00     0.278 HD
ATOM      6  H12 UNL     1     -11.962  -4.742   2.457  1.00  0.00     0.278 HD
HETATM    7  C4  UNL     1     -12.899  -5.949   3.788  1.00  0.00     0.124 C
HETATM    8  C5  UNL     1     -11.537  -5.988   4.477  1.00  0.00     0.046 C
HETATM    9  C6  UNL     1     -13.907  -5.643   4.900  1.00  0.00     0.046 C
HETATM   10  C7  UNL     1     -13.228  -7.313   3.265  1.00  0.00     0.117 C
HETATM   11  C8  UNL     1     -12.786  -7.536   1.844  1.00  0.00     0.250 C
HETATM   12  F1  UNL     1     -13.272  -8.789   1.464  1.00  0.00    -0.206 F
HETATM   13  F2  UNL     1     -11.402  -7.636   1.762  1.00  0.00    -0.206 F
ENDROOT
TORSDOF 0
ENDMDL