MODEL 5
REMARK VINA RESULT: -4.459380285      1.269      2.447
REMARK  0 active torsions:
REMARK  status: ('A' for Active; 'I' for Inactive)
ROOT
HETATM    1  F1  UNL     1     -11.782  -6.029   4.347  1.00  0.00    -0.206 F
HETATM    2  C1  UNL     1     -12.600  -6.670   3.401  1.00  0.00     0.247 C
HETATM    3  F2  UNL     1     -13.482  -7.418   4.200  1.00  0.00    -0.206 F
HETATM    4  C2  UNL     1     -13.313  -5.690   2.570  1.00  0.00     0.112 C
HETATM    5  C3  UNL     1     -13.145  -5.756   1.111  1.00  0.00     0.192 C
HETATM    6  C4  UNL     1     -14.407  -6.303   0.437  1.00  0.00     0.033 C
HETATM    7  C5  UNL     1     -14.623  -7.698   0.893  1.00  0.00     0.004 C
HETATM    8  C6  UNL     1     -13.422  -8.536   1.046  1.00  0.00     0.033 C
HETATM    9  C7  UNL     1     -12.131  -7.849   1.231  1.00  0.00     0.192 C
HETATM   10  C8  UNL     1     -11.738  -7.647   2.682  1.00  0.00     0.112 C
HETATM   11  N1  UNL     1     -12.050  -6.535   0.629  1.00  0.00    -0.066 N
ATOM     12  H11 UNL     1     -11.148  -6.085   0.786  1.00  0.00     0.278 HD
ATOM     13  H12 UNL     1     -12.011  -6.570  -0.390  1.00  0.00     0.278 HD
ENDROOT
TORSDOF 0
ENDMDL