MODEL 4
REMARK VINA RESULT: -6.668864505      3.214      4.076
REMARK  2 active torsions:
REMARK  status: ('A' for Active; 'I' for Inactive)
REMARK    1  A    between atoms: N1_1  and  C1_5
REMARK    2  A    between atoms: C5_9  and  C6_10
ROOT
HETATM    1  C1  UNL     1     -12.340  -6.295   4.539  1.00  0.00     0.183 C
HETATM    2  C2  UNL     1     -13.535  -5.404   4.310  1.00  0.00     0.033 C
HETATM    3  C3  UNL     1     -13.389  -4.509   3.116  1.00  0.00     0.003 C
HETATM    4  C4  UNL     1     -13.138  -5.219   1.836  1.00  0.00     0.013 C
HETATM    5  C5  UNL     1     -13.558  -6.651   1.814  1.00  0.00     0.093 C
HETATM    6  C7  UNL     1     -12.571  -7.600   2.404  1.00  0.00     0.015 C
HETATM    7  C8  UNL     1     -12.542  -7.629   3.897  1.00  0.00     0.033 C
ENDROOT
BRANCH   1   8
HETATM    8  N1  UNL     1     -12.257  -6.518   5.984  1.00  0.00    -0.075 N
ATOM      9  H13 UNL     1     -11.350  -6.874   6.287  1.00  0.00     0.274 HD
ATOM     10  H12 UNL     1     -12.242  -5.654   6.526  1.00  0.00     0.274 HD
ATOM     11  H11 UNL     1     -13.034  -7.134   6.228  1.00  0.00     0.274 HD
ENDBRANCH   1   8
BRANCH   5  12
HETATM   12  C6  UNL     1     -13.692  -7.034   0.331  1.00  0.00     0.391 C
HETATM   13  F1  UNL     1     -13.621  -8.384   0.157  1.00  0.00    -0.171 F
HETATM   14  F2  UNL     1     -12.746  -6.416  -0.437  1.00  0.00    -0.171 F
HETATM   15  F3  UNL     1     -14.937  -6.627  -0.148  1.00  0.00    -0.171 F
ENDBRANCH   5  12
TORSDOF 2
ENDMDL