MODEL 1
REMARK VINA RESULT: -6.373852945      0.000      0.000
REMARK  1 active torsions:
REMARK  status: ('A' for Active; 'I' for Inactive)
REMARK    1  A    between atoms: C2_2  and  C3_5
ROOT
HETATM    1  C3  UNL     1     -13.286  -6.477   2.737  1.00  0.00     0.059 C
HETATM    2  C4  UNL     1     -13.480  -5.871   1.368  1.00  0.00     0.012 C
HETATM    3  C5  UNL     1     -13.042  -6.957   0.405  1.00  0.00     0.016 C
HETATM    4  C6  UNL     1     -12.599  -8.121   1.267  1.00  0.00     0.059 C
HETATM    5  S1  UNL     1     -11.326  -9.117   0.513  1.00  0.00    -0.092 SA
HETATM    6  C7  UNL     1     -12.082  -7.364   2.502  1.00  0.00     0.026 C
ENDROOT
BRANCH   1   7
HETATM    7  C2  UNL     1     -13.049  -5.450   3.801  1.00  0.00     0.243 C
HETATM    8  C1  UNL     1     -13.455  -6.035   5.125  1.00  0.00     0.090 C
HETATM    9  F1  UNL     1     -13.723  -4.275   3.558  1.00  0.00    -0.206 F
HETATM   10  F2  UNL     1     -11.702  -5.159   3.877  1.00  0.00    -0.206 F
ENDBRANCH   1   7
TORSDOF 1
ENDMDL