MODEL 1
REMARK VINA RESULT: -7.184425693      0.000      0.000
REMARK  1 active torsions:
REMARK  status: ('A' for Active; 'I' for Inactive)
REMARK    1  A    between atoms: C4_4  and  O1_5
ROOT
HETATM    1  C1  UNL     1     -11.732  -9.101   0.529  1.00  0.00     0.010 C
HETATM    2  C2  UNL     1     -12.887  -8.142   0.853  1.00  0.00    -0.011 C
HETATM    3  C3  UNL     1     -13.284  -8.208   2.263  1.00  0.00     0.036 C
HETATM    4  C4  UNL     1     -13.058  -7.039   3.126  1.00  0.00     0.128 C
HETATM    5  C5  UNL     1     -12.822  -5.735   2.462  1.00  0.00     0.082 C
HETATM    6  C6  UNL     1     -13.533  -4.572   3.130  1.00  0.00     0.019 C
HETATM    7  C7  UNL     1     -13.250  -5.711   1.002  1.00  0.00     0.249 C
HETATM    8  F1  UNL     1     -14.585  -5.967   0.953  1.00  0.00    -0.206 F
HETATM    9  F2  UNL     1     -12.890  -4.489   0.493  1.00  0.00    -0.206 F
HETATM   10  C8  UNL     1     -12.456  -6.807   0.336  1.00  0.00     0.084 C
ENDROOT
BRANCH   4  11
HETATM   11  O1  UNL     1     -11.951  -7.266   3.982  1.00  0.00    -0.395 OA
ATOM     12  H1  UNL     1     -11.471  -6.459   4.121  1.00  0.00     0.210 HD
ENDBRANCH   4  11
TORSDOF 1
ENDMDL