MODEL 5
REMARK VINA RESULT: -4.937841094      3.586      5.386
REMARK  9 active torsions:
REMARK  status: ('A' for Active; 'I' for Inactive)
REMARK    1  A    between atoms: C2_3  and  C3_5
REMARK    2  A    between atoms: C3_5  and  N2_6
REMARK    3  A    between atoms: N2_6  and  C4_9
REMARK    4  A    between atoms: C4_9  and  C5_10
REMARK    5  A    between atoms: C4_9  and  C8_15
REMARK    6  A    between atoms: C5_10  and  C6_11
REMARK    7  A    between atoms: C6_11  and  C7_12
REMARK    8  A    between atoms: C8_15  and  C9_16
REMARK    9  A    between atoms: C11_20  and  N5_21
ROOT
HETATM    1  N1  UNL     1      -7.541   6.776  -2.608  1.00  0.00    -0.188 NA
HETATM    2  C1  UNL     1      -6.656   6.256  -2.074  1.00  0.00     0.140 C
HETATM    3  C2  UNL     1      -5.552   5.620  -1.390  1.00  0.00     0.253 C
HETATM    4  O1  UNL     1      -4.754   6.242  -0.667  1.00  0.00    -0.279 OA
ENDROOT
BRANCH   3   5
HETATM    5  C3  UNL     1      -5.385   4.143  -1.576  1.00  0.00     0.327 C
BRANCH   5   6
HETATM    6  N2  UNL     1      -6.245   3.699  -2.622  1.00  0.00    -0.063 N
ATOM      7  H22 UNL     1      -6.867   4.452  -2.919  1.00  0.00     0.278 HD
ATOM      8  H21 UNL     1      -5.719   3.560  -3.485  1.00  0.00     0.278 HD
BRANCH   6   9
HETATM    9  C4  UNL     1      -6.999   2.520  -2.294  1.00  0.00     0.191 C
BRANCH   9  10
HETATM   10  C5  UNL     1      -6.789   2.147  -0.870  1.00  0.00     0.042 C
BRANCH  10  11
HETATM   11  C6  UNL     1      -8.043   2.196  -0.032  1.00  0.00     0.101 C
BRANCH  11  12
HETATM   12  C7  UNL     1      -8.356   3.603   0.314  1.00  0.00     0.231 C
HETATM   13  N3  UNL     1      -9.233   4.373  -0.471  1.00  0.00    -0.062 NA
HETATM   14  O2  UNL     1      -7.827   4.114   1.329  1.00  0.00    -0.277 OA
ENDBRANCH  11  12
ENDBRANCH  10  11
ENDBRANCH   9  10
BRANCH   9  15
HETATM   15  C8  UNL     1      -6.739   1.391  -3.255  1.00  0.00     0.080 C
BRANCH  15  16
HETATM   16  C9  UNL     1      -6.539   1.909  -4.653  1.00  0.00     0.003 A
HETATM   17  C10 UNL     1      -5.426   1.791  -5.447  1.00  0.00     0.105 A
HETATM   18  N4  UNL     1      -5.474   2.322  -6.638  1.00  0.00    -0.346 N
HETATM   19  C11 UNL     1      -6.585   2.944  -7.019  1.00  0.00     0.142 A
ATOM     20  H4  UNL     1      -4.673   2.262  -7.267  1.00  0.00     0.167 HD
HETATM   21  S1  UNL     1      -7.606   2.783  -5.664  1.00  0.00    -0.058 SA
BRANCH  19  22
HETATM   22  N5  UNL     1      -6.841   3.540  -8.159  1.00  0.00    -0.380 N
ATOM     23  H52 UNL     1      -7.448   3.220  -8.914  1.00  0.00     0.158 HD
ATOM     24  H51 UNL     1      -6.486   4.431  -8.506  1.00  0.00     0.158 HD
ENDBRANCH  19  22
ENDBRANCH  15  16
ENDBRANCH   9  15
ENDBRANCH   6   9
ENDBRANCH   5   6
ENDBRANCH   3   5
TORSDOF 9
ENDMDL