MODEL 1
REMARK VINA RESULT: -5.525795681      0.000      0.000
REMARK  9 active torsions:
REMARK  status: ('A' for Active; 'I' for Inactive)
REMARK    1  A    between atoms: C2_2  and  C3_3
REMARK    2  A    between atoms: N3_11  and  C6_12
REMARK    3  A    between atoms: C6_12  and  C7_13
REMARK    4  A    between atoms: C6_12  and  C11_23
REMARK    5  A    between atoms: C7_13  and  C8_14
REMARK    6  A    between atoms: C8_14  and  C9_15
REMARK    7  A    between atoms: C9_15  and  N4_16
REMARK    8  A    between atoms: C9_15  and  C10_20
REMARK    9  A    between atoms: C11_23  and  C12_24
ROOT
HETATM    1  C6  UNL     1      -8.322   2.646  -0.947  1.00  0.00     0.118 C
ENDROOT
BRANCH   1   2
HETATM    2  N3  UNL     1      -7.958   2.752  -2.318  1.00  0.00    -0.177 N
HETATM    3  C3  UNL     1      -8.836   2.425  -3.327  1.00  0.00     0.067 A
HETATM    4  C4  UNL     1      -8.170   2.641  -4.503  1.00  0.00     0.136 A
HETATM    5  N1  UNL     1      -6.940   3.079  -4.282  1.00  0.00    -0.200 N
HETATM    6  C5  UNL     1      -6.806   3.149  -2.906  1.00  0.00     0.678 A
ATOM      7  H1  UNL     1      -6.236   3.316  -4.981  1.00  0.00     0.183 HD
HETATM    8  N2  UNL     1      -5.718   3.533  -2.429  1.00  0.00    -0.234 N
ATOM      9  H22 UNL     1      -4.850   3.832  -2.872  1.00  0.00     0.174 HD
ATOM     10  H21 UNL     1      -5.619   3.585  -1.415  1.00  0.00     0.174 HD
BRANCH   3  11
HETATM   11  C2  UNL     1     -10.193   1.942  -3.158  1.00  0.00     0.021 C
HETATM   12  C1  UNL     1     -11.045   1.911  -4.177  1.00  0.00     0.013 C
ENDBRANCH   3  11
ENDBRANCH   1   2
BRANCH   1  13
HETATM   13  C7  UNL     1      -8.513   3.893  -0.169  1.00  0.00     0.029 C
BRANCH  13  14
HETATM   14  C8  UNL     1      -7.515   4.043   0.958  1.00  0.00     0.046 C
BRANCH  14  15
HETATM   15  C9  UNL     1      -6.853   5.364   1.067  1.00  0.00     0.283 C
BRANCH  15  16
HETATM   16  N4  UNL     1      -6.030   5.316   2.268  1.00  0.00    -0.065 N
ATOM     17  H43 UNL     1      -5.115   4.891   2.114  1.00  0.00     0.275 HD
ATOM     18  H42 UNL     1      -5.696   6.233   2.565  1.00  0.00     0.275 HD
ATOM     19  H41 UNL     1      -6.582   4.837   2.979  1.00  0.00     0.275 HD
ENDBRANCH  15  16
BRANCH  15  20
HETATM   20  C10 UNL     1      -5.993   5.716  -0.070  1.00  0.00     0.204 C
HETATM   21  O1  UNL     1      -4.837   5.212  -0.123  1.00  0.00    -0.646 OA
HETATM   22  O2  UNL     1      -6.323   6.558  -1.110  1.00  0.00    -0.646 OA
ENDBRANCH  15  20
ENDBRANCH  14  15
ENDBRANCH  13  14
ENDBRANCH   1  13
BRANCH   1  23
HETATM   23  C11 UNL     1      -7.399   1.648  -0.262  1.00  0.00     0.139 C
BRANCH  23  24
HETATM   24  C12 UNL     1      -7.984   0.333  -0.038  1.00  0.00     0.174 C
HETATM   25  O3  UNL     1      -8.942   0.213   0.767  1.00  0.00    -0.648 OA
HETATM   26  O4  UNL     1      -7.537  -0.815  -0.673  1.00  0.00    -0.648 OA
ENDBRANCH  23  24
ENDBRANCH   1  23
TORSDOF 9
ENDMDL