MODEL 4
REMARK VINA RESULT: -5.704170227      1.610      2.560
REMARK  9 active torsions:
REMARK  status: ('A' for Active; 'I' for Inactive)
REMARK    1  A    between atoms: C2_2  and  C3_3
REMARK    2  A    between atoms: C3_3  and  C4_4
REMARK    3  A    between atoms: C4_4  and  N1_5
REMARK    4  A    between atoms: N1_5  and  N2_6
REMARK       I    between atoms: N1_5  and  C12_19
REMARK    5  A    between atoms: N2_6  and  C5_8
REMARK    6  A    between atoms: C8_11  and  O1_12
REMARK    7  A    between atoms: C9_14  and  C10_15
REMARK    8  A    between atoms: C12_19  and  C13_21
REMARK    9  A    between atoms: C13_21  and  N4_22
ROOT
HETATM    1  N2  UNL     1      -8.153   3.756  -0.220  1.00  0.00    -0.296 N
ATOM      2  H2  UNL     1      -8.914   4.395   0.009  1.00  0.00     0.187 HD
ENDROOT
BRANCH   1   3
HETATM    3  N1  UNL     1      -6.988   4.304  -0.731  1.00  0.00    -0.259 N
HETATM    4  C12 UNL     1      -6.000   4.792   0.143  1.00  0.00     0.263 C
HETATM    5  O3  UNL     1      -4.962   5.298  -0.324  1.00  0.00    -0.270 OA
BRANCH   3   6
HETATM    6  C4  UNL     1      -6.803   4.382  -2.176  1.00  0.00     0.156 C
BRANCH   6   7
HETATM    7  C3  UNL     1      -7.742   5.404  -2.757  1.00  0.00     0.048 C
BRANCH   7   8
HETATM    8  C2  UNL     1      -7.096   6.738  -2.753  1.00  0.00    -0.035 C
HETATM    9  C1  UNL     1      -7.762   7.778  -3.221  1.00  0.00     0.007 C
ENDBRANCH   7   8
ENDBRANCH   6   7
ENDBRANCH   3   6
BRANCH   4  10
HETATM   10  C13 UNL     1      -6.171   4.717   1.606  1.00  0.00     0.333 C
BRANCH  10  11
HETATM   11  N4  UNL     1      -6.911   5.879   2.100  1.00  0.00    -0.071 N
ATOM     12  H43 UNL     1      -6.810   6.683   1.481  1.00  0.00     0.274 HD
ATOM     13  H42 UNL     1      -7.920   5.749   2.018  1.00  0.00     0.274 HD
ATOM     14  H41 UNL     1      -6.635   6.101   3.057  1.00  0.00     0.274 HD
ENDBRANCH  10  11
ENDBRANCH   4  10
ENDBRANCH   1   3
BRANCH   1  15
HETATM   15  C5  UNL     1      -8.368   2.372   0.009  1.00  0.00     0.049 A
HETATM   16  C6  UNL     1      -9.530   1.925   0.609  1.00  0.00     0.034 A
HETATM   17  C7  UNL     1      -9.765   0.595   0.846  1.00  0.00     0.040 A
HETATM   18  C8  UNL     1      -8.833  -0.403   0.492  1.00  0.00     0.081 A
HETATM   19  C9  UNL     1      -7.680   0.035  -0.101  1.00  0.00     0.064 A
HETATM   20  C11 UNL     1      -7.463   1.392  -0.333  1.00  0.00     0.050 A
BRANCH  18  21
HETATM   21  O1  UNL     1      -9.171  -1.701   0.775  1.00  0.00    -0.360 OA
ATOM     22  H1  UNL     1      -9.731  -2.147   0.151  1.00  0.00     0.217 HD
ENDBRANCH  18  21
BRANCH  19  23
HETATM   23  C10 UNL     1      -6.656  -0.911  -0.498  1.00  0.00     0.267 C
HETATM   24  N3  UNL     1      -7.056  -1.989  -1.365  1.00  0.00    -0.057 NA
HETATM   25  O2  UNL     1      -5.462  -0.911  -0.182  1.00  0.00    -0.271 OA
ENDBRANCH  19  23
ENDBRANCH   1  15
TORSDOF 9
ENDMDL