MODEL 4
REMARK VINA RESULT: -4.687014224      1.255      1.418
REMARK  9 active torsions:
REMARK  status: ('A' for Active; 'I' for Inactive)
REMARK    1  A    between atoms: C2_2  and  C3_3
REMARK    2  A    between atoms: C2_2  and  N2_8
REMARK    3  A    between atoms: C3_3  and  O1_4
REMARK    4  A    between atoms: O1_4  and  N1_5
REMARK    5  A    between atoms: N2_8  and  C4_10
REMARK    6  A    between atoms: C4_10  and  C5_11
REMARK    7  A    between atoms: C4_10  and  C8_18
REMARK    8  A    between atoms: C8_18  and  C9_19
REMARK    9  A    between atoms: C8_18  and  C10_22
ROOT
HETATM    1  C4  UNL     1      -7.304   3.236  -2.419  1.00  0.00     0.143 C
ENDROOT
BRANCH   1   2
HETATM    2  N2  UNL     1      -6.172   3.949  -2.208  1.00  0.00    -0.405 N
ATOM      3  H2  UNL     1      -5.338   3.427  -2.476  1.00  0.00     0.154 HD
BRANCH   2   4
HETATM    4  C2  UNL     1      -5.867   5.177  -1.734  1.00  0.00     0.099 C
HETATM    5  C1  UNL     1      -6.697   6.387  -1.933  1.00  0.00     0.034 C
BRANCH   4   6
HETATM    6  C3  UNL     1      -5.683   5.034  -0.201  1.00  0.00     0.224 C
BRANCH   6   7
HETATM    7  O1  UNL     1      -6.641   5.822   0.445  1.00  0.00    -0.285 OA
BRANCH   7   8
HETATM    8  N1  UNL     1      -6.604   5.711   1.764  1.00  0.00    -0.311 N
ATOM      9  H12 UNL     1      -5.743   5.823   2.300  1.00  0.00     0.184 HD
ATOM     10  H11 UNL     1      -7.515   5.507   2.176  1.00  0.00     0.184 HD
ENDBRANCH   7   8
ENDBRANCH   6   7
ENDBRANCH   4   6
ENDBRANCH   2   4
ENDBRANCH   1   2
BRANCH   1  11
HETATM   11  C5  UNL     1      -7.757   3.206  -3.833  1.00  0.00     0.049 A
HETATM   12  C6  UNL     1      -8.872   2.549  -4.348  1.00  0.00     0.116 A
HETATM   13  N3  UNL     1      -8.904   2.735  -5.661  1.00  0.00    -0.360 N
HETATM   14  C7  UNL     1      -7.862   3.480  -5.999  1.00  0.00     0.180 A
ATOM     15  H3  UNL     1      -9.610   2.369  -6.301  1.00  0.00     0.166 HD
HETATM   16  N4  UNL     1      -7.159   3.771  -4.897  1.00  0.00    -0.353 N
ATOM     17  H4  UNL     1      -6.308   4.332  -4.869  1.00  0.00     0.166 HD
ENDBRANCH   1  11
BRANCH   1  18
HETATM   18  C8  UNL     1      -7.390   1.837  -1.896  1.00  0.00     0.118 C
BRANCH  18  19
HETATM   19  C9  UNL     1      -6.200   1.012  -2.153  1.00  0.00     0.179 C
HETATM   20  O2  UNL     1      -5.019   1.333  -1.777  1.00  0.00    -0.648 OA
HETATM   21  O3  UNL     1      -6.253  -0.197  -2.831  1.00  0.00    -0.648 OA
ENDBRANCH  18  19
BRANCH  18  22
HETATM   22  C10 UNL     1      -7.638   1.818  -0.409  1.00  0.00    -0.006 C
HETATM   23  C11 UNL     1      -7.990   0.512   0.189  1.00  0.00     0.010 C
HETATM   24  C12 UNL     1      -8.649   2.881   0.025  1.00  0.00     0.010 C
ENDBRANCH  18  22
ENDBRANCH   1  18
TORSDOF 9
ENDMDL