MODEL 3
REMARK VINA RESULT: -4.841204870      2.696      5.803
REMARK  8 active torsions:
REMARK  status: ('A' for Active; 'I' for Inactive)
REMARK    1  A    between atoms: C2_2  and  C3_3
REMARK    2  A    between atoms: C3_3  and  N1_4
REMARK    3  A    between atoms: N1_4  and  C4_6
REMARK    4  A    between atoms: C4_6  and  C5_7
REMARK    5  A    between atoms: C5_7  and  N2_8
REMARK    6  A    between atoms: N2_8  and  C6_10
REMARK    7  A    between atoms: C9_14  and  N3_15
REMARK    8  A    between atoms: N3_15  and  C10_17
ROOT
HETATM    1  C6  UNL     1      -7.509   1.819  -0.232  1.00  0.00     0.054 C
HETATM    2  C7  UNL     1      -7.531   2.996   0.503  1.00  0.00     0.087 C
HETATM    3  C8  UNL     1      -7.158   4.251   0.099  1.00  0.00     0.200 C
HETATM    4  O1  UNL     1      -7.661   5.241   0.736  1.00  0.00    -0.286 OA
HETATM    5  C9  UNL     1      -6.279   4.574  -0.942  1.00  0.00     0.086 C
HETATM    6  C11 UNL     1      -5.560   3.654  -1.693  1.00  0.00     0.062 C
HETATM    7  C12 UNL     1      -5.995   2.414  -2.110  1.00  0.00     0.071 C
HETATM    8  N4  UNL     1      -5.467   1.934  -3.330  1.00  0.00    -0.101 NA
HETATM    9  C13 UNL     1      -6.906   1.591  -1.446  1.00  0.00     0.095 C
HETATM   10  C14 UNL     1      -7.215   0.395  -2.141  1.00  0.00     0.103 C
HETATM   11  N5  UNL     1      -7.462  -0.581  -2.703  1.00  0.00    -0.191 NA
ENDROOT
BRANCH   1  12
HETATM   12  N2  UNL     1      -8.197   0.696   0.337  1.00  0.00    -0.387 N
ATOM     13  H2  UNL     1      -7.685  -0.161   0.547  1.00  0.00     0.159 HD
BRANCH  12  14
HETATM   14  C5  UNL     1      -9.629   0.776   0.614  1.00  0.00     0.139 C
BRANCH  14  15
HETATM   15  C4  UNL     1     -10.291  -0.385  -0.126  1.00  0.00     0.133 C
BRANCH  15  16
HETATM   16  N1  UNL     1     -10.536  -0.064  -1.494  1.00  0.00    -0.417 N
ATOM     17  H1  UNL     1     -10.436  -0.766  -2.228  1.00  0.00     0.153 HD
BRANCH  16  18
HETATM   18  C3  UNL     1     -10.921   1.263  -1.796  1.00  0.00     0.140 C
BRANCH  18  19
HETATM   19  C2  UNL     1     -10.620   1.651  -3.167  1.00  0.00    -0.018 C
HETATM   20  C1  UNL     1      -9.768   2.563  -3.520  1.00  0.00     0.008 C
ENDBRANCH  18  19
ENDBRANCH  16  18
ENDBRANCH  15  16
ENDBRANCH  14  15
ENDBRANCH  12  14
ENDBRANCH   1  12
BRANCH   5  21
HETATM   21  N3  UNL     1      -6.130   5.943  -1.187  1.00  0.00    -0.331 N
ATOM     22  H3  UNL     1      -5.600   6.479  -0.498  1.00  0.00     0.168 HD
BRANCH  21  23
HETATM   23  C10 UNL     1      -6.637   6.651  -2.284  1.00  0.00     0.353 C
HETATM   24  O2  UNL     1      -7.841   6.899  -2.473  1.00  0.00    -0.283 OA
ENDBRANCH  21  23
ENDBRANCH   5  21
TORSDOF 8
ENDMDL