MODEL 5
REMARK VINA RESULT: -5.656380588      0.815      1.182
REMARK  9 active torsions:
REMARK  status: ('A' for Active; 'I' for Inactive)
REMARK    1  A    between atoms: C2_2  and  C3_3
REMARK    2  A    between atoms: C6_6  and  C7_7
REMARK    3  A    between atoms: C7_7  and  O1_8
REMARK    4  A    between atoms: C7_7  and  N1_10
REMARK    5  A    between atoms: N1_10  and  C8_12
REMARK    6  A    between atoms: C8_12  and  C10_14
REMARK       I    between atoms: C10_14  and  N2_16
REMARK    7  A    between atoms: N2_16  and  C11_18
REMARK    8  A    between atoms: C11_18  and  O3_19
REMARK    9  A    between atoms: C11_18  and  C12_21
ROOT
HETATM    1  N1  UNL     1      -8.027   1.854  -1.286  1.00  0.00    -0.380 N
ATOM      2  H1  UNL     1      -7.350   1.092  -1.292  1.00  0.00     0.157 HD
ENDROOT
BRANCH   1   3
HETATM    3  C7  UNL     1      -9.045   1.832  -0.327  1.00  0.00     0.265 C
BRANCH   3   4
HETATM    4  C6  UNL     1      -9.088   0.530   0.392  1.00  0.00     0.057 A
HETATM    5  C5  UNL     1      -9.971   0.331   1.451  1.00  0.00     0.030 A
HETATM    6  C4  UNL     1     -10.042  -0.878   2.077  1.00  0.00     0.015 A
HETATM    7  C3  UNL     1      -9.247  -1.967   1.698  1.00  0.00    -0.022 A
HETATM    8  C13 UNL     1      -8.397  -1.709   0.647  1.00  0.00     0.099 A
HETATM    9  N3  UNL     1      -8.331  -0.517   0.034  1.00  0.00    -0.365 N
ATOM     10  H3  UNL     1      -7.675  -0.402  -0.739  1.00  0.00     0.165 HD
BRANCH   7  11
HETATM   11  C2  UNL     1      -9.356  -3.240   2.387  1.00  0.00     0.002 C
HETATM   12  C1  UNL     1      -9.950  -3.333   3.548  1.00  0.00     0.012 C
ENDBRANCH   7  11
ENDBRANCH   3   4
BRANCH   3  13
HETATM   13  O1  UNL     1      -8.832   2.792   0.703  1.00  0.00    -0.371 OA
ATOM     14  H1  UNL     1      -8.131   3.338   0.370  1.00  0.00     0.212 HD
ENDBRANCH   3  13
ENDBRANCH   1   3
BRANCH   1  15
HETATM   15  C8  UNL     1      -7.896   2.866  -2.234  1.00  0.00     0.167 C
HETATM   16  C9  UNL     1      -9.007   3.069  -3.230  1.00  0.00     0.042 C
BRANCH  15  17
HETATM   17  C10 UNL     1      -7.661   4.174  -1.502  1.00  0.00     0.242 C
HETATM   18  O2  UNL     1      -8.570   5.026  -1.566  1.00  0.00    -0.271 OA
HETATM   19  N2  UNL     1      -6.459   4.379  -0.793  1.00  0.00    -0.327 N
ATOM     20  H2  UNL     1      -5.746   3.650  -0.772  1.00  0.00     0.165 HD
BRANCH  19  21
HETATM   21  C11 UNL     1      -6.243   5.627  -0.100  1.00  0.00     0.282 C
BRANCH  21  22
HETATM   22  O3  UNL     1      -4.920   6.060  -0.302  1.00  0.00    -0.370 OA
ATOM     23  H3  UNL     1      -4.742   6.815   0.247  1.00  0.00     0.212 HD
ENDBRANCH  21  22
BRANCH  21  24
HETATM   24  C12 UNL     1      -6.434   5.358   1.352  1.00  0.00     0.284 C
HETATM   25  O4  UNL     1      -7.549   5.332   1.819  1.00  0.00    -0.302 OA
ENDBRANCH  21  24
ENDBRANCH  19  21
ENDBRANCH  15  17
ENDBRANCH   1  15
TORSDOF 9
ENDMDL