MODEL 1
REMARK VINA RESULT: -5.253111382      0.000      0.000
REMARK  8 active torsions:
REMARK  status: ('A' for Active; 'I' for Inactive)
REMARK       I    between atoms: C1_2  and  N1_3
REMARK    1  A    between atoms: C1_2  and  C11_21
REMARK    2  A    between atoms: N1_3  and  C2_5
REMARK    3  A    between atoms: C2_5  and  C3_6
REMARK    4  A    between atoms: C3_6  and  N2_7
REMARK    5  A    between atoms: N2_7  and  C4_10
REMARK    6  A    between atoms: C4_10  and  C5_11
REMARK    7  A    between atoms: C5_11  and  N3_12
REMARK    8  A    between atoms: N3_12  and  C6_14
ROOT
HETATM    1  N2  UNL     1      -5.640   0.504  -2.538  1.00  0.00    -0.072 N
ATOM      2  H21 UNL     1      -5.204   1.284  -2.046  1.00  0.00     0.277 HD
ATOM      3  H22 UNL     1      -4.811   0.109  -2.980  1.00  0.00     0.277 HD
ENDROOT
BRANCH   1   4
HETATM    4  C3  UNL     1      -6.593   0.972  -3.527  1.00  0.00     0.252 C
BRANCH   4   5
HETATM    5  C2  UNL     1      -6.378   2.459  -3.687  1.00  0.00     0.150 C
BRANCH   5   6
HETATM    6  N1  UNL     1      -6.702   3.123  -2.458  1.00  0.00    -0.354 N
HETATM    7  C1  UNL     1      -5.738   3.639  -1.565  1.00  0.00     0.269 C
HETATM    8  O1  UNL     1      -4.508   3.554  -1.777  1.00  0.00    -0.266 OA
ATOM      9  H1  UNL     1      -7.687   3.227  -2.214  1.00  0.00     0.162 HD
BRANCH   7  10
HETATM   10  C11 UNL     1      -6.175   4.306  -0.332  1.00  0.00     0.117 A
HETATM   11  C12 UNL     1      -7.148   3.905   0.533  1.00  0.00     0.055 A
HETATM   12  C13 UNL     1      -7.221   4.826   1.546  1.00  0.00     0.109 A
HETATM   13  N5  UNL     1      -6.296   5.765   1.280  1.00  0.00    -0.311 N
HETATM   14  N6  UNL     1      -5.672   5.456   0.161  1.00  0.00    -0.296 N
ATOM     15  H5  UNL     1      -6.107   6.586   1.854  1.00  0.00     0.186 HD
ATOM     16  H6  UNL     1      -4.924   6.002  -0.265  1.00  0.00     0.187 HD
ENDBRANCH   7  10
ENDBRANCH   5   6
ENDBRANCH   4   5
ENDBRANCH   1   4
BRANCH   1  17
HETATM   17  C4  UNL     1      -6.240  -0.433  -1.611  1.00  0.00     0.251 C
BRANCH  17  18
HETATM   18  C5  UNL     1      -6.798   0.222  -0.394  1.00  0.00     0.147 C
BRANCH  18  19
HETATM   19  N3  UNL     1      -8.218   0.436  -0.430  1.00  0.00    -0.387 N
ATOM     20  H3  UNL     1      -8.611   0.793  -1.301  1.00  0.00     0.159 HD
BRANCH  19  21
HETATM   21  C6  UNL     1      -9.122   0.197   0.629  1.00  0.00     0.043 A
HETATM   22  C7  UNL     1      -9.185  -1.058   1.241  1.00  0.00     0.032 A
HETATM   23  C8  UNL     1     -10.064  -1.329   2.268  1.00  0.00     0.019 A
HETATM   24  C9  UNL     1     -10.917  -0.347   2.722  1.00  0.00     0.088 A
HETATM   25  N4  UNL     1     -10.857   0.858   2.134  1.00  0.00    -0.373 N
HETATM   26  C10 UNL     1      -9.993   1.140   1.117  1.00  0.00     0.116 A
ATOM     27  H4  UNL     1     -11.483   1.594   2.460  1.00  0.00     0.164 HD
ENDBRANCH  19  21
ENDBRANCH  18  19
ENDBRANCH  17  18
ENDBRANCH   1  17
TORSDOF 8
ENDMDL