MODEL 3
REMARK VINA RESULT: -5.307705154      3.326      4.871
REMARK  9 active torsions:
REMARK  status: ('A' for Active; 'I' for Inactive)
REMARK    1  A    between atoms: C2_2  and  C4_4
REMARK    2  A    between atoms: C4_4  and  C5_5
REMARK    3  A    between atoms: C5_5  and  C6_6
REMARK    4  A    between atoms: C5_5  and  N4_16
REMARK    5  A    between atoms: C6_6  and  N1_7
REMARK    6  A    between atoms: C8_11  and  C9_12
REMARK    7  A    between atoms: N4_16  and  C11_19
REMARK    8  A    between atoms: C11_19  and  C12_20
REMARK       I    between atoms: C12_20  and  N5_22
REMARK    9  A    between atoms: N5_22  and  N6_24
ROOT
HETATM    1  C5  UNL     1      -7.150   3.791  -2.168  1.00  0.00     0.205 C
ENDROOT
BRANCH   1   2
HETATM    2  C4  UNL     1      -8.528   4.199  -1.831  1.00  0.00     0.038 C
BRANCH   2   3
HETATM    3  C2  UNL     1      -9.272   3.570  -0.719  1.00  0.00    -0.021 C
HETATM    4  C1  UNL     1     -10.086   2.382  -1.345  1.00  0.00     0.009 C
HETATM    5  C3  UNL     1      -8.457   2.893   0.351  1.00  0.00     0.009 C
ENDBRANCH   2   3
ENDBRANCH   1   2
BRANCH   1   6
HETATM    6  C6  UNL     1      -7.075   2.887  -3.342  1.00  0.00     0.162 C
BRANCH   6   7
HETATM    7  N1  UNL     1      -6.439   1.597  -3.074  1.00  0.00    -0.349 N
HETATM    8  C7  UNL     1      -6.492   0.485  -3.802  1.00  0.00     0.183 A
HETATM    9  N2  UNL     1      -5.753  -0.485  -3.191  1.00  0.00    -0.347 N
HETATM   10  C8  UNL     1      -5.228   0.024  -2.066  1.00  0.00     0.114 A
ATOM     11  H2  UNL     1      -5.621  -1.438  -3.532  1.00  0.00     0.167 HD
HETATM   12  C10 UNL     1      -5.674   1.340  -2.012  1.00  0.00     0.126 A
BRANCH  10  13
HETATM   13  C9  UNL     1      -4.370  -0.618  -1.070  1.00  0.00     0.282 C
HETATM   14  N3  UNL     1      -2.965  -0.438  -1.157  1.00  0.00    -0.056 NA
HETATM   15  O1  UNL     1      -4.867  -1.311  -0.161  1.00  0.00    -0.269 OA
ENDBRANCH  10  13
ENDBRANCH   6   7
ENDBRANCH   1   6
BRANCH   1  16
HETATM   16  N4  UNL     1      -6.334   4.973  -2.435  1.00  0.00    -0.061 N
ATOM     17  H42 UNL     1      -5.349   4.715  -2.503  1.00  0.00     0.278 HD
ATOM     18  H41 UNL     1      -6.495   5.307  -3.386  1.00  0.00     0.278 HD
BRANCH  16  19
HETATM   19  C11 UNL     1      -6.505   6.041  -1.495  1.00  0.00     0.336 C
BRANCH  19  20
HETATM   20  C12 UNL     1      -5.870   5.629  -0.218  1.00  0.00     0.261 C
HETATM   21  O2  UNL     1      -4.723   5.147  -0.235  1.00  0.00    -0.270 OA
HETATM   22  N5  UNL     1      -6.553   5.779   1.001  1.00  0.00    -0.275 N
ATOM     23  H5  UNL     1      -7.493   6.175   1.008  1.00  0.00     0.189 HD
BRANCH  22  24
HETATM   24  N6  UNL     1      -5.956   5.389   2.206  1.00  0.00    -0.343 N
ATOM     25  H62 UNL     1      -6.541   4.967   2.928  1.00  0.00     0.176 HD
ATOM     26  H61 UNL     1      -4.956   5.525   2.359  1.00  0.00     0.176 HD
ENDBRANCH  22  24
ENDBRANCH  19  20
ENDBRANCH  16  19
ENDBRANCH   1  16
TORSDOF 9
ENDMDL