MODEL 5
REMARK VINA RESULT: -5.152875600      2.497      5.083
REMARK  8 active torsions:
REMARK  status: ('A' for Active; 'I' for Inactive)
REMARK    1  A    between atoms: C2_2  and  C3_3
REMARK    2  A    between atoms: C3_3  and  C4_4
REMARK    3  A    between atoms: C4_4  and  C5_5
REMARK    4  A    between atoms: C5_5  and  N1_6
REMARK       I    between atoms: N1_6  and  C6_8
REMARK    5  A    between atoms: C6_8  and  C7_10
REMARK    6  A    between atoms: C7_10  and  C8_11
REMARK    7  A    between atoms: C7_10  and  C9_20
REMARK    8  A    between atoms: C12_27  and  N8_28
ROOT
HETATM    1  C7  UNL     1      -7.124   3.061  -0.797  1.00  0.00     0.201 C
ENDROOT
BRANCH   1   2
HETATM    2  C6  UNL     1      -7.637   3.645  -2.061  1.00  0.00     0.235 C
HETATM    3  N1  UNL     1      -7.066   3.316  -3.320  1.00  0.00    -0.360 N
ATOM      4  H1  UNL     1      -6.282   2.664  -3.348  1.00  0.00     0.162 HD
HETATM    5  O1  UNL     1      -8.600   4.450  -2.000  1.00  0.00    -0.272 OA
BRANCH   3   6
HETATM    6  C5  UNL     1      -7.558   3.878  -4.573  1.00  0.00     0.123 C
BRANCH   6   7
HETATM    7  C4  UNL     1      -8.308   2.814  -5.297  1.00  0.00     0.023 C
BRANCH   7   8
HETATM    8  C3  UNL     1      -8.305   3.040  -6.794  1.00  0.00     0.028 C
BRANCH   8   9
HETATM    9  C2  UNL     1      -7.177   3.927  -7.121  1.00  0.00    -0.037 C
HETATM   10  C1  UNL     1      -6.581   3.818  -8.289  1.00  0.00     0.007 C
ENDBRANCH   8   9
ENDBRANCH   7   8
ENDBRANCH   6   7
ENDBRANCH   3   6
ENDBRANCH   1   2
BRANCH   1  11
HETATM   11  C8  UNL     1      -6.783   4.194   0.102  1.00  0.00     0.132 A
HETATM   12  N2  UNL     1      -6.385   5.397  -0.322  1.00  0.00    -0.271 N
HETATM   13  N3  UNL     1      -6.176   6.128   0.755  1.00  0.00    -0.227 N
ATOM     14  H2  UNL     1      -6.266   5.693  -1.291  1.00  0.00     0.190 HD
HETATM   15  N4  UNL     1      -6.434   5.412   1.831  1.00  0.00    -0.227 N
ATOM     16  H3  UNL     1      -5.863   7.098   0.755  1.00  0.00     0.210 HD
HETATM   17  N5  UNL     1      -6.810   4.214   1.434  1.00  0.00    -0.271 N
ATOM     18  H4  UNL     1      -6.356   5.729   2.797  1.00  0.00     0.210 HD
ATOM     19  H5  UNL     1      -7.076   3.438   2.040  1.00  0.00     0.190 HD
ENDBRANCH   1  11
BRANCH   1  20
HETATM   20  C9  UNL     1      -8.040   2.101  -0.172  1.00  0.00     0.074 A
HETATM   21  N6  UNL     1      -9.244   2.570   0.274  1.00  0.00    -0.364 N
HETATM   22  C10 UNL     1     -10.119   1.735   0.858  1.00  0.00     0.105 A
ATOM     23  H6  UNL     1      -9.479   3.557   0.162  1.00  0.00     0.165 HD
HETATM   24  C11 UNL     1      -9.784   0.391   1.003  1.00  0.00     0.106 A
HETATM   25  N7  UNL     1      -8.614  -0.061   0.570  1.00  0.00    -0.350 N
HETATM   26  C12 UNL     1      -7.731   0.781  -0.020  1.00  0.00     0.123 A
ATOM     27  H7  UNL     1      -8.378  -1.048   0.680  1.00  0.00     0.166 HD
BRANCH  26  28
HETATM   28  N8  UNL     1      -6.592   0.338  -0.443  1.00  0.00    -0.384 N
ATOM     29  H82 UNL     1      -6.558  -0.391  -1.156  1.00  0.00     0.157 HD
ATOM     30  H81 UNL     1      -5.728   0.721  -0.061  1.00  0.00     0.157 HD
ENDBRANCH  26  28
ENDBRANCH   1  20
TORSDOF 8
ENDMDL