MODEL 3
REMARK VINA RESULT: -5.378309829      2.147      3.766
REMARK  8 active torsions:
REMARK  status: ('A' for Active; 'I' for Inactive)
REMARK    1  A    between atoms: C1_2  and  C2_4
REMARK    2  A    between atoms: C2_4  and  N1_5
REMARK    3  A    between atoms: N1_5  and  C3_8
REMARK    4  A    between atoms: C3_8  and  C4_9
REMARK    5  A    between atoms: C4_9  and  N2_10
REMARK    6  A    between atoms: N2_10  and  C5_12
REMARK    7  A    between atoms: C6_13  and  N3_14
REMARK    8  A    between atoms: N3_14  and  C7_16
ROOT
HETATM    1  C5  UNL     1      -6.681   3.348  -0.494  1.00  0.00     0.114 A
HETATM    2  C6  UNL     1      -7.902   3.470   0.222  1.00  0.00     0.118 A
HETATM    3  C13 UNL     1      -7.382   4.532   0.919  1.00  0.00     0.253 A
HETATM    4  O3  UNL     1      -7.770   5.304   1.803  1.00  0.00    -0.281 OA
HETATM    5  C14 UNL     1      -6.205   4.402   0.217  1.00  0.00     0.252 A
HETATM    6  O4  UNL     1      -5.109   5.028   0.235  1.00  0.00    -0.281 OA
ENDROOT
BRANCH   1   7
HETATM    7  N2  UNL     1      -6.250   2.456  -1.505  1.00  0.00    -0.383 N
ATOM      8  H2  UNL     1      -6.065   1.480  -1.276  1.00  0.00     0.159 HD
BRANCH   7   9
HETATM    9  C4  UNL     1      -6.071   2.924  -2.858  1.00  0.00     0.147 C
BRANCH   9  10
HETATM   10  C3  UNL     1      -7.457   3.275  -3.414  1.00  0.00     0.252 C
BRANCH  10  11
HETATM   11  N1  UNL     1      -7.368   4.651  -3.821  1.00  0.00    -0.064 N
ATOM     12  H12 UNL     1      -7.817   4.790  -4.725  1.00  0.00     0.277 HD
ATOM     13  H11 UNL     1      -6.408   4.892  -4.069  1.00  0.00     0.277 HD
BRANCH  11  14
HETATM   14  C2  UNL     1      -7.883   5.561  -2.856  1.00  0.00     0.344 C
BRANCH  14  15
HETATM   15  C1  UNL     1      -7.199   6.862  -2.936  1.00  0.00     0.199 C
HETATM   16  O1  UNL     1      -6.026   7.022  -2.543  1.00  0.00    -0.647 OA
HETATM   17  O2  UNL     1      -7.890   7.970  -3.477  1.00  0.00    -0.647 OA
ENDBRANCH  14  15
ENDBRANCH  11  14
ENDBRANCH  10  11
ENDBRANCH   9  10
ENDBRANCH   7   9
ENDBRANCH   1   7
BRANCH   2  18
HETATM   18  N3  UNL     1      -9.104   2.735   0.106  1.00  0.00    -0.351 N
ATOM     19  H3  UNL     1      -9.900   3.187  -0.344  1.00  0.00     0.166 HD
BRANCH  18  20
HETATM   20  C7  UNL     1      -9.268   1.426   0.571  1.00  0.00     0.032 A
HETATM   21  C8  UNL     1      -8.446   0.420   0.143  1.00  0.00     0.029 A
HETATM   22  C9  UNL     1      -8.612  -0.867   0.641  1.00  0.00     0.002 A
HETATM   23  C10 UNL     1      -9.600  -1.127   1.561  1.00  0.00     0.000 A
HETATM   24  C11 UNL     1     -10.413  -0.108   1.975  1.00  0.00     0.002 A
HETATM   25  C12 UNL     1     -10.271   1.174   1.500  1.00  0.00     0.029 A
ENDBRANCH  18  20
ENDBRANCH   2  18
TORSDOF 8
ENDMDL