MODEL 4
REMARK VINA RESULT: -4.578383068      2.828      6.080
REMARK  5 active torsions:
REMARK  status: ('A' for Active; 'I' for Inactive)
REMARK    1  A    between atoms: C2_7  and  N4_8
REMARK    2  A    between atoms: N4_8  and  C3_10
REMARK    3  A    between atoms: C3_10  and  C4_11
REMARK    4  A    between atoms: C4_11  and  C5_12
REMARK    5  A    between atoms: C5_12  and  N5_13
ROOT
HETATM    1  N1  UNL     1     -26.749 -10.017  19.894  1.00  0.00    -0.075 NA
HETATM    2  C1  UNL     1     -26.084 -11.168  20.399  1.00  0.00     0.200 A
HETATM    3  N2  UNL     1     -24.846 -11.111  20.916  1.00  0.00    -0.269 N
ATOM      4  H2  UNL     1     -24.380 -10.204  20.940  1.00  0.00     0.189 HD
HETATM    5  N3  UNL     1     -24.194 -12.154  21.395  1.00  0.00    -0.131 N
ATOM      6  H3  UNL     1     -23.253 -12.051  21.776  1.00  0.00     0.205 HD
HETATM    7  C2  UNL     1     -24.793 -13.346  21.369  1.00  0.00     0.695 A
HETATM    8  N7  UNL     1     -26.024 -13.470  20.868  1.00  0.00    -0.152 N
ATOM      9  H7  UNL     1     -26.465 -14.390  20.856  1.00  0.00     0.187 HD
HETATM   10  C9  UNL     1     -26.703 -12.405  20.373  1.00  0.00     0.302 A
HETATM   11  O1  UNL     1     -27.850 -12.482  19.899  1.00  0.00    -0.264 OA
ENDROOT
BRANCH   7  12
HETATM   12  N4  UNL     1     -24.176 -14.370  21.829  1.00  0.00    -0.225 N
ATOM     13  H4  UNL     1     -23.232 -14.579  21.505  1.00  0.00     0.177 HD
BRANCH  12  14
HETATM   14  C3  UNL     1     -24.804 -15.229  22.800  1.00  0.00     0.139 C
BRANCH  14  15
HETATM   15  C4  UNL     1     -24.844 -14.476  24.113  1.00  0.00     0.040 C
BRANCH  15  16
HETATM   16  C5  UNL     1     -26.261 -14.244  24.581  1.00  0.00     0.131 C
BRANCH  16  17
HETATM   17  N5  UNL     1     -26.345 -14.811  25.930  1.00  0.00    -0.352 N
HETATM   18  C6  UNL     1     -27.195 -15.765  26.355  1.00  0.00     0.108 A
HETATM   19  C7  UNL     1     -26.971 -16.037  27.689  1.00  0.00     0.106 A
HETATM   20  N6  UNL     1     -25.969 -15.230  28.066  1.00  0.00    -0.361 N
HETATM   21  C8  UNL     1     -25.595 -14.492  26.999  1.00  0.00     0.182 A
ATOM     22  H6  UNL     1     -25.560 -15.181  28.999  1.00  0.00     0.166 HD
ENDBRANCH  16  17
ENDBRANCH  15  16
ENDBRANCH  14  15
ENDBRANCH  12  14
ENDBRANCH   7  12
TORSDOF 5
ENDMDL