MODEL 4
REMARK VINA RESULT: -4.870667918      2.492      3.241
REMARK  6 active torsions:
REMARK  status: ('A' for Active; 'I' for Inactive)
REMARK    1  A    between atoms: C1_2  and  C2_4
REMARK    2  A    between atoms: C2_4  and  C3_5
REMARK    3  A    between atoms: C3_5  and  C4_6
REMARK    4  A    between atoms: C4_6  and  C5_7
REMARK    5  A    between atoms: C5_7  and  C6_8
REMARK    6  A    between atoms: C6_8  and  N2_9
ROOT
HETATM    1  N2  UNL     1     -25.342 -13.602  22.722  1.00  0.00    -0.241 N
HETATM    2  N3  UNL     1     -25.510 -14.733  22.056  1.00  0.00    -0.277 N
ATOM      3  H3  UNL     1     -26.032 -15.479  22.516  1.00  0.00     0.188 HD
HETATM    4  C7  UNL     1     -25.050 -14.970  20.834  1.00  0.00     0.199 A
HETATM    5  N4  UNL     1     -25.272 -16.222  20.175  1.00  0.00    -0.075 NA
HETATM    6  C8  UNL     1     -24.342 -13.960  20.206  1.00  0.00     0.292 A
HETATM    7  O2  UNL     1     -23.882 -14.144  19.029  1.00  0.00    -0.264 OA
HETATM    8  N5  UNL     1     -24.155 -12.798  20.856  1.00  0.00    -0.271 N
ATOM      9  H5  UNL     1     -23.635 -12.044  20.405  1.00  0.00     0.174 HD
HETATM   10  C9  UNL     1     -24.650 -12.622  22.101  1.00  0.00     0.344 A
HETATM   11  O3  UNL     1     -24.465 -11.517  22.707  1.00  0.00    -0.245 OA
ENDROOT
BRANCH   1  12
HETATM   12  C6  UNL     1     -25.878 -13.426  24.056  1.00  0.00     0.154 C
BRANCH  12  13
HETATM   13  C5  UNL     1     -25.633 -14.635  24.929  1.00  0.00     0.022 C
BRANCH  13  14
HETATM   14  C4  UNL     1     -25.164 -14.173  26.287  1.00  0.00     0.002 C
BRANCH  14  15
HETATM   15  C3  UNL     1     -25.822 -14.902  27.406  1.00  0.00     0.009 C
BRANCH  15  16
HETATM   16  C2  UNL     1     -27.215 -15.285  27.041  1.00  0.00     0.099 C
BRANCH  16  17
HETATM   17  C1  UNL     1     -27.537 -16.636  27.590  1.00  0.00     0.231 C
HETATM   18  N1  UNL     1     -28.229 -16.707  28.834  1.00  0.00    -0.062 NA
HETATM   19  O1  UNL     1     -27.193 -17.658  26.947  1.00  0.00    -0.277 OA
ENDBRANCH  16  17
ENDBRANCH  15  16
ENDBRANCH  14  15
ENDBRANCH  13  14
ENDBRANCH  12  13
ENDBRANCH   1  12
TORSDOF 6
ENDMDL