MODEL 1
REMARK VINA RESULT: -4.526744563      0.000      0.000
REMARK  7 active torsions:
REMARK  status: ('A' for Active; 'I' for Inactive)
REMARK    1  A    between atoms: C1_2  and  C2_4
REMARK    2  A    between atoms: C2_4  and  N2_5
REMARK    3  A    between atoms: C2_4  and  C3_9
REMARK    4  A    between atoms: C3_9  and  N3_10
REMARK    5  A    between atoms: C3_9  and  C4_14
REMARK    6  A    between atoms: C4_14  and  C5_16
REMARK    7  A    between atoms: C5_16  and  C6_17
ROOT
HETATM    1  C3  UNL     1     -25.579 -14.853  25.577  1.00  0.00     0.291 C
ENDROOT
BRANCH   1   2
HETATM    2  C2  UNL     1     -26.068 -14.294  26.907  1.00  0.00     0.309 C
BRANCH   2   3
HETATM    3  C1  UNL     1     -27.106 -15.236  27.410  1.00  0.00     0.264 C
HETATM    4  N1  UNL     1     -26.829 -16.449  28.076  1.00  0.00    -0.060 NA
HETATM    5  O1  UNL     1     -28.320 -14.948  27.238  1.00  0.00    -0.274 OA
ENDBRANCH   2   3
BRANCH   2   6
HETATM    6  N2  UNL     1     -25.022 -14.217  27.905  1.00  0.00    -0.064 N
ATOM      7  H23 UNL     1     -25.383 -14.221  28.858  1.00  0.00     0.275 HD
ATOM      8  H22 UNL     1     -24.469 -15.072  27.965  1.00  0.00     0.275 HD
ATOM      9  H21 UNL     1     -24.457 -13.393  27.699  1.00  0.00     0.275 HD
ENDBRANCH   2   6
ENDBRANCH   1   2
BRANCH   1  10
HETATM   10  N3  UNL     1     -26.570 -15.914  25.272  1.00  0.00    -0.066 N
ATOM     11  H33 UNL     1     -26.200 -16.864  25.309  1.00  0.00     0.275 HD
ATOM     12  H32 UNL     1     -27.281 -16.051  25.990  1.00  0.00     0.275 HD
ATOM     13  H31 UNL     1     -26.935 -15.636  24.361  1.00  0.00     0.275 HD
ENDBRANCH   1  10
BRANCH   1  14
HETATM   14  C4  UNL     1     -25.588 -13.859  24.480  1.00  0.00     0.164 C
HETATM   15  O2  UNL     1     -26.325 -12.878  24.616  1.00  0.00    -0.295 OA
BRANCH  14  16
HETATM   16  C5  UNL     1     -24.764 -14.034  23.287  1.00  0.00     0.128 C
BRANCH  16  17
HETATM   17  C6  UNL     1     -25.169 -13.089  22.203  1.00  0.00     0.006 A
HETATM   18  C7  UNL     1     -24.611 -11.895  21.824  1.00  0.00     0.102 A
HETATM   19  N4  UNL     1     -25.178 -11.263  20.827  1.00  0.00    -0.368 N
HETATM   20  C8  UNL     1     -26.238 -11.784  20.239  1.00  0.00     0.138 A
ATOM     21  H4  UNL     1     -24.801 -10.371  20.505  1.00  0.00     0.165 HD
HETATM   22  S1  UNL     1     -26.467 -13.233  21.113  1.00  0.00    -0.088 SA
ENDBRANCH  16  17
ENDBRANCH  14  16
ENDBRANCH   1  14
TORSDOF 7
ENDMDL