MODEL 4
REMARK VINA RESULT: -5.298101947      1.428      1.531
REMARK  7 active torsions:
REMARK  status: ('A' for Active; 'I' for Inactive)
REMARK    1  A    between atoms: N1_1  and  C1_5
REMARK    2  A    between atoms: C1_5  and  C2_6
REMARK    3  A    between atoms: C2_6  and  C3_7
REMARK    4  A    between atoms: C3_7  and  C4_8
REMARK    5  A    between atoms: C4_8  and  C5_9
REMARK    6  A    between atoms: C7_11  and  N2_12
REMARK    7  A    between atoms: N6_23  and  O3_24
ROOT
HETATM    1  C5  UNL     1     -25.739 -13.651  23.812  1.00  0.00    -0.022 A
HETATM    2  C6  UNL     1     -26.825 -12.807  23.897  1.00  0.00     0.064 A
HETATM    3  C7  UNL     1     -27.273 -12.104  22.771  1.00  0.00     0.176 A
HETATM    4  N3  UNL     1     -26.634 -12.260  21.596  1.00  0.00    -0.319 N
ATOM      5  H3  UNL     1     -26.963 -11.746  20.780  1.00  0.00     0.169 HD
HETATM    6  C8  UNL     1     -25.572 -13.076  21.472  1.00  0.00     0.184 A
HETATM    7  C9  UNL     1     -25.114 -13.783  22.592  1.00  0.00     0.104 A
HETATM    8  N4  UNL     1     -24.056 -14.517  22.202  1.00  0.00    -0.280 N
ATOM      9  H4  UNL     1     -23.497 -15.142  22.783  1.00  0.00     0.188 HD
HETATM   10  N5  UNL     1     -23.884 -14.267  20.922  1.00  0.00    -0.214 N
ATOM     11  H5  UNL     1     -23.145 -14.690  20.362  1.00  0.00     0.211 HD
HETATM   12  N6  UNL     1     -24.757 -13.420  20.440  1.00  0.00    -0.129 N
ENDROOT
BRANCH   1  13
HETATM   13  C4  UNL     1     -25.220 -14.416  24.968  1.00  0.00     0.041 C
BRANCH  13  14
HETATM   14  C3  UNL     1     -26.271 -15.138  25.747  1.00  0.00     0.006 C
BRANCH  14  15
HETATM   15  C2  UNL     1     -26.029 -14.898  27.212  1.00  0.00     0.027 C
BRANCH  15  16
HETATM   16  C1  UNL     1     -24.763 -14.178  27.523  1.00  0.00     0.229 C
BRANCH  16  17
HETATM   17  N1  UNL     1     -25.009 -13.086  28.482  1.00  0.00    -0.079 N
ATOM     18  H13 UNL     1     -24.617 -12.202  28.157  1.00  0.00     0.274 HD
ATOM     19  H12 UNL     1     -25.993 -12.818  28.505  1.00  0.00     0.274 HD
ATOM     20  H11 UNL     1     -24.662 -13.337  29.408  1.00  0.00     0.274 HD
ENDBRANCH  16  17
ENDBRANCH  15  16
ENDBRANCH  14  15
ENDBRANCH  13  14
ENDBRANCH   1  13
BRANCH   3  21
HETATM   21  N2  UNL     1     -28.389 -11.237  22.882  1.00  0.00    -0.098 N
HETATM   22  O1  UNL     1     -28.763 -10.880  24.018  1.00  0.00    -0.531 OA
HETATM   23  O2  UNL     1     -29.013 -10.824  21.736  1.00  0.00    -0.531 OA
ENDBRANCH   3  21
BRANCH  12  24
HETATM   24  O3  UNL     1     -24.862 -12.943  19.139  1.00  0.00    -0.265 OA
ATOM     25  H3  UNL     1     -24.798 -13.473  18.353  1.00  0.00     0.247 HD
ENDBRANCH  12  24
TORSDOF 7
ENDMDL