MODEL 1
REMARK VINA RESULT: -4.576673340      0.000      0.000
REMARK  7 active torsions:
REMARK  status: ('A' for Active; 'I' for Inactive)
REMARK    1  A    between atoms: N1_1  and  C1_5
REMARK    2  A    between atoms: C1_5  and  C2_6
REMARK    3  A    between atoms: C2_6  and  C3_7
REMARK    4  A    between atoms: C3_7  and  C4_8
REMARK    5  A    between atoms: C4_8  and  N2_9
REMARK    6  A    between atoms: N2_9  and  C5_11
REMARK    7  A    between atoms: C7_17  and  N5_18
ROOT
HETATM    1  C5  UNL     1     -25.264 -13.449  23.204  1.00  0.00     0.693 A
HETATM    2  N3  UNL     1     -24.398 -12.803  22.414  1.00  0.00    -0.187 N
ATOM      3  H3  UNL     1     -23.417 -13.080  22.394  1.00  0.00     0.185 HD
HETATM    4  C6  UNL     1     -24.829 -11.789  21.650  1.00  0.00     0.215 A
HETATM    5  N4  UNL     1     -26.127 -11.409  21.664  1.00  0.00    -0.187 N
ATOM      6  H4  UNL     1     -26.429 -10.634  21.074  1.00  0.00     0.185 HD
HETATM    7  C7  UNL     1     -27.032 -12.039  22.449  1.00  0.00     0.695 A
HETATM    8  N6  UNL     1     -26.547 -13.046  23.195  1.00  0.00    -0.022 N
ATOM      9  H6  UNL     1     -27.201 -13.542  23.801  1.00  0.00     0.203 HD
ENDROOT
BRANCH   1  10
HETATM   10  N2  UNL     1     -24.879 -14.448  23.969  1.00  0.00    -0.226 N
ATOM     11  H2  UNL     1     -24.019 -14.958  23.771  1.00  0.00     0.177 HD
BRANCH  10  12
HETATM   12  C4  UNL     1     -25.708 -14.802  25.095  1.00  0.00     0.138 C
BRANCH  12  13
HETATM   13  C3  UNL     1     -25.192 -14.167  26.371  1.00  0.00     0.022 C
BRANCH  13  14
HETATM   14  C2  UNL     1     -25.712 -14.863  27.594  1.00  0.00     0.029 C
BRANCH  14  15
HETATM   15  C1  UNL     1     -26.789 -15.862  27.279  1.00  0.00     0.229 C
BRANCH  15  16
HETATM   16  N1  UNL     1     -27.690 -16.017  28.402  1.00  0.00    -0.079 N
ATOM     17  H13 UNL     1     -28.351 -15.243  28.466  1.00  0.00     0.274 HD
ATOM     18  H12 UNL     1     -28.356 -16.776  28.250  1.00  0.00     0.274 HD
ATOM     19  H11 UNL     1     -27.169 -16.141  29.270  1.00  0.00     0.274 HD
ENDBRANCH  15  16
ENDBRANCH  14  15
ENDBRANCH  13  14
ENDBRANCH  12  13
ENDBRANCH  10  12
ENDBRANCH   1  10
BRANCH   7  20
HETATM   20  N5  UNL     1     -28.393 -11.666  22.487  1.00  0.00    -0.217 N
HETATM   21  C8  UNL     1     -29.321 -11.939  23.557  1.00  0.00     0.141 C
HETATM   22  C9  UNL     1     -30.041 -10.595  23.656  1.00  0.00     0.022 C
HETATM   23  C10 UNL     1     -30.358 -10.377  22.173  1.00  0.00     0.022 C
HETATM   24  C11 UNL     1     -29.130 -10.948  21.480  1.00  0.00     0.141 C
ENDBRANCH   7  20
TORSDOF 7
ENDMDL