MODEL 3
REMARK VINA RESULT: -5.142229879      2.132      2.384
REMARK  4 active torsions:
REMARK  status: ('A' for Active; 'I' for Inactive)
REMARK       I    between atoms: N1_2  and  C2_4
REMARK       I    between atoms: C2_4  and  N2_6
REMARK    1  A    between atoms: N2_6  and  N3_8
REMARK    2  A    between atoms: C3_10  and  C5_12
REMARK    3  A    between atoms: N4_14  and  C7_15
REMARK    4  A    between atoms: C7_15  and  C8_16
ROOT
HETATM    1  C5  UNL     1     -25.530 -14.507  24.898  1.00  0.00     0.090 A
HETATM    2  C6  UNL     1     -26.811 -14.962  25.138  1.00  0.00     0.145 A
HETATM    3  N4  UNL     1     -27.018 -15.016  26.459  1.00  0.00    -0.278 N
HETATM    4  N6  UNL     1     -25.906 -14.608  27.038  1.00  0.00    -0.240 N
ATOM      5  H6  UNL     1     -25.764 -14.541  28.045  1.00  0.00     0.208 HD
HETATM    6  N7  UNL     1     -25.004 -14.299  26.125  1.00  0.00    -0.283 N
ATOM      7  H7  UNL     1     -24.062 -13.958  26.315  1.00  0.00     0.188 HD
ENDROOT
BRANCH   1   8
HETATM    8  C3  UNL     1     -24.915 -14.306  23.604  1.00  0.00     0.051 C
HETATM    9  N3  UNL     1     -24.366 -15.281  22.963  1.00  0.00    -0.299 N
ATOM     10  H3  UNL     1     -24.372 -16.209  23.385  1.00  0.00     0.186 HD
HETATM   11  C4  UNL     1     -24.902 -12.975  22.989  1.00  0.00     0.072 C
BRANCH   9  12
HETATM   12  N2  UNL     1     -23.770 -15.118  21.722  1.00  0.00    -0.252 N
HETATM   13  C2  UNL     1     -22.670 -15.922  21.358  1.00  0.00     0.334 C
HETATM   14  N1  UNL     1     -22.045 -15.771  20.096  1.00  0.00    -0.346 N
HETATM   15  O1  UNL     1     -22.200 -16.807  22.148  1.00  0.00    -0.246 OA
HETATM   16  C1  UNL     1     -20.902 -16.602  19.708  1.00  0.00     0.151 C
ATOM     17  H1  UNL     1     -22.399 -15.071  19.444  1.00  0.00     0.163 HD
ATOM     18  H2  UNL     1     -24.126 -14.417  21.073  1.00  0.00     0.191 HD
ENDBRANCH   9  12
ENDBRANCH   1   8
BRANCH   3  19
HETATM   19  C7  UNL     1     -28.215 -15.435  27.147  1.00  0.00     0.249 C
BRANCH  19  20
HETATM   20  C8  UNL     1     -28.003 -16.676  27.918  1.00  0.00     0.251 C
HETATM   21  N5  UNL     1     -28.664 -16.984  29.133  1.00  0.00    -0.061 NA
HETATM   22  O2  UNL     1     -27.181 -17.516  27.467  1.00  0.00    -0.275 OA
ENDBRANCH  19  20
ENDBRANCH   3  19
TORSDOF 4
ENDMDL