MODEL 2
REMARK VINA RESULT: -4.955175868      2.115      6.393
REMARK  5 active torsions:
REMARK  status: ('A' for Active; 'I' for Inactive)
REMARK       I    between atoms: C1_2  and  N2_4
REMARK    1  A    between atoms: N2_4  and  N3_6
REMARK    2  A    between atoms: C2_8  and  C3_9
REMARK    3  A    between atoms: C5_11  and  N4_12
REMARK    4  A    between atoms: C7_18  and  N6_19
REMARK    5  A    between atoms: N6_19  and  C8_21
ROOT
HETATM    1  C3  UNL     1     -24.338 -15.304  21.918  1.00  0.00     0.027 A
HETATM    2  C4  UNL     1     -23.449 -16.388  21.806  1.00  0.00     0.054 A
HETATM    3  C5  UNL     1     -22.578 -16.475  20.773  1.00  0.00     0.119 A
HETATM    4  C6  UNL     1     -22.551 -15.493  19.809  1.00  0.00     0.125 A
HETATM    5  N5  UNL     1     -23.398 -14.480  19.934  1.00  0.00    -0.349 N
ATOM      6  H5  UNL     1     -23.375 -13.753  19.218  1.00  0.00     0.167 HD
HETATM    7  C7  UNL     1     -24.300 -14.338  20.954  1.00  0.00     0.119 A
ENDROOT
BRANCH   1   8
HETATM    8  C2  UNL     1     -25.248 -15.251  23.032  1.00  0.00     0.122 C
HETATM    9  N3  UNL     1     -25.203 -14.614  24.123  1.00  0.00    -0.307 N
ATOM     10  H3  UNL     1     -24.390 -14.018  24.282  1.00  0.00     0.186 HD
BRANCH   9  11
HETATM   11  N2  UNL     1     -26.167 -14.657  25.124  1.00  0.00    -0.254 N
HETATM   12  C1  UNL     1     -25.890 -14.485  26.494  1.00  0.00     0.347 C
HETATM   13  N1  UNL     1     -26.939 -14.546  27.433  1.00  0.00    -0.038 NA
HETATM   14  O1  UNL     1     -24.710 -14.281  26.852  1.00  0.00    -0.249 OA
ATOM     15  H2  UNL     1     -27.135 -14.823  24.849  1.00  0.00     0.191 HD
ENDBRANCH   9  11
ENDBRANCH   1   8
BRANCH   7  16
HETATM   16  N6  UNL     1     -25.146 -13.182  20.943  1.00  0.00    -0.320 N
ATOM     17  H6  UNL     1     -26.085 -13.215  20.546  1.00  0.00     0.169 HD
BRANCH  16  18
HETATM   18  C8  UNL     1     -24.619 -11.971  21.514  1.00  0.00     0.354 C
HETATM   19  O4  UNL     1     -24.454 -11.799  22.731  1.00  0.00    -0.283 OA
ENDBRANCH  16  18
ENDBRANCH   7  16
BRANCH   3  20
HETATM   20  N4  UNL     1     -21.691 -17.578  20.681  1.00  0.00    -0.114 N
HETATM   21  O2  UNL     1     -22.105 -18.761  20.828  1.00  0.00    -0.532 OA
HETATM   22  O3  UNL     1     -20.354 -17.385  20.428  1.00  0.00    -0.532 OA
ENDBRANCH   3  20
TORSDOF 5
ENDMDL