MODEL 1
REMARK VINA RESULT: -6.132483875      0.000      0.000
REMARK  4 active torsions:
REMARK  status: ('A' for Active; 'I' for Inactive)
REMARK    1  A    between atoms: C1_2  and  C2_4
REMARK    2  A    between atoms: C4_6  and  C5_7
REMARK    3  A    between atoms: C8_16  and  N4_17
REMARK    4  A    between atoms: N4_17  and  C9_19
ROOT
HETATM    1  C2  UNL     1     -26.138 -12.695  23.384  1.00  0.00     0.100 A
HETATM    2  C3  UNL     1     -26.487 -13.317  24.571  1.00  0.00     0.049 A
HETATM    3  C4  UNL     1     -25.923 -14.529  24.885  1.00  0.00     0.004 A
HETATM    4  C7  UNL     1     -25.016 -15.054  23.957  1.00  0.00     0.062 A
HETATM    5  C8  UNL     1     -24.680 -14.432  22.791  1.00  0.00     0.108 A
HETATM    6  N5  UNL     1     -25.265 -13.228  22.521  1.00  0.00    -0.338 N
ATOM      7  H5  UNL     1     -25.036 -12.735  21.658  1.00  0.00     0.167 HD
ENDROOT
BRANCH   3   8
HETATM    8  C5  UNL     1     -26.237 -15.250  26.113  1.00  0.00     0.136 A
HETATM    9  N2  UNL     1     -26.823 -16.465  26.182  1.00  0.00    -0.235 N
HETATM   10  O2  UNL     1     -26.952 -16.804  27.446  1.00  0.00    -0.153 OA
ATOM     11  H2  UNL     1     -27.118 -17.028  25.385  1.00  0.00     0.197 HD
HETATM   12  N3  UNL     1     -26.487 -15.889  28.218  1.00  0.00    -0.204 N
HETATM   13  C6  UNL     1     -26.024 -14.885  27.427  1.00  0.00     0.296 A
ATOM     14  H3  UNL     1     -26.470 -15.911  29.238  1.00  0.00     0.200 HD
HETATM   15  O3  UNL     1     -25.489 -13.802  27.779  1.00  0.00    -0.264 OA
ENDBRANCH   3   8
BRANCH   1  16
HETATM   16  C1  UNL     1     -26.759 -11.395  23.074  1.00  0.00     0.281 C
HETATM   17  N1  UNL     1     -26.541 -10.810  21.797  1.00  0.00    -0.056 NA
HETATM   18  O1  UNL     1     -27.475 -10.804  23.923  1.00  0.00    -0.269 OA
ENDBRANCH   1  16
BRANCH   5  19
HETATM   19  N4  UNL     1     -23.755 -14.961  21.841  1.00  0.00    -0.320 N
ATOM     20  H4  UNL     1     -23.369 -14.345  21.126  1.00  0.00     0.169 HD
BRANCH  19  21
HETATM   21  C9  UNL     1     -23.364 -16.313  21.867  1.00  0.00     0.354 C
HETATM   22  O4  UNL     1     -22.189 -16.665  22.173  1.00  0.00    -0.283 OA
ENDBRANCH  19  21
ENDBRANCH   5  19
TORSDOF 4
ENDMDL