MODEL 4
REMARK VINA RESULT: -4.594421648      3.338      4.769
REMARK  7 active torsions:
REMARK  status: ('A' for Active; 'I' for Inactive)
REMARK    1  A    between atoms: N2_5  and  C4_6
REMARK    2  A    between atoms: C4_6  and  C5_7
REMARK    3  A    between atoms: C5_7  and  C6_8
REMARK    4  A    between atoms: C6_8  and  C7_9
REMARK    5  A    between atoms: C7_9  and  C8_10
REMARK    6  A    between atoms: C8_10  and  N3_11
REMARK    7  A    between atoms: C8_10  and  N4_15
ROOT
HETATM    1  N1  UNL     1     -29.621 -17.972  25.681  1.00  0.00    -0.191 NA
HETATM    2  C1  UNL     1     -28.773 -17.274  25.981  1.00  0.00     0.106 C
HETATM    3  C2  UNL     1     -27.688 -16.407  26.351  1.00  0.00     0.128 A
HETATM    4  C3  UNL     1     -26.913 -15.747  25.413  1.00  0.00     0.124 A
HETATM    5  N2  UNL     1     -25.889 -14.930  25.770  1.00  0.00    -0.308 N
HETATM    6  C9  UNL     1     -25.664 -14.794  27.099  1.00  0.00     0.329 A
HETATM    7  O1  UNL     1     -24.712 -14.036  27.475  1.00  0.00    -0.246 OA
HETATM    8  N5  UNL     1     -26.405 -15.428  28.027  1.00  0.00    -0.274 N
ATOM      9  H5  UNL     1     -26.187 -15.287  29.013  1.00  0.00     0.173 HD
HETATM   10  C10 UNL     1     -27.422 -16.240  27.696  1.00  0.00     0.271 A
HETATM   11  O2  UNL     1     -28.118 -16.836  28.584  1.00  0.00    -0.266 OA
ENDROOT
BRANCH   5  12
HETATM   12  C4  UNL     1     -25.079 -14.238  24.788  1.00  0.00     0.133 C
BRANCH  12  13
HETATM   13  C5  UNL     1     -25.990 -13.815  23.654  1.00  0.00     0.020 C
BRANCH  13  14
HETATM   14  C6  UNL     1     -26.099 -12.308  23.563  1.00  0.00     0.005 C
BRANCH  14  15
HETATM   15  C7  UNL     1     -24.986 -11.826  22.674  1.00  0.00     0.062 C
BRANCH  15  16
HETATM   16  C8  UNL     1     -25.202 -12.194  21.226  1.00  0.00     0.378 C
BRANCH  16  17
HETATM   17  N3  UNL     1     -23.936 -12.740  20.714  1.00  0.00    -0.051 N
ATOM     18  H33 UNL     1     -23.648 -12.317  19.832  1.00  0.00     0.276 HD
ATOM     19  H32 UNL     1     -23.127 -12.457  21.269  1.00  0.00     0.276 HD
ATOM     20  H31 UNL     1     -24.040 -13.753  20.654  1.00  0.00     0.276 HD
ENDBRANCH  16  17
BRANCH  16  21
HETATM   21  N4  UNL     1     -25.448 -10.962  20.494  1.00  0.00    -0.051 N
ATOM     22  H43 UNL     1     -25.953 -11.112  19.620  1.00  0.00     0.276 HD
ATOM     23  H42 UNL     1     -26.139 -10.363  20.945  1.00  0.00     0.276 HD
ATOM     24  H41 UNL     1     -24.549 -10.501  20.360  1.00  0.00     0.276 HD
ENDBRANCH  16  21
ENDBRANCH  15  16
ENDBRANCH  14  15
ENDBRANCH  13  14
ENDBRANCH  12  13
ENDBRANCH   5  12
TORSDOF 7
ENDMDL