MODEL 4
REMARK VINA RESULT: -4.628832922      1.325      1.480
REMARK  6 active torsions:
REMARK  status: ('A' for Active; 'I' for Inactive)
REMARK    1  A    between atoms: N1_1  and  C1_5
REMARK    2  A    between atoms: C1_5  and  C2_6
REMARK    3  A    between atoms: C2_6  and  C3_7
REMARK    4  A    between atoms: C3_7  and  C4_8
REMARK    5  A    between atoms: C4_8  and  C5_9
REMARK    6  A    between atoms: C9_17  and  C10_18
ROOT
HETATM    1  C5  UNL     1     -26.008 -13.421  24.200  1.00  0.00     0.081 C
HETATM    2  N2  UNL     1     -24.975 -13.036  23.436  1.00  0.00    -0.352 N
ATOM      3  H2  UNL     1     -24.101 -13.542  23.575  1.00  0.00     0.166 HD
HETATM    4  C6  UNL     1     -24.952 -12.051  22.496  1.00  0.00     0.146 C
HETATM    5  C7  UNL     1     -26.050 -11.526  21.824  1.00  0.00     0.213 C
HETATM    6  O1  UNL     1     -25.816 -10.920  20.744  1.00  0.00    -0.285 OA
HETATM    7  C8  UNL     1     -27.386 -11.607  22.231  1.00  0.00     0.129 C
HETATM    8  N3  UNL     1     -28.308 -11.059  21.305  1.00  0.00    -0.096 NA
HETATM    9  C9  UNL     1     -27.910 -12.141  23.394  1.00  0.00     0.127 C
HETATM   10  N5  UNL     1     -27.234 -12.867  24.324  1.00  0.00    -0.340 N
ATOM     11  H5  UNL     1     -27.707 -13.009  25.217  1.00  0.00     0.167 HD
ENDROOT
BRANCH   1  12
HETATM   12  C4  UNL     1     -25.756 -14.631  25.025  1.00  0.00     0.076 C
BRANCH  12  13
HETATM   13  C3  UNL     1     -25.097 -14.175  26.300  1.00  0.00     0.009 C
BRANCH  13  14
HETATM   14  C2  UNL     1     -25.682 -14.806  27.530  1.00  0.00     0.027 C
BRANCH  14  15
HETATM   15  C1  UNL     1     -26.919 -15.572  27.101  1.00  0.00     0.229 C
BRANCH  15  16
HETATM   16  N1  UNL     1     -27.772 -15.914  28.197  1.00  0.00    -0.079 N
ATOM     17  H13 UNL     1     -28.009 -16.906  28.177  1.00  0.00     0.274 HD
ATOM     18  H12 UNL     1     -27.261 -15.883  29.079  1.00  0.00     0.274 HD
ATOM     19  H11 UNL     1     -28.612 -15.338  28.242  1.00  0.00     0.274 HD
ENDBRANCH  15  16
ENDBRANCH  14  15
ENDBRANCH  13  14
ENDBRANCH  12  13
ENDBRANCH   1  12
BRANCH   9  20
HETATM   20  C10 UNL     1     -29.308 -11.909  23.652  1.00  0.00     0.283 C
HETATM   21  N4  UNL     1     -29.755 -10.729  24.274  1.00  0.00    -0.056 NA
HETATM   22  O2  UNL     1     -30.157 -12.763  23.320  1.00  0.00    -0.269 OA
ENDBRANCH   9  20
TORSDOF 6
ENDMDL