MODEL 2
REMARK VINA RESULT: -5.837506651      3.551      5.087
REMARK  6 active torsions:
REMARK  status: ('A' for Active; 'I' for Inactive)
REMARK    1  A    between atoms: N1_1  and  C1_4
REMARK    2  A    between atoms: C1_4  and  C2_5
REMARK    3  A    between atoms: C2_5  and  O1_6
REMARK    4  A    between atoms: O1_6  and  N2_7
REMARK    5  A    between atoms: N3_10  and  O4_12
REMARK    6  A    between atoms: O4_12  and  C3_13
ROOT
HETATM    1  C1  UNL     1      11.629  19.259   4.271  1.00  0.00     0.121 C
HETATM    2  N3  UNL     1      12.935  19.515   4.439  1.00  0.00    -0.252 N
ATOM      3  H3  UNL     1      13.507  18.737   4.765  1.00  0.00     0.196 HD
ENDROOT
BRANCH   1   4
HETATM    4  N1  UNL     1      10.933  18.629   5.241  1.00  0.00    -0.386 N
ATOM      5  H12 UNL     1      10.026  18.990   5.536  1.00  0.00     0.157 HD
ATOM      6  H11 UNL     1      11.383  17.756   5.515  1.00  0.00     0.157 HD
ENDBRANCH   1   4
BRANCH   1   7
HETATM    7  C2  UNL     1      10.709  19.729   3.131  1.00  0.00     0.285 C
BRANCH   7   8
HETATM    8  O1  UNL     1       9.876  20.634   3.864  1.00  0.00    -0.214 OA
BRANCH   8   9
HETATM    9  N2  UNL     1      10.272  21.958   4.077  1.00  0.00     0.005 N
HETATM   10  O2  UNL     1      10.151  22.442   5.244  1.00  0.00    -0.511 OA
HETATM   11  O3  UNL     1      10.920  22.563   3.081  1.00  0.00    -0.511 OA
ENDBRANCH   8   9
ENDBRANCH   7   8
ENDBRANCH   1   7
BRANCH   2  12
HETATM   12  O4  UNL     1      13.560  20.639   4.236  1.00  0.00    -0.274 OA
BRANCH  12  13
HETATM   13  C3  UNL     1      14.357  21.182   5.202  1.00  0.00     0.152 C
HETATM   14  C4  UNL     1      15.375  22.207   4.502  1.00  0.00     0.034 C
HETATM   15  C5  UNL     1      14.152  23.152   4.482  1.00  0.00     0.005 C
HETATM   16  C6  UNL     1      13.667  22.395   5.777  1.00  0.00     0.034 C
ENDBRANCH  12  13
ENDBRANCH   2  12
TORSDOF 6
ENDMDL