MODEL 4
REMARK VINA RESULT: -6.198007013      5.059      6.116
REMARK  4 active torsions:
REMARK  status: ('A' for Active; 'I' for Inactive)
REMARK       I    between atoms: C1_2  and  N2_4
REMARK    1  A    between atoms: N3_6  and  N4_7
REMARK    2  A    between atoms: N3_6  and  C2_13
REMARK    3  A    between atoms: N4_7  and  N5_9
REMARK    4  A    between atoms: N5_9  and  O2_11
ROOT
HETATM    1  N1  UNL     1      14.723  19.815   4.879  1.00  0.00    -0.038 NA
HETATM    2  C1  UNL     1      13.431  20.127   4.386  1.00  0.00     0.348 C
HETATM    3  O1  UNL     1      13.233  21.120   3.653  1.00  0.00    -0.249 OA
HETATM    4  N2  UNL     1      12.375  19.295   4.737  1.00  0.00    -0.229 N
ATOM      5  H2  UNL     1      12.654  18.508   5.323  1.00  0.00     0.193 HD
HETATM    6  N3  UNL     1      11.175  19.315   4.485  1.00  0.00    -0.153 N
ENDROOT
BRANCH   6   7
HETATM    7  N4  UNL     1      10.378  18.275   5.028  1.00  0.00    -0.199 N
ATOM      8  H4  UNL     1      10.730  17.648   5.752  1.00  0.00     0.212 HD
BRANCH   7   9
HETATM    9  N5  UNL     1       9.078  18.157   4.517  1.00  0.00    -0.194 N
ATOM     10  H5  UNL     1       8.313  18.658   4.967  1.00  0.00     0.217 HD
BRANCH   9  11
HETATM   11  O2  UNL     1       8.846  17.452   3.525  1.00  0.00    -0.273 OA
ATOM     12  H2  UNL     1       7.987  17.069   3.388  1.00  0.00     0.246 HD
ENDBRANCH   9  11
ENDBRANCH   7   9
ENDBRANCH   6   7
BRANCH   6  13
HETATM   13  C2  UNL     1      10.498  20.274   3.712  1.00  0.00     0.187 A
HETATM   14  C3  UNL     1      10.104  21.542   4.122  1.00  0.00     0.062 A
HETATM   15  C4  UNL     1       9.476  22.140   3.053  1.00  0.00     0.029 A
HETATM   16  C5  UNL     1       9.516  21.203   2.032  1.00  0.00     0.144 A
HETATM   17  O3  UNL     1      10.122  20.132   2.467  1.00  0.00    -0.303 OA
ENDBRANCH   6  13
TORSDOF 4
ENDMDL