MODEL 3
REMARK VINA RESULT: -6.340042501      1.230      3.390
REMARK  4 active torsions:
REMARK  status: ('A' for Active; 'I' for Inactive)
REMARK    1  A    between atoms: C2_2  and  C3_3
REMARK    2  A    between atoms: C3_3  and  N1_4
REMARK    3  A    between atoms: C3_3  and  C5_11
REMARK    4  A    between atoms: N1_4  and  N2_6
ROOT
HETATM    1  C3  UNL     1      16.421  20.411   5.052  1.00  0.00     0.124 C
ENDROOT
BRANCH   1   2
HETATM    2  C2  UNL     1      16.656  19.581   6.269  1.00  0.00     0.024 C
HETATM    3  C1  UNL     1      15.942  18.248   6.210  1.00  0.00     0.007 C
ENDBRANCH   1   2
BRANCH   1   4
HETATM    4  N1  UNL     1      17.371  21.472   4.988  1.00  0.00    -0.316 N
ATOM      5  H1  UNL     1      17.743  21.844   5.861  1.00  0.00     0.182 HD
BRANCH   4   6
HETATM    6  N2  UNL     1      17.816  22.025   3.789  1.00  0.00    -0.252 N
HETATM    7  N3  UNL     1      17.091  22.755   3.048  1.00  0.00    -0.327 N
HETATM    8  C4  UNL     1      17.586  23.309   1.816  1.00  0.00     0.169 C
ATOM      9  H3  UNL     1      16.132  22.955   3.332  1.00  0.00     0.181 HD
ATOM     10  H2  UNL     1      18.773  21.832   3.492  1.00  0.00     0.207 HD
ENDBRANCH   4   6
ENDBRANCH   1   4
BRANCH   1  11
HETATM   11  C5  UNL     1      15.004  20.836   4.981  1.00  0.00     0.164 C
HETATM   12  N4  UNL     1      14.508  21.001   3.631  1.00  0.00    -0.088 NA
HETATM   13  O1  UNL     1      13.291  21.568   3.858  1.00  0.00    -0.251 OA
HETATM   14  C6  UNL     1      13.521  22.626   4.746  1.00  0.00     0.315 A
HETATM   15  O2  UNL     1      13.392  22.340   6.100  1.00  0.00    -0.345 OA
HETATM   16  C7  UNL     1      14.689  22.141   5.615  1.00  0.00     0.205 A
ENDBRANCH   1  11
TORSDOF 4
ENDMDL