MODEL 1
REMARK VINA RESULT: -7.612425697      0.000      0.000
REMARK  5 active torsions:
REMARK  status: ('A' for Active; 'I' for Inactive)
REMARK    1  A    between atoms: C2_2  and  C3_3
REMARK    2  A    between atoms: C4_4  and  C5_5
REMARK    3  A    between atoms: C5_5  and  C7_7
REMARK    4  A    between atoms: C7_7  and  C8_8
REMARK    5  A    between atoms: N2_11  and  N3_12
ROOT
HETATM    1  C8  UNL     1      12.924  20.579   4.431  1.00  0.00     0.315 C
HETATM    2  O1  UNL     1      12.754  19.230   4.771  1.00  0.00    -0.233 OA
HETATM    3  N1  UNL     1      11.430  19.035   4.461  1.00  0.00     0.045 NA
HETATM    4  N2  UNL     1      11.298  19.712   3.234  1.00  0.00     0.015 NA
HETATM    5  O2  UNL     1      12.140  20.745   3.272  1.00  0.00    -0.232 OA
ENDROOT
BRANCH   1   6
HETATM    6  C7  UNL     1      14.347  20.850   4.038  1.00  0.00     0.102 C
BRANCH   6   7
HETATM    7  C5  UNL     1      14.755  22.183   4.520  1.00  0.00    -0.063 C
HETATM    8  C6  UNL     1      14.560  22.651   5.731  1.00  0.00     0.019 C
BRANCH   7   9
HETATM    9  C4  UNL     1      15.426  23.048   3.553  1.00  0.00     0.006 C
HETATM   10  C3  UNL     1      16.443  22.611   2.855  1.00  0.00    -0.000 C
BRANCH  10  11
HETATM   11  C2  UNL     1      17.096  23.481   1.901  1.00  0.00    -0.010 C
HETATM   12  C1  UNL     1      18.413  23.427   1.667  1.00  0.00     0.011 C
ENDBRANCH  10  11
ENDBRANCH   7   9
ENDBRANCH   6   7
ENDBRANCH   1   6
BRANCH   4  13
HETATM   13  N3  UNL     1      11.690  18.775   2.243  1.00  0.00    -0.323 NA
ATOM     14  H32 UNL     1      11.697  19.206   1.318  1.00  0.00     0.174 HD
ATOM     15  H31 UNL     1      12.657  18.537   2.463  1.00  0.00     0.174 HD
ENDBRANCH   4  13
TORSDOF 5
ENDMDL