MODEL 5
REMARK VINA RESULT: -6.130717482      2.916      5.321
REMARK  5 active torsions:
REMARK  status: ('A' for Active; 'I' for Inactive)
REMARK    1  A    between atoms: C2_2  and  C3_3
REMARK    2  A    between atoms: C3_3  and  N1_4
REMARK    3  A    between atoms: N1_4  and  C4_6
REMARK    4  A    between atoms: C4_6  and  C6_8
REMARK    5  A    between atoms: N2_13  and  O3_15
ROOT
HETATM    1  N1  UNL     1      12.229  20.737   4.228  1.00  0.00    -0.390 N
ATOM      2  H1  UNL     1      11.899  21.157   3.359  1.00  0.00     0.159 HD
ENDROOT
BRANCH   1   3
HETATM    3  C3  UNL     1      11.908  19.404   4.505  1.00  0.00     0.110 C
BRANCH   3   4
HETATM    4  C2  UNL     1      11.104  18.707   3.491  1.00  0.00     0.043 C
HETATM    5  C1  UNL     1       9.790  18.083   3.762  1.00  0.00     0.071 C
HETATM    6  N2  UNL     1      11.522  18.598   2.255  1.00  0.00    -0.273 N
ATOM      7  H2  UNL     1      10.945  18.109   1.572  1.00  0.00     0.194 HD
BRANCH   6   8
HETATM    8  O3  UNL     1      12.725  19.131   1.865  1.00  0.00    -0.290 OA
ATOM      9  H3  UNL     1      12.819  20.062   1.704  1.00  0.00     0.244 HD
ENDBRANCH   6   8
ENDBRANCH   3   4
ENDBRANCH   1   3
BRANCH   1  10
HETATM   10  C4  UNL     1      12.993  21.512   5.113  1.00  0.00     0.109 C
HETATM   11  C5  UNL     1      12.305  22.788   5.580  1.00  0.00     0.035 C
BRANCH  10  12
HETATM   12  C6  UNL     1      14.210  22.002   4.357  1.00  0.00     0.184 C
HETATM   13  C7  UNL     1      15.396  22.237   5.231  1.00  0.00     0.066 C
HETATM   14  C8  UNL     1      16.514  21.985   4.207  1.00  0.00     0.212 C
HETATM   15  O1  UNL     1      15.814  21.643   3.049  1.00  0.00    -0.240 OA
HETATM   16  O2  UNL     1      14.690  21.074   3.457  1.00  0.00    -0.234 OA
ENDBRANCH  10  12
ENDBRANCH   1  10
TORSDOF 5
ENDMDL