MODEL 1
REMARK VINA RESULT: -6.880266572      0.000      0.000
REMARK  5 active torsions:
REMARK  status: ('A' for Active; 'I' for Inactive)
REMARK    1  A    between atoms: C2_2  and  O2_4
REMARK    2  A    between atoms: O2_4  and  C3_5
REMARK    3  A    between atoms: C4_6  and  C5_7
REMARK    4  A    between atoms: C6_8  and  C7_9
REMARK    5  A    between atoms: N1_10  and  N2_12
REMARK       I    between atoms: N2_12  and  C8_14
ROOT
HETATM    1  C5  UNL     1      12.136  23.271   5.112  1.00  0.00     0.003 C
HETATM    2  C6  UNL     1      11.068  22.643   4.725  1.00  0.00     0.019 C
ENDROOT
BRANCH   2   3
HETATM    3  C7  UNL     1      10.761  21.283   5.057  1.00  0.00     0.107 C
HETATM    4  N1  UNL     1      10.024  20.574   4.256  1.00  0.00    -0.307 N
ATOM      5  H1  UNL     1       9.675  21.002   3.398  1.00  0.00     0.186 HD
BRANCH   4   6
HETATM    6  N2  UNL     1       9.693  19.240   4.531  1.00  0.00    -0.244 N
HETATM    7  C8  UNL     1      10.092  18.167   3.700  1.00  0.00     0.303 C
HETATM    8  O3  UNL     1      10.775  18.375   2.659  1.00  0.00    -0.628 OA
HETATM    9  O4  UNL     1       9.723  16.884   4.044  1.00  0.00    -0.628 OA
ATOM     10  H2  UNL     1       9.143  19.034   5.364  1.00  0.00     0.193 HD
ENDBRANCH   4   6
ENDBRANCH   2   3
BRANCH   1  11
HETATM   11  C4  UNL     1      13.134  22.627   5.936  1.00  0.00     0.025 C
HETATM   12  C3  UNL     1      14.415  22.632   5.576  1.00  0.00     0.145 C
BRANCH  12  13
HETATM   13  O2  UNL     1      14.849  23.253   4.396  1.00  0.00    -0.291 OA
BRANCH  13  14
HETATM   14  C2  UNL     1      15.573  22.569   3.458  1.00  0.00     0.259 C
HETATM   15  C1  UNL     1      16.630  23.193   2.604  1.00  0.00     0.126 C
HETATM   16  O1  UNL     1      15.342  21.348   3.300  1.00  0.00    -0.265 OA
ENDBRANCH  13  14
ENDBRANCH  12  13
ENDBRANCH   1  11
TORSDOF 5
ENDMDL