MODEL 2
REMARK VINA RESULT: -6.280764855      1.920      2.335
REMARK  4 active torsions:
REMARK  status: ('A' for Active; 'I' for Inactive)
REMARK    1  A    between atoms: C1_2  and  N1_3
REMARK    2  A    between atoms: N1_3  and  N2_5
REMARK    3  A    between atoms: C2_7  and  C3_8
REMARK    4  A    between atoms: C6_11  and  N3_12
ROOT
HETATM    1  C3  UNL     1      13.473  21.054   3.737  1.00  0.00     0.095 A
HETATM    2  C4  UNL     1      13.354  22.357   4.218  1.00  0.00     0.043 A
HETATM    3  C5  UNL     1      14.616  22.901   4.349  1.00  0.00     0.065 A
HETATM    4  C6  UNL     1      15.463  21.865   3.928  1.00  0.00     0.215 A
HETATM    5  O4  UNL     1      14.742  20.828   3.588  1.00  0.00    -0.287 OA
ENDROOT
BRANCH   1   6
HETATM    6  C2  UNL     1      12.326  20.197   3.486  1.00  0.00     0.144 C
HETATM    7  N2  UNL     1      12.337  19.240   2.635  1.00  0.00    -0.307 N
ATOM      8  H2  UNL     1      13.187  19.059   2.100  1.00  0.00     0.186 HD
BRANCH   7   9
HETATM    9  N1  UNL     1      11.217  18.437   2.421  1.00  0.00    -0.278 N
ATOM     10  H1  UNL     1      10.901  18.268   1.465  1.00  0.00     0.189 HD
BRANCH   9  11
HETATM   11  C1  UNL     1      10.504  17.850   3.501  1.00  0.00     0.368 C
HETATM   12  O1  UNL     1       9.267  17.797   3.442  1.00  0.00    -0.282 OA
ENDBRANCH   9  11
ENDBRANCH   7   9
ENDBRANCH   1   6
BRANCH   4  13
HETATM   13  N3  UNL     1      16.877  21.965   3.890  1.00  0.00    -0.090 N
HETATM   14  O2  UNL     1      17.480  22.655   3.043  1.00  0.00    -0.530 OA
HETATM   15  O3  UNL     1      17.603  21.273   4.828  1.00  0.00    -0.530 OA
ENDBRANCH   4  13
TORSDOF 4
ENDMDL