MODEL 3
REMARK VINA RESULT: -4.864688068      2.541      2.924
REMARK  6 active torsions:
REMARK  status: ('A' for Active; 'I' for Inactive)
REMARK    1  A    between atoms: S1_2  and  C2_3
REMARK    2  A    between atoms: C2_3  and  N2_7
REMARK    3  A    between atoms: N2_7  and  O1_9
REMARK    4  A    between atoms: O1_9  and  N3_10
REMARK    5  A    between atoms: N3_10  and  O2_11
REMARK    6  A    between atoms: N3_10  and  N4_13
ROOT
HETATM    1  N2  UNL     1       9.737  21.907   3.781  1.00  0.00    -0.222 N
ATOM      2  H2  UNL     1       9.023  22.633   3.732  1.00  0.00     0.198 HD
ENDROOT
BRANCH   1   3
HETATM    3  C2  UNL     1      10.661  21.985   4.849  1.00  0.00     0.159 C
HETATM    4  N1  UNL     1      10.616  21.066   5.751  1.00  0.00    -0.379 N
ATOM      5  H12 UNL     1      11.282  21.122   6.520  1.00  0.00     0.158 HD
ATOM      6  H11 UNL     1       9.913  20.335   5.638  1.00  0.00     0.158 HD
BRANCH   3   7
HETATM    7  S1  UNL     1      11.886  23.259   5.044  1.00  0.00    -0.097 SA
HETATM    8  C1  UNL     1      13.446  22.623   5.667  1.00  0.00     0.099 C
ENDBRANCH   3   7
ENDBRANCH   1   3
BRANCH   1   9
HETATM    9  O1  UNL     1       9.716  20.974   2.837  1.00  0.00    -0.138 OA
BRANCH   9  10
HETATM   10  N3  UNL     1       9.287  19.776   3.217  1.00  0.00     0.036 NA
BRANCH  10  11
HETATM   11  O2  UNL     1       7.979  19.558   2.975  1.00  0.00    -0.273 OA
ATOM     12  H2  UNL     1       7.785  19.326   2.074  1.00  0.00     0.241 HD
ENDBRANCH  10  11
BRANCH  10  13
HETATM   13  N4  UNL     1      10.094  18.717   2.873  1.00  0.00    -0.208 NA
HETATM   14  C3  UNL     1      11.458  19.112   2.541  1.00  0.00     0.134 C
HETATM   15  C4  UNL     1      10.226  17.738   3.965  1.00  0.00     0.134 C
ENDBRANCH  10  13
ENDBRANCH   9  10
ENDBRANCH   1   9
TORSDOF 6
ENDMDL