MODEL 4
REMARK VINA RESULT: -5.252180307      1.862      1.862
REMARK  5 active torsions:
REMARK  status: ('A' for Active; 'I' for Inactive)
REMARK    1  A    between atoms: N2_3  and  C2_5
REMARK    2  A    between atoms: C2_5  and  C3_6
REMARK    3  A    between atoms: N3_7  and  N4_9
REMARK    4  A    between atoms: C4_11  and  S1_12
REMARK    5  A    between atoms: S1_12  and  C5_13
ROOT
HETATM    1  N1  UNL     1      16.768  22.699   2.847  1.00  0.00    -0.172 NA
HETATM    2  C1  UNL     1      17.139  22.078   3.752  1.00  0.00     0.177 C
HETATM    3  N2  UNL     1      17.597  21.352   4.850  1.00  0.00    -0.324 N
ATOM      4  H2  UNL     1      18.551  21.511   5.174  1.00  0.00     0.172 HD
ENDROOT
BRANCH   3   5
HETATM    5  C2  UNL     1      16.788  20.387   5.548  1.00  0.00     0.177 C
BRANCH   5   6
HETATM    6  C3  UNL     1      15.361  20.561   5.134  1.00  0.00     0.100 C
HETATM    7  N3  UNL     1      14.690  19.470   4.982  1.00  0.00    -0.314 N
ATOM      8  H3  UNL     1      15.141  18.570   5.144  1.00  0.00     0.185 HD
BRANCH   7   9
HETATM    9  N4  UNL     1      13.369  19.517   4.603  1.00  0.00    -0.306 N
HETATM   10  C4  UNL     1      12.696  20.565   4.303  1.00  0.00     0.161 C
ATOM     11  H4  UNL     1      12.875  18.626   4.555  1.00  0.00     0.186 HD
BRANCH  10  12
HETATM   12  S1  UNL     1      10.982  20.319   3.843  1.00  0.00    -0.026 SA
BRANCH  12  13
HETATM   13  C5  UNL     1      10.085  21.834   4.003  1.00  0.00     0.298 C
HETATM   14  N5  UNL     1       9.342  22.376   2.926  1.00  0.00    -0.051 NA
HETATM   15  O1  UNL     1      10.087  22.470   5.087  1.00  0.00    -0.263 OA
ENDBRANCH  12  13
ENDBRANCH  10  12
ENDBRANCH   7   9
ENDBRANCH   5   6
ENDBRANCH   3   5
TORSDOF 5
ENDMDL