MODEL 1
REMARK VINA RESULT: -5.887896860      0.000      0.000
REMARK  4 active torsions:
REMARK  status: ('A' for Active; 'I' for Inactive)
REMARK    1  A    between atoms: N1_1  and  O1_4
REMARK    2  A    between atoms: O1_4  and  C1_5
REMARK    3  A    between atoms: C1_5  and  C2_6
REMARK    4  A    between atoms: C3_7  and  C4_8
ROOT
HETATM    1  C4  UNL     1      15.303  22.070   2.915  1.00  0.00     0.020 A
HETATM    2  C5  UNL     1      16.086  22.889   2.073  1.00  0.00     0.037 A
HETATM    3  C6  UNL     1      17.435  23.061   2.326  1.00  0.00     0.089 A
HETATM    4  N2  UNL     1      17.986  22.434   3.400  1.00  0.00    -0.375 N
ATOM      5  H2  UNL     1      18.979  22.551   3.607  1.00  0.00     0.164 HD
HETATM    6  C7  UNL     1      17.218  21.656   4.191  1.00  0.00     0.089 A
HETATM    7  C8  UNL     1      15.894  21.454   3.990  1.00  0.00     0.037 A
ENDROOT
BRANCH   1   8
HETATM    8  C3  UNL     1      13.958  21.826   2.586  1.00  0.00    -0.065 C
HETATM    9  C2  UNL     1      12.819  21.591   2.403  1.00  0.00    -0.072 C
BRANCH   9  10
HETATM   10  C1  UNL     1      11.367  21.207   2.303  1.00  0.00     0.294 C
BRANCH  10  11
HETATM   11  O1  UNL     1      11.349  19.860   2.780  1.00  0.00    -0.275 OA
BRANCH  11  12
HETATM   12  N1  UNL     1      11.274  19.055   1.678  1.00  0.00    -0.310 N
ATOM     13  H12 UNL     1      10.787  19.273   0.810  1.00  0.00     0.184 HD
ATOM     14  H11 UNL     1      11.796  18.207   1.900  1.00  0.00     0.184 HD
ENDBRANCH  11  12
ENDBRANCH  10  11
ENDBRANCH   9  10
ENDBRANCH   1   8
TORSDOF 4
ENDMDL