MODEL 2
REMARK VINA RESULT: -5.622077106      1.480      2.414
REMARK  1 active torsions:
REMARK  status: ('A' for Active; 'I' for Inactive)
REMARK    1  A    between atoms: N1_1  and  C1_5
ROOT
HETATM    1  C1  UNL     1      16.064  22.989   3.216  1.00  0.00     0.272 C
HETATM    2  C2  UNL     1      17.179  22.062   3.587  1.00  0.00     0.051 C
HETATM    3  C3  UNL     1      16.896  21.390   4.904  1.00  0.00     0.026 C
HETATM    4  C4  UNL     1      15.450  21.457   5.199  1.00  0.00     0.094 C
HETATM    5  C5  UNL     1      14.846  22.807   5.228  1.00  0.00     0.097 C
HETATM    6  C6  UNL     1      13.398  22.482   5.565  1.00  0.00     0.039 C
HETATM    7  C7  UNL     1      13.279  21.266   4.623  1.00  0.00     0.110 C
HETATM    8  N2  UNL     1      14.607  21.295   4.005  1.00  0.00    -0.241 NA
HETATM    9  N3  UNL     1      14.806  22.685   3.796  1.00  0.00    -0.213 NA
ENDROOT
BRANCH   1  10
HETATM   10  N1  UNL     1      15.975  23.071   1.764  1.00  0.00    -0.061 N
ATOM     11  H13 UNL     1      15.009  23.108   1.436  1.00  0.00     0.276 HD
ATOM     12  H12 UNL     1      16.282  23.976   1.407  1.00  0.00     0.276 HD
ATOM     13  H11 UNL     1      16.494  22.296   1.353  1.00  0.00     0.276 HD
ENDBRANCH   1  10
TORSDOF 1
ENDMDL