MODEL 5
REMARK VINA RESULT: -5.180508770      1.415      2.948
REMARK  2 active torsions:
REMARK  status: ('A' for Active; 'I' for Inactive)
REMARK    1  A    between atoms: O1_1  and  C1_3
REMARK    2  A    between atoms: C7_10  and  O3_11
ROOT
HETATM    1  C1  UNL     1      14.211  21.261   5.308  1.00  0.00     0.172 C
HETATM    2  C2  UNL     1      13.887  22.701   5.190  1.00  0.00     0.004 C
HETATM    3  C3  UNL     1      14.568  23.555   4.453  1.00  0.00    -0.019 C
HETATM    4  C4  UNL     1      15.730  23.057   3.691  1.00  0.00     0.063 C
HETATM    5  C5  UNL     1      15.179  22.201   2.558  1.00  0.00     0.179 C
HETATM    6  O2  UNL     1      14.950  20.949   3.056  1.00  0.00    -0.380 OA
HETATM    7  C6  UNL     1      15.347  20.882   4.367  1.00  0.00     0.183 C
HETATM    8  C7  UNL     1      16.395  21.992   4.542  1.00  0.00     0.159 C
ENDROOT
BRANCH   1   9
HETATM    9  O1  UNL     1      13.113  20.440   5.149  1.00  0.00    -0.389 OA
ATOM     10  H1  UNL     1      12.901  20.270   4.239  1.00  0.00     0.210 HD
ENDBRANCH   1   9
BRANCH   8  11
HETATM   11  O3  UNL     1      17.630  21.619   4.083  1.00  0.00    -0.392 OA
ATOM     12  H3  UNL     1      18.302  21.628   4.755  1.00  0.00     0.210 HD
ENDBRANCH   8  11
TORSDOF 2
ENDMDL