MODEL 1
REMARK VINA RESULT: -5.080093793      0.000      0.000
REMARK  2 active torsions:
REMARK  status: ('A' for Active; 'I' for Inactive)
REMARK    1  A    between atoms: C3_3  and  O1_4
REMARK    2  A    between atoms: C4_6  and  O2_7
ROOT
HETATM    1  C1  UNL     1       9.721  20.161   1.016  1.00  0.00     0.035 C
HETATM    2  C2  UNL     1      10.188  20.028   2.418  1.00  0.00     0.110 C
HETATM    3  C3  UNL     1       9.566  18.849   3.146  1.00  0.00     0.173 C
HETATM    4  C4  UNL     1      10.252  18.693   4.469  1.00  0.00     0.173 C
HETATM    5  C5  UNL     1      10.522  19.950   5.185  1.00  0.00     0.024 C
HETATM    6  C6  UNL     1      10.368  21.110   4.589  1.00  0.00     0.084 C
HETATM    7  N1  UNL     1       9.939  21.171   3.246  1.00  0.00    -0.388 N
HETATM    8  C7  UNL     1       9.277  22.380   2.796  1.00  0.00     0.149 C
ENDROOT
BRANCH   3   9
HETATM    9  O1  UNL     1       8.203  19.090   3.313  1.00  0.00    -0.391 OA
ATOM     10  H1  UNL     1       7.832  18.399   3.849  1.00  0.00     0.210 HD
ENDBRANCH   3   9
BRANCH   4  11
HETATM   11  O2  UNL     1       9.436  17.931   5.344  1.00  0.00    -0.389 OA
ATOM     12  H2  UNL     1       8.760  18.485   5.715  1.00  0.00     0.210 HD
ENDBRANCH   4  11
TORSDOF 2
ENDMDL