MODEL 3
REMARK VINA RESULT: -5.107572354      4.145      4.873
REMARK  2 active torsions:
REMARK  status: ('A' for Active; 'I' for Inactive)
REMARK    1  A    between atoms: O1_1  and  C1_3
REMARK    2  A    between atoms: C7_10  and  O3_11
ROOT
HETATM    1  C1  UNL     1      11.801  20.974   5.129  1.00  0.00     0.155 C
HETATM    2  C2  UNL     1      11.905  21.685   3.802  1.00  0.00     0.041 C
HETATM    3  C3  UNL     1      10.589  22.457   3.629  1.00  0.00     0.012 C
HETATM    4  C4  UNL     1       9.542  21.397   3.333  1.00  0.00     0.035 C
HETATM    5  C5  UNL     1      10.086  20.015   3.694  1.00  0.00     0.152 C
HETATM    6  O2  UNL     1      11.163  19.662   2.888  1.00  0.00    -0.383 OA
HETATM    7  C6  UNL     1      11.993  20.741   2.635  1.00  0.00     0.175 C
HETATM    8  C7  UNL     1      10.550  20.123   5.146  1.00  0.00     0.176 C
ENDROOT
BRANCH   1   9
HETATM    9  O1  UNL     1      11.615  21.969   6.104  1.00  0.00    -0.392 OA
ATOM     10  H1  UNL     1      10.733  21.859   6.438  1.00  0.00     0.210 HD
ENDBRANCH   1   9
BRANCH   8  11
HETATM   11  O3  UNL     1      10.739  18.887   5.724  1.00  0.00    -0.390 OA
ATOM     12  H3  UNL     1       9.967  18.334   5.690  1.00  0.00     0.210 HD
ENDBRANCH   8  11
TORSDOF 2
ENDMDL