MODEL 1
REMARK VINA RESULT: -5.022699900      0.000      0.000
REMARK  2 active torsions:
REMARK  status: ('A' for Active; 'I' for Inactive)
REMARK    1  A    between atoms: O1_1  and  C1_3
REMARK    2  A    between atoms: C6_9  and  O3_10
ROOT
HETATM    1  C1  UNL     1      13.654  21.541   3.424  1.00  0.00     0.176 C
HETATM    2  C2  UNL     1      13.171  21.262   4.793  1.00  0.00     0.203 C
HETATM    3  O2  UNL     1      13.502  22.156   5.757  1.00  0.00    -0.383 OA
HETATM    4  C3  UNL     1      14.730  22.739   5.661  1.00  0.00     0.124 C
HETATM    5  C4  UNL     1      15.867  21.755   5.523  1.00  0.00     0.035 C
HETATM    6  C5  UNL     1      16.012  21.493   4.021  1.00  0.00     0.043 C
HETATM    7  C6  UNL     1      14.926  22.346   3.376  1.00  0.00     0.088 C
HETATM    8  C7  UNL     1      14.863  23.512   4.348  1.00  0.00     0.072 C
ENDROOT
BRANCH   1   9
HETATM    9  O1  UNL     1      13.954  20.301   2.813  1.00  0.00    -0.390 OA
ATOM     10  H1  UNL     1      14.562  20.469   2.102  1.00  0.00     0.210 HD
ENDBRANCH   1   9
BRANCH   7  11
HETATM   11  O3  UNL     1      15.239  22.761   2.117  1.00  0.00    -0.387 OA
ATOM     12  H3  UNL     1      15.667  22.087   1.603  1.00  0.00     0.210 HD
ENDBRANCH   7  11
TORSDOF 2
ENDMDL