MODEL 3
REMARK VINA RESULT: -5.523617049      1.533      1.796
REMARK  3 active torsions:
REMARK  status: ('A' for Active; 'I' for Inactive)
REMARK    1  A    between atoms: C2_2  and  C3_3
REMARK    2  A    between atoms: C5_6  and  O2_7
REMARK    3  A    between atoms: C7_10  and  O3_11
ROOT
HETATM    1  C3  UNL     1      15.119  22.279   3.789  1.00  0.00     0.133 A
HETATM    2  O1  UNL     1      14.281  22.349   2.684  1.00  0.00    -0.359 OA
HETATM    3  C4  UNL     1      14.231  21.187   3.398  1.00  0.00     0.193 A
HETATM    4  C5  UNL     1      13.302  21.018   4.570  1.00  0.00     0.153 C
HETATM    5  C6  UNL     1      13.310  22.300   5.335  1.00  0.00     0.069 C
HETATM    6  C7  UNL     1      14.618  22.956   5.013  1.00  0.00     0.162 C
ENDROOT
BRANCH   1   7
HETATM    7  C2  UNL     1      16.574  22.055   3.599  1.00  0.00     0.006 C
HETATM    8  C1  UNL     1      17.258  22.788   2.739  1.00  0.00     0.010 C
ENDBRANCH   1   7
BRANCH   6   9
HETATM    9  O3  UNL     1      15.508  22.978   6.061  1.00  0.00    -0.392 OA
ATOM     10  H3  UNL     1      16.234  23.582   5.951  1.00  0.00     0.210 HD
ENDBRANCH   6   9
BRANCH   4  11
HETATM   11  O2  UNL     1      12.060  20.611   4.157  1.00  0.00    -0.393 OA
ATOM     12  H2  UNL     1      11.381  20.973   4.713  1.00  0.00     0.210 HD
ENDBRANCH   4  11
TORSDOF 3
ENDMDL