MODEL 4
REMARK VINA RESULT: -5.000664523      1.819      3.746
REMARK  2 active torsions:
REMARK  status: ('A' for Active; 'I' for Inactive)
REMARK    1  A    between atoms: O1_1  and  C1_3
REMARK    2  A    between atoms: C7_10  and  O3_11
ROOT
HETATM    1  C1  UNL     1      12.583  22.640   5.034  1.00  0.00     0.153 C
HETATM    2  C2  UNL     1      11.342  22.869   4.204  1.00  0.00     0.021 C
HETATM    3  C3  UNL     1      10.157  22.069   4.763  1.00  0.00     0.033 C
HETATM    4  C4  UNL     1      10.332  20.604   4.581  1.00  0.00     0.168 C
HETATM    5  O2  UNL     1      11.564  20.169   4.244  1.00  0.00    -0.383 OA
HETATM    6  C5  UNL     1      12.341  20.929   3.452  1.00  0.00     0.153 C
HETATM    7  C6  UNL     1      11.663  22.160   2.878  1.00  0.00     0.042 C
HETATM    8  C7  UNL     1      13.407  21.601   4.332  1.00  0.00     0.176 C
ENDROOT
BRANCH   1   9
HETATM    9  O1  UNL     1      12.259  22.281   6.334  1.00  0.00    -0.393 OA
ATOM     10  H1  UNL     1      13.033  22.242   6.884  1.00  0.00     0.210 HD
ENDBRANCH   1   9
BRANCH   8  11
HETATM   11  O3  UNL     1      14.015  20.700   5.174  1.00  0.00    -0.390 OA
ATOM     12  H3  UNL     1      14.943  20.576   5.007  1.00  0.00     0.210 HD
ENDBRANCH   8  11
TORSDOF 2
ENDMDL