MODEL 1
REMARK VINA RESULT: -5.648383866      0.000      0.000
REMARK  2 active torsions:
REMARK  status: ('A' for Active; 'I' for Inactive)
REMARK    1  A    between atoms: N1_1  and  C1_5
REMARK    2  A    between atoms: C7_12  and  O1_13
ROOT
HETATM    1  C1  UNL     1      13.737  22.294   4.365  1.00  0.00     0.231 C
HETATM    2  C2  UNL     1      13.755  22.143   2.847  1.00  0.00     0.158 C
HETATM    3  N2  UNL     1      15.124  22.413   2.567  1.00  0.00    -0.381 N
HETATM    4  C3  UNL     1      16.051  23.132   1.799  1.00  0.00     0.082 C
HETATM    5  C4  UNL     1      17.261  23.083   2.366  1.00  0.00    -0.008 C
HETATM    6  C5  UNL     1      17.226  22.284   3.621  1.00  0.00     0.056 C
HETATM    7  C6  UNL     1      15.887  21.582   3.489  1.00  0.00     0.118 C
HETATM    8  C7  UNL     1      15.046  21.672   4.741  1.00  0.00     0.173 C
ENDROOT
BRANCH   1   9
HETATM    9  N1  UNL     1      12.605  21.620   4.956  1.00  0.00    -0.071 N
ATOM     10  H13 UNL     1      11.740  22.135   4.794  1.00  0.00     0.274 HD
ATOM     11  H12 UNL     1      12.378  20.763   4.452  1.00  0.00     0.274 HD
ATOM     12  H11 UNL     1      12.750  21.438   5.949  1.00  0.00     0.274 HD
ENDBRANCH   1   9
BRANCH   8  13
HETATM   13  O1  UNL     1      14.825  20.408   5.313  1.00  0.00    -0.391 OA
ATOM     14  H1  UNL     1      14.807  19.746   4.632  1.00  0.00     0.210 HD
ENDBRANCH   8  13
TORSDOF 2
ENDMDL