MODEL 5
REMARK VINA RESULT: -5.165383428      2.341      3.604
REMARK  2 active torsions:
REMARK  status: ('A' for Active; 'I' for Inactive)
REMARK    1  A    between atoms: O1_1  and  C1_3
REMARK    2  A    between atoms: C7_10  and  O3_11
ROOT
HETATM    1  C1  UNL     1      12.160  21.285   3.425  1.00  0.00     0.147 C
HETATM    2  C2  UNL     1      12.750  21.783   4.687  1.00  0.00     0.043 C
HETATM    3  C3  UNL     1      14.151  21.363   4.952  1.00  0.00     0.041 A
HETATM    4  C4  UNL     1      14.936  22.504   5.598  1.00  0.00     0.175 A
HETATM    5  O2  UNL     1      15.730  22.514   4.442  1.00  0.00    -0.385 OA
HETATM    6  C5  UNL     1      15.072  21.446   3.793  1.00  0.00     0.130 A
HETATM    7  C6  UNL     1      14.437  21.792   2.493  1.00  0.00     0.066 C
HETATM    8  C7  UNL     1      13.092  21.161   2.277  1.00  0.00     0.149 C
ENDROOT
BRANCH   1   9
HETATM    9  O1  UNL     1      11.509  20.064   3.692  1.00  0.00    -0.393 OA
ATOM     10  H1  UNL     1      11.613  19.499   2.936  1.00  0.00     0.210 HD
ENDBRANCH   1   9
BRANCH   8  11
HETATM   11  O3  UNL     1      13.310  19.822   1.943  1.00  0.00    -0.393 OA
ATOM     12  H3  UNL     1      14.133  19.508   2.297  1.00  0.00     0.210 HD
ENDBRANCH   8  11
TORSDOF 2
ENDMDL