MODEL 4
REMARK VINA RESULT: -8.948356171      1.944      8.300
REMARK  12 active torsions:
REMARK  status: ('A' for Active; 'I' for Inactive)
REMARK    1  A    between atoms: C2_2  and  N1_3
REMARK    2  A    between atoms: C2_2  and  C10_33
REMARK    3  A    between atoms: N1_3  and  C3_4
REMARK    4  A    between atoms: C4_10  and  O2_11
REMARK    5  A    between atoms: O2_11  and  C5_12
REMARK    6  A    between atoms: C5_12  and  C6_13
REMARK    7  A    between atoms: C7_14  and  N4_15
REMARK    8  A    between atoms: N4_15  and  O3_16
REMARK    9  A    between atoms: N4_15  and  N5_18
REMARK   10  A    between atoms: N5_18  and  O4_19
REMARK   11  A    between atoms: C8_23  and  N7_24
REMARK   12  A    between atoms: C9_29  and  N9_30
ROOT
HETATM    1  C3  UNL     1      63.234   8.359  82.760  1.00  0.00     0.254 A
HETATM    2  N2  UNL     1      62.609   9.400  83.414  1.00  0.00    -0.210 N
ATOM      3  H2  UNL     1      61.982  10.072  82.970  1.00  0.00     0.199 HD
HETATM    4  O1  UNL     1      62.923   9.408  84.647  1.00  0.00    -0.152 OA
HETATM    5  N3  UNL     1      63.725   8.437  84.888  1.00  0.00    -0.215 N
ATOM      6  H3  UNL     1      64.121   8.229  85.805  1.00  0.00     0.199 HD
HETATM    7  C4  UNL     1      63.974   7.735  83.776  1.00  0.00     0.226 A
ENDROOT
BRANCH   7   8
HETATM    8  O2  UNL     1      64.799   6.599  83.618  1.00  0.00    -0.326 OA
BRANCH   8   9
HETATM    9  C5  UNL     1      64.229   5.397  84.010  1.00  0.00     0.224 C
BRANCH   9  10
HETATM   10  C6  UNL     1      64.990   4.457  84.811  1.00  0.00     0.058 A
HETATM   11  C7  UNL     1      64.901   4.647  86.212  1.00  0.00     0.177 A
HETATM   12  N6  UNL     1      65.547   3.840  87.054  1.00  0.00    -0.173 N
HETATM   13  C8  UNL     1      66.299   2.827  86.589  1.00  0.00     0.679 A
ATOM     14  H6  UNL     1      65.470   3.992  88.060  1.00  0.00     0.186 HD
HETATM   15  N8  UNL     1      66.388   2.643  85.280  1.00  0.00    -0.177 N
HETATM   16  C9  UNL     1      65.752   3.432  84.342  1.00  0.00     0.127 A
ATOM     17  H8  UNL     1      66.963   1.870  84.944  1.00  0.00     0.186 HD
BRANCH  11  18
HETATM   18  N4  UNL     1      64.131   5.710  86.760  1.00  0.00    -0.123 N
BRANCH  18  19
HETATM   19  O3  UNL     1      62.786   5.676  86.742  1.00  0.00    -0.268 OA
ATOM     20  H3  UNL     1      62.273   6.462  86.891  1.00  0.00     0.246 HD
ENDBRANCH  18  19
BRANCH  18  21
HETATM   21  N5  UNL     1      64.776   6.789  87.341  1.00  0.00     0.049 NA
BRANCH  21  22
HETATM   22  O4  UNL     1      65.936   6.480  87.951  1.00  0.00    -0.275 OA
ATOM     23  H4  UNL     1      66.630   6.211  87.361  1.00  0.00     0.240 HD
ENDBRANCH  21  22
ENDBRANCH  18  21
ENDBRANCH  11  18
BRANCH  13  24
HETATM   24  N7  UNL     1      66.932   2.033  87.375  1.00  0.00    -0.234 N
ATOM     25  H72 UNL     1      67.540   1.320  86.973  1.00  0.00     0.174 HD
ATOM     26  H71 UNL     1      66.845   2.093  88.390  1.00  0.00     0.174 HD
ENDBRANCH  13  24
BRANCH  16  27
HETATM   27  N9  UNL     1      65.940   3.114  83.113  1.00  0.00    -0.384 N
ATOM     28  H92 UNL     1      65.422   2.303  82.774  1.00  0.00     0.157 HD
ATOM     29  H91 UNL     1      66.548   3.588  82.446  1.00  0.00     0.157 HD
ENDBRANCH  16  27
ENDBRANCH   9  10
ENDBRANCH   8   9
ENDBRANCH   7   8
BRANCH   1  30
HETATM   30  N1  UNL     1      63.109   8.085  81.481  1.00  0.00    -0.382 NA
BRANCH  30  31
HETATM   31  C2  UNL     1      63.253   7.967  80.341  1.00  0.00     0.128 C
HETATM   32  C1  UNL     1      62.599   6.857  79.547  1.00  0.00     0.089 C
BRANCH  31  33
HETATM   33  C10 UNL     1      64.087   8.884  79.532  1.00  0.00     0.158 A
HETATM   34  N10 UNL     1      64.128  10.166  79.905  1.00  0.00    -0.321 N
HETATM   35  C11 UNL     1      64.878  11.056  79.233  1.00  0.00     0.171 A
ATOM     36  H10 UNL     1      63.583  10.474  80.711  1.00  0.00     0.169 HD
HETATM   37  N11 UNL     1      64.888  12.281  79.621  1.00  0.00    -0.381 N
HETATM   38  C12 UNL     1      65.585  10.588  78.162  1.00  0.00     0.305 A
ATOM     39 2H11 UNL     1      64.360  12.630  80.420  1.00  0.00     0.157 HD
ATOM     40 1H11 UNL     1      65.457  12.956  79.111  1.00  0.00     0.157 HD
HETATM   41  O5  UNL     1      66.295  11.398  77.515  1.00  0.00    -0.262 OA
HETATM   42  N12 UNL     1      65.555   9.290  77.769  1.00  0.00    -0.257 N
HETATM   43  C13 UNL     1      66.316   8.816  76.632  1.00  0.00     0.181 C
HETATM   44  N13 UNL     1      64.788   8.460  78.484  1.00  0.00    -0.278 N
ATOM     45  H13 UNL     1      64.739   7.476  78.218  1.00  0.00     0.189 HD
ENDBRANCH  31  33
ENDBRANCH  30  31
ENDBRANCH   1  30
TORSDOF 12
ENDMDL