MODEL 1
REMARK VINA RESULT: -8.962921724      0.000      0.000
REMARK  11 active torsions:
REMARK  status: ('A' for Active; 'I' for Inactive)
REMARK       I    between atoms: C2_2  and  N1_4
REMARK    1  A    between atoms: N1_4  and  C3_6
REMARK    2  A    between atoms: C3_6  and  C4_7
REMARK    3  A    between atoms: C5_12  and  C6_13
REMARK    4  A    between atoms: C8_20  and  N6_21
REMARK    5  A    between atoms: C9_26  and  C10_27
REMARK    6  A    between atoms: C10_27  and  O3_28
REMARK    7  A    between atoms: C10_27  and  O4_30
REMARK    8  A    between atoms: C12_35  and  N10_36
REMARK    9  A    between atoms: C13_39  and  C14_40
REMARK   10  A    between atoms: C14_40  and  O5_41
REMARK   11  A    between atoms: C14_40  and  O6_43
ROOT
HETATM    1  C6  UNL     1      63.801   7.400  83.869  1.00  0.00     0.143 A
HETATM    2  O2  UNL     1      64.377   7.478  85.072  1.00  0.00    -0.286 OA
HETATM    3  C7  UNL     1      64.783   6.452  85.761  1.00  0.00     0.179 A
HETATM    4  N4  UNL     1      65.380   6.319  86.979  1.00  0.00    -0.277 N
ATOM      5  H4  UNL     1      65.623   7.093  87.597  1.00  0.00     0.189 HD
HETATM    6  N5  UNL     1      65.598   5.057  87.239  1.00  0.00    -0.280 N
ATOM      7  H5  UNL     1      66.032   4.681  88.081  1.00  0.00     0.188 HD
HETATM    8  C8  UNL     1      65.141   4.343  86.188  1.00  0.00     0.178 A
HETATM    9  C11 UNL     1      64.622   5.194  85.238  1.00  0.00     0.092 A
HETATM   10  C12 UNL     1      64.025   5.032  83.980  1.00  0.00     0.058 A
HETATM   11  C13 UNL     1      63.603   6.175  83.272  1.00  0.00     0.061 A
ENDROOT
BRANCH   1  12
HETATM   12  C5  UNL     1      63.399   8.661  83.221  1.00  0.00     0.199 A
HETATM   13  N3  UNL     1      62.458   9.549  83.461  1.00  0.00    -0.276 N
HETATM   14  N2  UNL     1      62.537  10.506  82.564  1.00  0.00    -0.280 N
ATOM     15  H3  UNL     1      61.779   9.502  84.220  1.00  0.00     0.189 HD
HETATM   16  C4  UNL     1      63.549  10.233  81.725  1.00  0.00     0.158 A
ATOM     17  H2  UNL     1      61.928  11.323  82.514  1.00  0.00     0.189 HD
HETATM   18  O7  UNL     1      64.045   9.116  82.151  1.00  0.00    -0.274 OA
BRANCH  16  19
HETATM   19  C3  UNL     1      64.014  11.026  80.557  1.00  0.00     0.208 C
BRANCH  19  20
HETATM   20  N1  UNL     1      64.534  10.151  79.543  1.00  0.00    -0.354 N
HETATM   21  C2  UNL     1      65.480  10.590  78.565  1.00  0.00     0.213 C
HETATM   22  C1  UNL     1      65.969   9.630  77.554  1.00  0.00     0.117 C
HETATM   23  O1  UNL     1      65.899  11.757  78.546  1.00  0.00    -0.274 OA
ATOM     24  H1  UNL     1      64.217   9.181  79.520  1.00  0.00     0.162 HD
ENDBRANCH  19  20
ENDBRANCH  16  19
ENDBRANCH   1  12
BRANCH  11  25
HETATM   25  C14 UNL     1      62.968   5.956  81.963  1.00  0.00     0.293 C
BRANCH  25  26
HETATM   26  O5  UNL     1      61.853   6.827  81.796  1.00  0.00    -0.367 OA
ATOM     27  H5  UNL     1      62.023   7.458  81.106  1.00  0.00     0.213 HD
ENDBRANCH  25  26
BRANCH  25  28
HETATM   28  O6  UNL     1      63.886   6.465  80.984  1.00  0.00    -0.367 OA
ATOM     29  H6  UNL     1      63.979   5.784  80.328  1.00  0.00     0.213 HD
ENDBRANCH  25  28
ENDBRANCH  11  25
BRANCH  10  30
HETATM   30  N10 UNL     1      63.901   3.847  83.598  1.00  0.00    -0.398 N
ATOM     31 2H10 UNL     1      63.757   3.038  84.201  1.00  0.00     0.156 HD
ATOM     32 1H10 UNL     1      63.970   3.706  82.590  1.00  0.00     0.156 HD
ENDBRANCH  10  30
BRANCH   8  33
HETATM   33  N6  UNL     1      65.165   2.929  86.023  1.00  0.00    -0.161 N
HETATM   34  N7  UNL     1      64.373   2.079  86.633  1.00  0.00    -0.218 N
HETATM   35  N8  UNL     1      64.680   0.835  86.235  1.00  0.00    -0.268 N
ATOM     36  H7  UNL     1      63.643   2.324  87.302  1.00  0.00     0.210 HD
HETATM   37  C9  UNL     1      65.691   0.908  85.352  1.00  0.00     0.169 A
ATOM     38  H8  UNL     1      64.223  -0.021  86.549  1.00  0.00     0.190 HD
HETATM   39  N9  UNL     1      65.975   2.211  85.235  1.00  0.00    -0.259 N
ATOM     40  H9  UNL     1      66.701   2.600  84.635  1.00  0.00     0.190 HD
BRANCH  37  41
HETATM   41  C10 UNL     1      66.347  -0.249  84.657  1.00  0.00     0.326 C
BRANCH  41  42
HETATM   42  O3  UNL     1      67.701   0.087  84.547  1.00  0.00    -0.365 OA
ATOM     43  H3  UNL     1      67.745   0.785  83.904  1.00  0.00     0.213 HD
ENDBRANCH  41  42
BRANCH  41  44
HETATM   44  O4  UNL     1      66.237  -1.372  85.475  1.00  0.00    -0.365 OA
ATOM     45  H4  UNL     1      66.458  -2.139  84.961  1.00  0.00     0.213 HD
ENDBRANCH  41  44
ENDBRANCH  37  41
ENDBRANCH   8  33
TORSDOF 11
ENDMDL