MODEL 5
REMARK VINA RESULT: -7.290231617      1.707      3.237
REMARK  12 active torsions:
REMARK  status: ('A' for Active; 'I' for Inactive)
REMARK    1  A    between atoms: C1_2  and  C2_4
REMARK    2  A    between atoms: C3_5  and  N2_6
REMARK    3  A    between atoms: C4_9  and  C5_10
REMARK    4  A    between atoms: C5_10  and  O4_11
REMARK    5  A    between atoms: C5_10  and  O5_13
REMARK    6  A    between atoms: C6_15  and  N3_16
REMARK    7  A    between atoms: N3_16  and  C7_18
REMARK    8  A    between atoms: N4_21  and  O6_23
REMARK    9  A    between atoms: C10_25  and  C11_26
REMARK   10  A    between atoms: C11_26  and  O7_27
REMARK   11  A    between atoms: C11_26  and  O8_29
REMARK   12  A    between atoms: N5_32  and  N6_33
ROOT
HETATM    1  C2  UNL     1      62.838   8.655  81.121  1.00  0.00     0.132 A
HETATM    2  C3  UNL     1      62.442   7.324  81.111  1.00  0.00     0.138 A
HETATM    3  C4  UNL     1      62.989   6.511  82.110  1.00  0.00     0.076 A
HETATM    4  C6  UNL     1      63.859   6.893  83.064  1.00  0.00     0.140 A
HETATM    5  N5  UNL     1      64.214   8.242  83.024  1.00  0.00    -0.209 N
HETATM    6  C12 UNL     1      63.719   9.054  82.098  1.00  0.00     0.285 A
HETATM    7  O9  UNL     1      64.079  10.284  82.108  1.00  0.00    -0.265 OA
ENDROOT
BRANCH   4   8
HETATM    8  N3  UNL     1      64.654   6.146  83.953  1.00  0.00    -0.360 N
ATOM      9  H3  UNL     1      65.639   6.413  83.968  1.00  0.00     0.162 HD
BRANCH   8  10
HETATM   10  C7  UNL     1      64.321   5.099  84.820  1.00  0.00     0.151 C
HETATM   11  C8  UNL     1      64.915   5.283  86.215  1.00  0.00     0.092 C
HETATM   12  C9  UNL     1      65.667   4.141  86.636  1.00  0.00     0.031 C
HETATM   13  N4  UNL     1      66.638   4.134  87.521  1.00  0.00    -0.276 N
HETATM   14  C10 UNL     1      65.275   2.853  85.981  1.00  0.00     0.151 C
ATOM     15  H4  UNL     1      67.100   3.252  87.738  1.00  0.00     0.193 HD
HETATM   16  S1  UNL     1      65.128   3.511  84.268  1.00  0.00    -0.128 SA
BRANCH  13  17
HETATM   17  O6  UNL     1      67.048   5.267  88.160  1.00  0.00    -0.290 OA
ATOM     18  H6  UNL     1      66.885   5.417  89.083  1.00  0.00     0.244 HD
ENDBRANCH  13  17
BRANCH  14  19
HETATM   19  C11 UNL     1      66.309   1.796  86.074  1.00  0.00     0.273 C
BRANCH  19  20
HETATM   20  O7  UNL     1      66.503   1.319  87.353  1.00  0.00    -0.370 OA
ATOM     21  H7  UNL     1      65.697   1.102  87.807  1.00  0.00     0.212 HD
ENDBRANCH  19  20
BRANCH  19  22
HETATM   22  O8  UNL     1      67.486   2.303  85.511  1.00  0.00    -0.370 OA
ATOM     23  H8  UNL     1      67.309   2.491  84.597  1.00  0.00     0.212 HD
ENDBRANCH  19  22
ENDBRANCH  14  19
ENDBRANCH   8  10
ENDBRANCH   4   8
BRANCH   3  24
HETATM   24  C5  UNL     1      62.453   5.113  82.182  1.00  0.00     0.294 C
BRANCH  24  25
HETATM   25  O4  UNL     1      61.269   5.209  82.972  1.00  0.00    -0.367 OA
ATOM     26  H4  UNL     1      61.272   4.431  83.519  1.00  0.00     0.213 HD
ENDBRANCH  24  25
BRANCH  24  27
HETATM   27  O5  UNL     1      62.015   4.619  80.969  1.00  0.00    -0.367 OA
ATOM     28  H5  UNL     1      61.385   3.912  81.046  1.00  0.00     0.213 HD
ENDBRANCH  24  27
ENDBRANCH   3  24
BRANCH   5  29
HETATM   29  N6  UNL     1      65.104   8.770  83.962  1.00  0.00    -0.334 N
ATOM     30  H62 UNL     1      64.787   9.544  84.547  1.00  0.00     0.177 HD
ATOM     31  H61 UNL     1      66.046   8.390  84.055  1.00  0.00     0.177 HD
ENDBRANCH   5  29
BRANCH   2  32
HETATM   32  N2  UNL     1      61.550   6.874  80.109  1.00  0.00    -0.114 N
HETATM   33  O2  UNL     1      61.921   6.462  78.970  1.00  0.00    -0.532 OA
HETATM   34  O3  UNL     1      60.194   6.892  80.445  1.00  0.00    -0.532 OA
ENDBRANCH   2  32
BRANCH   1  35
HETATM   35  C1  UNL     1      62.388   9.635  80.146  1.00  0.00     0.273 C
HETATM   36  N1  UNL     1      63.339  10.472  79.454  1.00  0.00    -0.057 NA
HETATM   37  O1  UNL     1      61.194   9.838  79.829  1.00  0.00    -0.271 OA
ENDBRANCH   1  35
TORSDOF 12
ENDMDL