MODEL 3
REMARK VINA RESULT: -9.242444059      4.207      9.037
REMARK  8 active torsions:
REMARK  status: ('A' for Active; 'I' for Inactive)
REMARK    1  A    between atoms: C3_4  and  C4_5
REMARK    2  A    between atoms: N2_10  and  C6_11
REMARK    3  A    between atoms: C6_11  and  C7_12
REMARK    4  A    between atoms: C7_12  and  S1_13
REMARK    5  A    between atoms: S1_13  and  S2_14
REMARK    6  A    between atoms: S2_14  and  C8_15
REMARK    7  A    between atoms: C9_18  and  N4_19
REMARK    8  A    between atoms: N4_19  and  C10_20
ROOT
HETATM    1  C8  UNL     1      63.991   8.269  79.433  1.00  0.00     0.158 A
HETATM    2  N3  UNL     1      63.951   7.211  78.631  1.00  0.00    -0.309 N
ATOM      3  H3  UNL     1      63.350   6.433  78.903  1.00  0.00     0.170 HD
HETATM    4  C9  UNL     1      64.663   7.091  77.460  1.00  0.00     0.212 A
HETATM    5  C11 UNL     1      65.477   8.186  77.127  1.00  0.00     0.145 A
HETATM    6  N9  UNL     1      66.258   8.187  75.952  1.00  0.00    -0.094 NA
HETATM    7  C12 UNL     1      65.509   9.265  77.957  1.00  0.00     0.147 A
HETATM    8  N10 UNL     1      66.328  10.381  77.631  1.00  0.00    -0.080 NA
HETATM    9  N11 UNL     1      64.780   9.297  79.080  1.00  0.00    -0.323 N
ATOM     10  H11 UNL     1      64.825  10.120  79.681  1.00  0.00     0.169 HD
ENDROOT
BRANCH   1  11
HETATM   11  S2  UNL     1      63.018   8.329  80.947  1.00  0.00    -0.021 SA
BRANCH  11  12
HETATM   12  S1  UNL     1      62.801   6.398  81.782  1.00  0.00    -0.088 SA
BRANCH  12  13
HETATM   13  C7  UNL     1      63.807   6.112  83.215  1.00  0.00     0.108 C
BRANCH  13  14
HETATM   14  C6  UNL     1      63.588   4.879  83.993  1.00  0.00     0.163 C
BRANCH  14  15
HETATM   15  N2  UNL     1      64.508   4.648  85.071  1.00  0.00    -0.255 N
HETATM   16  C5  UNL     1      65.110   3.447  85.261  1.00  0.00     0.279 A
HETATM   17  C3  UNL     1      65.953   3.154  86.301  1.00  0.00     0.113 A
HETATM   18  O3  UNL     1      64.871   2.550  84.421  1.00  0.00    -0.265 OA
HETATM   19  C2  UNL     1      66.196   4.178  87.217  1.00  0.00     0.070 A
HETATM   20  C1  UNL     1      65.590   5.401  87.034  1.00  0.00     0.132 A
HETATM   21  N1  UNL     1      65.858   6.423  87.985  1.00  0.00    -0.081 NA
HETATM   22  N12 UNL     1      64.781   5.586  85.980  1.00  0.00    -0.283 N
ATOM     23  H12 UNL     1      64.346   6.503  85.867  1.00  0.00     0.188 HD
BRANCH  17  24
HETATM   24  C4  UNL     1      66.586   1.864  86.484  1.00  0.00     0.215 C
HETATM   25  O1  UNL     1      66.068   1.034  87.257  1.00  0.00    -0.644 OA
HETATM   26  O2  UNL     1      67.746   1.564  85.808  1.00  0.00    -0.644 OA
ENDBRANCH  17  24
ENDBRANCH  14  15
ENDBRANCH  13  14
ENDBRANCH  12  13
ENDBRANCH  11  12
ENDBRANCH   1  11
BRANCH   4  27
HETATM   27  N4  UNL     1      64.632   6.156  76.736  1.00  0.00    -0.348 NA
BRANCH  27  28
HETATM   28  C10 UNL     1      64.580   5.124  75.917  1.00  0.00     0.287 C
HETATM   29  N5  UNL     1      64.653   5.093  74.576  1.00  0.00    -0.244 N
HETATM   30  N6  UNL     1      64.548   3.768  74.192  1.00  0.00    -0.005 NA
ATOM     31  H5  UNL     1      64.765   5.896  73.957  1.00  0.00     0.188 HD
HETATM   32  N7  UNL     1      63.931   3.054  75.218  1.00  0.00    -0.005 NA
HETATM   33  N8  UNL     1      64.428   3.731  76.329  1.00  0.00    -0.244 N
ATOM     34  H8  UNL     1      64.643   3.335  77.244  1.00  0.00     0.188 HD
ENDBRANCH  27  28
ENDBRANCH   4  27
TORSDOF 8
ENDMDL