MODEL 1
REMARK VINA RESULT: -8.489098449      0.000      0.000
REMARK  8 active torsions:
REMARK  status: ('A' for Active; 'I' for Inactive)
REMARK    1  A    between atoms: C2_3  and  C3_5
REMARK    2  A    between atoms: C4_6  and  N2_7
REMARK    3  A    between atoms: N2_7  and  C5_9
REMARK    4  A    between atoms: C5_9  and  O2_11
REMARK    5  A    between atoms: N4_18  and  N5_19
REMARK    6  A    between atoms: N5_19  and  C10_21
REMARK    7  A    between atoms: C15_32  and  C16_33
REMARK    8  A    between atoms: C16_33  and  O4_35
ROOT
HETATM    1  C1  UNL     1      65.520  -0.701  88.096  1.00  0.00     0.233 C
HETATM    2  N1  UNL     1      65.744   0.345  87.321  1.00  0.00    -0.390 NA
HETATM    3  C2  UNL     1      65.982   1.442  86.510  1.00  0.00     0.345 C
HETATM    4  O1  UNL     1      66.940   2.237  86.511  1.00  0.00    -0.249 OA
ENDROOT
BRANCH   3   5
HETATM    5  C3  UNL     1      64.945   1.744  85.466  1.00  0.00     0.167 A
HETATM    6  C4  UNL     1      64.380   0.833  84.610  1.00  0.00     0.093 A
HETATM    7  C7  UNL     1      63.580   1.562  83.759  1.00  0.00     0.109 A
HETATM    8  N3  UNL     1      62.801   1.093  82.701  1.00  0.00    -0.097 NA
HETATM    9  C8  UNL     1      63.685   2.896  84.135  1.00  0.00     0.153 A
HETATM   10  C9  UNL     1      63.129   4.045  83.623  1.00  0.00     0.299 A
HETATM   11  N12 UNL     1      64.522   2.987  85.177  1.00  0.00    -0.238 N
HETATM   12  O3  UNL     1      62.347   3.909  82.639  1.00  0.00    -0.263 OA
HETATM   13  N4  UNL     1      63.377   5.310  84.116  1.00  0.00    -0.195 N
HETATM   14  C15 UNL     1      64.207   5.348  85.149  1.00  0.00     0.194 A
HETATM   15  N11 UNL     1      64.757   4.182  85.650  1.00  0.00    -0.273 N
ATOM     16  H11 UNL     1      65.391   4.261  86.444  1.00  0.00     0.189 HD
BRANCH   6  17
HETATM   17  N2  UNL     1      64.548  -0.592  84.622  1.00  0.00    -0.360 N
ATOM     18  H2  UNL     1      65.485  -0.950  84.435  1.00  0.00     0.162 HD
BRANCH  17  19
HETATM   19  C5  UNL     1      63.532  -1.548  84.868  1.00  0.00     0.213 C
HETATM   20  C6  UNL     1      62.515  -1.233  85.899  1.00  0.00     0.063 C
BRANCH  19  21
HETATM   21  O2  UNL     1      62.839  -1.910  83.702  1.00  0.00    -0.377 OA
ATOM     22  H2  UNL     1      62.025  -2.363  83.887  1.00  0.00     0.212 HD
ENDBRANCH  19  21
ENDBRANCH  17  19
ENDBRANCH   6  17
BRANCH  13  23
HETATM   23  N5  UNL     1      62.767   6.337  83.451  1.00  0.00    -0.271 N
ATOM     24  H5  UNL     1      61.760   6.172  83.436  1.00  0.00     0.189 HD
BRANCH  23  25
HETATM   25  C10 UNL     1      63.034   7.505  82.802  1.00  0.00     0.160 A
HETATM   26  N6  UNL     1      63.101   8.747  83.353  1.00  0.00    -0.282 N
HETATM   27  N7  UNL     1      63.454   9.829  82.721  1.00  0.00    -0.289 N
ATOM     28  H6  UNL     1      62.856   8.838  84.339  1.00  0.00     0.188 HD
HETATM   29  C11 UNL     1      63.787   9.805  81.445  1.00  0.00     0.130 A
ATOM     30  H7  UNL     1      63.474  10.715  83.224  1.00  0.00     0.188 HD
HETATM   31  C12 UNL     1      64.179  11.040  80.774  1.00  0.00     0.119 C
HETATM   32  C13 UNL     1      63.763   8.611  80.760  1.00  0.00     0.073 A
HETATM   33  N8  UNL     1      64.472  12.015  80.225  1.00  0.00    -0.190 NA
HETATM   34  C14 UNL     1      63.389   7.479  81.441  1.00  0.00     0.096 A
HETATM   35  N9  UNL     1      63.356   6.230  80.795  1.00  0.00    -0.098 NA
ENDBRANCH  23  25
ENDBRANCH  13  23
BRANCH  14  36
HETATM   36  C16 UNL     1      64.580   6.604  85.880  1.00  0.00     0.197 C
HETATM   37  N10 UNL     1      65.338   6.457  87.052  1.00  0.00    -0.071 NA
BRANCH  36  38
HETATM   38  O4  UNL     1      63.540   7.541  85.892  1.00  0.00    -0.346 OA
ATOM     39  H4  UNL     1      63.053   7.528  86.708  1.00  0.00     0.219 HD
ENDBRANCH  36  38
ENDBRANCH  14  36
ENDBRANCH   3   5
TORSDOF 7
ENDMDL