MODEL 4
REMARK VINA RESULT: -8.850026027      2.474      8.248
REMARK  7 active torsions:
REMARK  status: ('A' for Active; 'I' for Inactive)
REMARK    1  A    between atoms: N1_2  and  C2_4
REMARK    2  A    between atoms: N7_19  and  C6_20
REMARK    3  A    between atoms: C7_22  and  C8_23
REMARK    4  A    between atoms: C8_23  and  O2_24
REMARK    5  A    between atoms: O2_24  and  C9_25
REMARK       I    between atoms: C9_25  and  N8_27
REMARK    6  A    between atoms: N8_27  and  C10_28
REMARK    7  A    between atoms: C10_28  and  C11_29
REMARK       I    between atoms: N14_38  and  C12_39
ROOT
HETATM    1  C6  UNL     1      62.079   7.743  81.672  1.00  0.00     0.387 C
HETATM    2  O1  UNL     1      62.529   9.070  81.190  1.00  0.00    -0.289 OA
HETATM    3  C7  UNL     1      63.813   8.774  80.687  1.00  0.00     0.161 C
HETATM    4  N13 UNL     1      63.810   7.524  80.275  1.00  0.00    -0.273 N
ATOM      5  H13 UNL     1      64.594   7.019  79.861  1.00  0.00     0.189 HD
HETATM    6  N14 UNL     1      62.505   7.010  80.516  1.00  0.00    -0.212 N
HETATM    7  C12 UNL     1      61.798   6.043  79.759  1.00  0.00     0.206 C
HETATM    8  N15 UNL     1      60.700   5.544  80.185  1.00  0.00    -0.372 N
ATOM      9 1H15 UNL     1      60.191   4.848  79.639  1.00  0.00     0.158 HD
ATOM     10 2H15 UNL     1      60.339   5.854  81.086  1.00  0.00     0.158 HD
HETATM   11  N16 UNL     1      62.301   5.611  78.501  1.00  0.00    -0.062 NA
ENDROOT
BRANCH   1  12
HETATM   12  N7  UNL     1      62.848   7.582  82.879  1.00  0.00    -0.209 N
HETATM   13  C4  UNL     1      63.371   6.517  83.479  1.00  0.00     0.175 A
HETATM   14  N4  UNL     1      63.394   5.224  83.198  1.00  0.00    -0.173 N
HETATM   15  C5  UNL     1      64.031   6.895  84.651  1.00  0.00     0.140 A
HETATM   16  C3  UNL     1      64.003   4.299  83.971  1.00  0.00     0.679 A
ATOM     17  H4  UNL     1      62.925   4.907  82.349  1.00  0.00     0.186 HD
HETATM   18  N2  UNL     1      64.648   4.669  85.117  1.00  0.00    -0.175 N
HETATM   19  N3  UNL     1      64.023   3.048  83.697  1.00  0.00    -0.234 N
HETATM   20  C2  UNL     1      64.667   5.965  85.465  1.00  0.00     0.148 A
ATOM     21  H2  UNL     1      65.108   3.970  85.700  1.00  0.00     0.186 HD
ATOM     22  H32 UNL     1      64.483   2.349  84.281  1.00  0.00     0.174 HD
ATOM     23  H31 UNL     1      63.541   2.772  82.841  1.00  0.00     0.174 HD
HETATM   24  N5  UNL     1      63.875   8.219  84.713  1.00  0.00    -0.279 N
HETATM   25  N6  UNL     1      63.195   8.614  83.697  1.00  0.00    -0.234 N
ATOM     26  H5  UNL     1      64.237   8.821  85.453  1.00  0.00     0.189 HD
ATOM     27  H6  UNL     1      62.945   9.588  83.523  1.00  0.00     0.208 HD
BRANCH  20  28
HETATM   28  N1  UNL     1      65.260   6.326  86.538  1.00  0.00    -0.378 N
HETATM   29  C1  UNL     1      65.975   5.474  87.436  1.00  0.00     0.147 C
ATOM     30  H1  UNL     1      65.219   7.317  86.776  1.00  0.00     0.160 HD
ENDBRANCH  20  28
ENDBRANCH   1  12
BRANCH   3  31
HETATM   31  C8  UNL     1      65.008   9.635  80.598  1.00  0.00     0.267 C
BRANCH  31  32
HETATM   32  O2  UNL     1      65.034  10.451  79.479  1.00  0.00    -0.284 OA
BRANCH  32  33
HETATM   33  C9  UNL     1      65.762  10.188  78.291  1.00  0.00     0.440 C
HETATM   34  O3  UNL     1      66.548  11.093  77.986  1.00  0.00    -0.221 OA
HETATM   35  N8  UNL     1      65.471   8.979  77.690  1.00  0.00    -0.355 NA
BRANCH  35  36
HETATM   36  C10 UNL     1      65.187   7.799  77.103  1.00  0.00     0.239 C
BRANCH  36  37
HETATM   37  C11 UNL     1      66.071   7.394  75.966  1.00  0.00     0.160 C
HETATM   38  N9  UNL     1      67.287   7.721  75.780  1.00  0.00    -0.268 N
HETATM   39  N10 UNL     1      67.723   7.118  74.588  1.00  0.00    -0.007 NA
ATOM     40  H9  UNL     1      67.846   8.318  76.389  1.00  0.00     0.185 HD
HETATM   41  N11 UNL     1      66.588   6.738  73.833  1.00  0.00    -0.007 NA
HETATM   42  N12 UNL     1      65.664   6.566  74.902  1.00  0.00    -0.268 N
ATOM     43  H12 UNL     1      64.850   5.952  74.898  1.00  0.00     0.185 HD
ENDBRANCH  36  37
ENDBRANCH  35  36
ENDBRANCH  32  33
ENDBRANCH  31  32
ENDBRANCH   3  31
TORSDOF 7
ENDMDL