MODEL 2
REMARK VINA RESULT: -8.368826525      1.198      1.319
REMARK  10 active torsions:
REMARK  status: ('A' for Active; 'I' for Inactive)
REMARK    1  A    between atoms: C1_2  and  O2_7
REMARK    2  A    between atoms: N2_3  and  O1_5
REMARK    3  A    between atoms: O2_7  and  N3_8
REMARK       I    between atoms: N3_8  and  C2_10
REMARK    4  A    between atoms: C2_10  and  C3_12
REMARK    5  A    between atoms: N6_17  and  C4_18
REMARK    6  A    between atoms: C5_20  and  C6_21
REMARK    7  A    between atoms: C7_24  and  O6_25
REMARK    8  A    between atoms: C8_27  and  N7_28
REMARK    9  A    between atoms: N7_28  and  N8_30
REMARK   10  A    between atoms: N8_30  and  C9_32
ROOT
HETATM    1  C4  UNL     1      64.468   2.457  84.305  1.00  0.00     0.149 A
HETATM    2  S1  UNL     1      64.084   0.802  84.150  1.00  0.00    -0.057 SA
HETATM    3  C5  UNL     1      65.245   0.146  85.192  1.00  0.00     0.119 A
HETATM    4  C7  UNL     1      65.922   1.251  85.648  1.00  0.00     0.120 A
HETATM    5  C8  UNL     1      65.515   2.458  85.186  1.00  0.00     0.121 A
ENDROOT
BRANCH   1   6
HETATM    6  N6  UNL     1      63.810   3.539  83.641  1.00  0.00    -0.171 N
HETATM    7  N5  UNL     1      62.563   3.751  83.438  1.00  0.00    -0.219 N
HETATM    8  N4  UNL     1      62.358   4.908  82.771  1.00  0.00    -0.264 N
ATOM      9  H5  UNL     1      61.818   3.125  83.741  1.00  0.00     0.210 HD
HETATM   10  C3  UNL     1      63.596   5.442  82.557  1.00  0.00     0.209 A
ATOM     11  H4  UNL     1      61.461   5.302  82.486  1.00  0.00     0.190 HD
HETATM   12  N13 UNL     1      64.453   4.582  83.101  1.00  0.00    -0.256 N
ATOM     13  H13 UNL     1      65.466   4.702  83.105  1.00  0.00     0.191 HD
BRANCH  10  14
HETATM   14  C2  UNL     1      63.904   6.700  81.868  1.00  0.00     0.312 C
HETATM   15  N3  UNL     1      64.438   7.763  82.661  1.00  0.00    -0.219 N
ATOM     16  H3  UNL     1      64.586   7.623  83.661  1.00  0.00     0.198 HD
HETATM   17  O3  UNL     1      63.707   6.836  80.638  1.00  0.00    -0.262 OA
BRANCH  15  18
HETATM   18  O2  UNL     1      64.753   8.965  82.093  1.00  0.00    -0.199 OA
BRANCH  18  19
HETATM   19  C1  UNL     1      63.807  10.009  82.109  1.00  0.00     0.275 C
HETATM   20  N1  UNL     1      64.057  11.108  81.271  1.00  0.00    -0.053 NA
HETATM   21  N2  UNL     1      62.793   9.885  82.881  1.00  0.00    -0.234 N
ATOM     22  H2  UNL     1      62.721   9.038  83.444  1.00  0.00     0.197 HD
BRANCH  21  23
HETATM   23  O1  UNL     1      61.795  10.824  82.998  1.00  0.00    -0.287 OA
ATOM     24  H1  UNL     1      60.924  10.637  83.329  1.00  0.00     0.244 HD
ENDBRANCH  21  23
ENDBRANCH  18  19
ENDBRANCH  15  18
ENDBRANCH  10  14
ENDBRANCH   1   6
BRANCH   5  25
HETATM   25  N7  UNL     1      66.108   3.738  85.557  1.00  0.00    -0.281 N
ATOM     26  H7  UNL     1      66.850   4.115  84.967  1.00  0.00     0.187 HD
BRANCH  25  27
HETATM   27  N8  UNL     1      65.719   4.470  86.669  1.00  0.00    -0.129 N
ATOM     28  H8  UNL     1      66.145   4.321  87.584  1.00  0.00     0.205 HD
BRANCH  27  29
HETATM   29  C9  UNL     1      64.773   5.366  86.487  1.00  0.00     0.722 A
HETATM   30  N9  UNL     1      63.490   5.216  86.842  1.00  0.00    -0.115 N
HETATM   31  N10 UNL     1      62.822   6.331  86.487  1.00  0.00     0.006 NA
ATOM     32  H9  UNL     1      63.088   4.399  87.303  1.00  0.00     0.202 HD
HETATM   33  N11 UNL     1      63.695   7.173  85.911  1.00  0.00     0.006 NA
HETATM   34  N12 UNL     1      64.873   6.574  85.918  1.00  0.00    -0.115 N
ATOM     35  H12 UNL     1      65.733   6.975  85.545  1.00  0.00     0.202 HD
ENDBRANCH  27  29
ENDBRANCH  25  27
ENDBRANCH   5  25
BRANCH   3  36
HETATM   36  C6  UNL     1      65.521  -1.270  85.560  1.00  0.00     0.219 C
HETATM   37  O4  UNL     1      65.410  -2.058  84.571  1.00  0.00    -0.643 OA
HETATM   38  O5  UNL     1      65.847  -1.600  86.832  1.00  0.00    -0.643 OA
ENDBRANCH   3  36
BRANCH   4  39
HETATM   39  O6  UNL     1      67.010   1.135  86.570  1.00  0.00    -0.357 OA
ATOM     40  H6  UNL     1      67.497   1.896  86.863  1.00  0.00     0.218 HD
ENDBRANCH   4  39
TORSDOF 10
ENDMDL