MODEL 1
REMARK VINA RESULT: -8.404978825      0.000      0.000
REMARK  10 active torsions:
REMARK  status: ('A' for Active; 'I' for Inactive)
REMARK    1  A    between atoms: N1_2  and  C3_5
REMARK    2  A    between atoms: C4_8  and  N4_9
REMARK    3  A    between atoms: N4_9  and  C5_11
REMARK    4  A    between atoms: C8_18  and  N7_19
REMARK    5  A    between atoms: N12_32  and  O1_34
REMARK    6  A    between atoms: O1_34  and  C11_35
REMARK    7  A    between atoms: C11_35  and  C12_36
REMARK    8  A    between atoms: C12_36  and  O2_37
REMARK    9  A    between atoms: C12_36  and  C13_39
REMARK   10  A    between atoms: C13_39  and  O3_40
ROOT
HETATM    1  C1  UNL     1      58.995   3.619  80.528  1.00  0.00     0.188 C
HETATM    2  N1  UNL     1      59.537   4.850  80.047  1.00  0.00    -0.122 N
HETATM    3  C2  UNL     1      58.681   5.748  79.394  1.00  0.00     0.198 C
HETATM    4  N2  UNL     1      57.973   6.483  78.837  1.00  0.00    -0.171 NA
ENDROOT
BRANCH   2   5
HETATM    5  C3  UNL     1      60.925   5.219  80.199  1.00  0.00     0.689 C
HETATM    6  N3  UNL     1      61.396   5.418  81.381  1.00  0.00    -0.198 N
HETATM    7  C4  UNL     1      62.790   5.787  81.505  1.00  0.00     0.266 C
ATOM      8  H3  UNL     1      60.803   5.319  82.205  1.00  0.00     0.180 HD
HETATM    9  C10 UNL     1      63.129   6.724  80.420  1.00  0.00     0.071 C
HETATM   10  N12 UNL     1      63.673   7.879  80.581  1.00  0.00    -0.269 N
HETATM   11  C14 UNL     1      62.824   6.298  79.032  1.00  0.00     0.199 C
ATOM     12  H12 UNL     1      63.890   8.176  81.532  1.00  0.00     0.194 HD
HETATM   13  N13 UNL     1      61.707   5.344  79.019  1.00  0.00    -0.216 N
HETATM   14  C15 UNL     1      61.430   4.571  77.840  1.00  0.00     0.169 C
BRANCH   7  15
HETATM   15  N4  UNL     1      63.122   6.261  82.821  1.00  0.00    -0.199 N
ATOM     16  H4  UNL     1      62.787   7.182  83.106  1.00  0.00     0.180 HD
BRANCH  15  17
HETATM   17  C5  UNL     1      63.900   5.500  83.747  1.00  0.00     0.682 A
HETATM   18  N5  UNL     1      64.284   4.221  83.640  1.00  0.00    -0.174 N
HETATM   19  C6  UNL     1      64.999   3.820  84.691  1.00  0.00     0.149 A
ATOM     20  H5  UNL     1      64.056   3.623  82.845  1.00  0.00     0.186 HD
HETATM   21  C7  UNL     1      65.075   4.915  85.523  1.00  0.00     0.140 A
HETATM   22  N11 UNL     1      65.568   2.514  84.904  1.00  0.00    -0.357 N
HETATM   23  N6  UNL     1      64.405   5.922  84.938  1.00  0.00    -0.184 N
HETATM   24  C8  UNL     1      65.757   4.984  86.809  1.00  0.00     0.165 C
ATOM     25  H6  UNL     1      64.294   6.859  85.326  1.00  0.00     0.184 HD
HETATM   26  N9  UNL     1      66.519   4.097  87.378  1.00  0.00    -0.285 N
HETATM   27  N10 UNL     1      66.884   2.837  86.894  1.00  0.00    -0.317 N
ATOM     28  H9  UNL     1      66.898   4.353  88.290  1.00  0.00     0.188 HD
HETATM   29  C9  UNL     1      66.080   1.931  86.131  1.00  0.00     0.262 C
ATOM     30  H10 UNL     1      67.832   2.528  87.111  1.00  0.00     0.182 HD
ATOM     31  H11 UNL     1      65.618   1.916  84.079  1.00  0.00     0.162 HD
BRANCH  24  32
HETATM   32  N7  UNL     1      65.585   6.163  87.566  1.00  0.00    -0.289 N
HETATM   33  N8  UNL     1      66.553   6.538  88.302  1.00  0.00    -0.344 N
ATOM     34  H82 UNL     1      67.415   5.995  88.333  1.00  0.00     0.176 HD
ATOM     35  H81 UNL     1      66.429   7.390  88.849  1.00  0.00     0.176 HD
ATOM     36  H7  UNL     1      64.716   6.696  87.524  1.00  0.00     0.188 HD
ENDBRANCH  24  32
ENDBRANCH  15  17
ENDBRANCH   7  15
BRANCH  10  37
HETATM   37  O1  UNL     1      63.975   8.724  79.572  1.00  0.00    -0.278 OA
BRANCH  37  38
HETATM   38  C11 UNL     1      64.729   9.896  79.641  1.00  0.00     0.235 C
BRANCH  38  39
HETATM   39  C12 UNL     1      63.920  11.062  80.144  1.00  0.00     0.167 C
BRANCH  39  40
HETATM   40  O2  UNL     1      64.707  12.219  80.064  1.00  0.00    -0.391 OA
ATOM     41  H2  UNL     1      65.602  11.991  80.288  1.00  0.00     0.210 HD
ENDBRANCH  39  40
BRANCH  39  42
HETATM   42  C13 UNL     1      63.580  10.896  81.619  1.00  0.00     0.198 C
BRANCH  42  43
HETATM   43  O3  UNL     1      64.580  10.188  82.285  1.00  0.00    -0.398 OA
ATOM     44  H3  UNL     1      64.244   9.369  82.630  1.00  0.00     0.209 HD
ENDBRANCH  42  43
ENDBRANCH  39  42
ENDBRANCH  38  39
ENDBRANCH  37  38
ENDBRANCH  10  37
ENDBRANCH   2   5
TORSDOF 10
ENDMDL