MODEL 2
REMARK VINA RESULT: -9.122084022      2.267      3.775
REMARK  9 active torsions:
REMARK  status: ('A' for Active; 'I' for Inactive)
REMARK       I    between atoms: C2_2  and  N1_4
REMARK    1  A    between atoms: N1_4  and  C3_6
REMARK    2  A    between atoms: C5_8  and  N2_9
REMARK    3  A    between atoms: N2_9  and  C6_11
REMARK    4  A    between atoms: C6_11  and  N3_12
REMARK    5  A    between atoms: C6_11  and  C7_16
REMARK    6  A    between atoms: C8_19  and  C9_20
REMARK       I    between atoms: N6_24  and  C11_26
REMARK       I    between atoms: C11_26  and  N7_27
REMARK       I    between atoms: C11_26  and  N8_31
REMARK    7  A    between atoms: N12_42  and  C13_43
REMARK    8  A    between atoms: C13_43  and  O3_44
REMARK    9  A    between atoms: C14_46  and  O4_47
ROOT
HETATM    1  C7  UNL     1      64.205   6.014  84.768  1.00  0.00     0.148 A
HETATM    2  N4  UNL     1      64.370   4.782  84.254  1.00  0.00    -0.323 N
ATOM      3  H4  UNL     1      64.000   4.474  83.354  1.00  0.00     0.169 HD
HETATM    4  C8  UNL     1      65.087   4.013  85.084  1.00  0.00     0.170 A
HETATM    5  N10 UNL     1      65.379   4.785  86.145  1.00  0.00    -0.276 N
HETATM    6  C12 UNL     1      66.148   4.376  87.314  1.00  0.00     0.179 C
HETATM    7  N11 UNL     1      64.842   6.001  85.953  1.00  0.00    -0.282 N
ATOM      8  H11 UNL     1      64.907   6.787  86.601  1.00  0.00     0.188 HD
ENDROOT
BRANCH   1   9
HETATM    9  C6  UNL     1      63.475   7.170  84.169  1.00  0.00     0.352 C
BRANCH   9  10
HETATM   10  N2  UNL     1      62.875   6.845  82.914  1.00  0.00    -0.343 N
ATOM     11  H2  UNL     1      62.316   5.996  82.824  1.00  0.00     0.163 HD
BRANCH  10  12
HETATM   12  C5  UNL     1      63.051   7.693  81.793  1.00  0.00     0.111 A
HETATM   13  C4  UNL     1      64.029   7.557  80.801  1.00  0.00     0.082 A
HETATM   14  C3  UNL     1      63.912   8.551  79.861  1.00  0.00     0.090 A
HETATM   15  C14 UNL     1      62.822   9.308  80.310  1.00  0.00     0.173 A
HETATM   16  N12 UNL     1      62.356   8.770  81.435  1.00  0.00    -0.290 N
BRANCH  14  17
HETATM   17  N1  UNL     1      64.669   8.803  78.705  1.00  0.00    -0.324 N
HETATM   18  C2  UNL     1      64.885   7.879  77.686  1.00  0.00     0.218 C
HETATM   19  C1  UNL     1      65.710   8.215  76.469  1.00  0.00     0.117 C
HETATM   20  O1  UNL     1      64.392   6.727  77.753  1.00  0.00    -0.274 OA
ATOM     21  H1  UNL     1      65.090   9.727  78.605  1.00  0.00     0.169 HD
ENDBRANCH  14  17
BRANCH  15  22
HETATM   22  O4  UNL     1      62.344  10.428  79.651  1.00  0.00    -0.344 OA
ATOM     23  H4  UNL     1      61.759  11.063  80.049  1.00  0.00     0.219 HD
ENDBRANCH  15  22
BRANCH  16  24
HETATM   24  C13 UNL     1      61.204   9.350  82.149  1.00  0.00     0.299 C
BRANCH  24  25
HETATM   25  O3  UNL     1      61.704   9.995  83.261  1.00  0.00    -0.382 OA
ATOM     26  H3  UNL     1      61.525   9.436  84.008  1.00  0.00     0.211 HD
ENDBRANCH  24  25
ENDBRANCH  16  24
ENDBRANCH  10  12
ENDBRANCH   9  10
BRANCH   9  27
HETATM   27  N3  UNL     1      64.313   8.322  84.053  1.00  0.00    -0.051 N
ATOM     28  H33 UNL     1      64.966   8.235  83.274  1.00  0.00     0.277 HD
ATOM     29  H32 UNL     1      63.791   9.135  83.726  1.00  0.00     0.277 HD
ATOM     30  H31 UNL     1      64.796   8.512  84.931  1.00  0.00     0.277 HD
ENDBRANCH   9  27
ENDBRANCH   1   9
BRANCH   4  31
HETATM   31  C9  UNL     1      65.500   2.622  84.928  1.00  0.00     0.175 A
HETATM   32  N5  UNL     1      64.919   1.512  85.395  1.00  0.00    -0.302 N
HETATM   33  C10 UNL     1      65.626   0.440  85.022  1.00  0.00     0.247 A
ATOM     34  H5  UNL     1      64.066   1.486  85.953  1.00  0.00     0.171 HD
HETATM   35  N6  UNL     1      65.423  -0.812  85.256  1.00  0.00    -0.305 N
HETATM   36  O2  UNL     1      66.637   0.882  84.328  1.00  0.00    -0.199 OA
HETATM   37  C11 UNL     1      64.301  -1.301  86.026  1.00  0.00     0.483 C
ATOM     38  H6  UNL     1      66.087  -1.490  84.881  1.00  0.00     0.166 HD
HETATM   39  N7  UNL     1      63.931  -0.294  86.976  1.00  0.00    -0.033 N
HETATM   40  N8  UNL     1      63.175  -1.643  85.182  1.00  0.00    -0.033 N
ATOM     41  H73 UNL     1      64.713  -0.004  87.564  1.00  0.00     0.278 HD
ATOM     42  H72 UNL     1      63.743   0.608  86.539  1.00  0.00     0.278 HD
ATOM     43  H71 UNL     1      63.140  -0.638  87.519  1.00  0.00     0.278 HD
ATOM     44  H83 UNL     1      62.905  -0.858  84.589  1.00  0.00     0.278 HD
ATOM     45  H82 UNL     1      63.444  -2.307  84.457  1.00  0.00     0.278 HD
ATOM     46  H81 UNL     1      62.384  -1.987  85.724  1.00  0.00     0.278 HD
HETATM   47  N9  UNL     1      66.591   2.178  84.253  1.00  0.00    -0.238 N
ATOM     48  H9  UNL     1      67.266   2.767  83.767  1.00  0.00     0.197 HD
ENDBRANCH   4  31
TORSDOF 9
ENDMDL