MODEL 3
REMARK VINA RESULT: -7.632973421      2.104      3.604
REMARK  12 active torsions:
REMARK  status: ('A' for Active; 'I' for Inactive)
REMARK    1  A    between atoms: O1_2  and  C2_3
REMARK    2  A    between atoms: C2_3  and  N1_5
REMARK    3  A    between atoms: C4_6  and  N2_7
REMARK    4  A    between atoms: N3_10  and  O2_11
REMARK    5  A    between atoms: C6_14  and  C7_15
REMARK       I    between atoms: C7_15  and  N4_17
REMARK    6  A    between atoms: N4_17  and  N5_19
REMARK    7  A    between atoms: C8_21  and  C9_22
REMARK    8  A    between atoms: C8_21  and  C11_32
REMARK    9  A    between atoms: C9_22  and  C10_23
REMARK   10  A    between atoms: C11_32  and  O4_33
REMARK   11  A    between atoms: C11_32  and  N10_35
REMARK   12  A    between atoms: N10_35  and  O5_37
ROOT
HETATM    1  C7  UNL     1      63.613   5.406  84.047  1.00  0.00     0.289 C
HETATM    2  O3  UNL     1      63.046   5.994  85.039  1.00  0.00    -0.264 OA
HETATM    3  N4  UNL     1      64.102   6.246  83.032  1.00  0.00    -0.264 N
ATOM      4  H4  UNL     1      64.575   5.840  82.224  1.00  0.00     0.190 HD
ENDROOT
BRANCH   1   5
HETATM    5  C6  UNL     1      63.723   3.959  84.034  1.00  0.00     0.152 A
HETATM    6  C5  UNL     1      64.550   3.260  84.870  1.00  0.00     0.159 A
HETATM    7  N3  UNL     1      65.488   3.574  85.750  1.00  0.00    -0.046 N
HETATM    8  C13 UNL     1      64.488   1.880  84.839  1.00  0.00     0.174 A
HETATM    9  C4  UNL     1      65.988   2.418  86.250  1.00  0.00     0.709 A
HETATM   10  N1  UNL     1      65.391   1.371  85.709  1.00  0.00    -0.137 N
HETATM   11  N13 UNL     1      63.654   1.207  84.021  1.00  0.00    -0.174 N
HETATM   12  C12 UNL     1      62.849   1.903  83.203  1.00  0.00     0.678 A
ATOM     13  H13 UNL     1      63.635   0.187  84.025  1.00  0.00     0.186 HD
HETATM   14  N11 UNL     1      62.893   3.236  83.218  1.00  0.00    -0.184 N
HETATM   15  N12 UNL     1      62.044   1.270  82.411  1.00  0.00    -0.234 N
ATOM     16  H11 UNL     1      62.274   3.745  82.587  1.00  0.00     0.184 HD
ATOM     17 2H12 UNL     1      61.433   1.799  81.788  1.00  0.00     0.174 HD
ATOM     18 1H12 UNL     1      62.011   0.250  82.399  1.00  0.00     0.174 HD
BRANCH   7  19
HETATM   19  O2  UNL     1      65.922   4.848  86.072  1.00  0.00    -0.269 OA
ATOM     20  H2  UNL     1      65.565   5.659  85.729  1.00  0.00     0.245 HD
ENDBRANCH   7  19
BRANCH   9  21
HETATM   21  N2  UNL     1      66.913   2.366  87.131  1.00  0.00    -0.232 N
ATOM     22  H22 UNL     1      67.865   2.700  86.974  1.00  0.00     0.174 HD
ATOM     23  H21 UNL     1      66.808   1.994  88.075  1.00  0.00     0.174 HD
ENDBRANCH   9  21
BRANCH  10  24
HETATM   24  C2  UNL     1      65.623  -0.059  85.960  1.00  0.00     0.243 C
HETATM   25  C3  UNL     1      64.789  -0.540  87.123  1.00  0.00     0.064 C
BRANCH  24  26
HETATM   26  O1  UNL     1      65.489  -0.818  84.832  1.00  0.00    -0.371 OA
HETATM   27  C1  UNL     1      64.961  -2.073  85.030  1.00  0.00     0.204 C
ENDBRANCH  24  26
ENDBRANCH  10  24
ENDBRANCH   1   5
BRANCH   3  28
HETATM   28  N5  UNL     1      63.947   7.612  83.118  1.00  0.00    -0.297 N
HETATM   29  C8  UNL     1      63.378   8.292  82.154  1.00  0.00     0.085 C
ATOM     30  H5  UNL     1      64.282   8.102  83.947  1.00  0.00     0.187 HD
BRANCH  29  31
HETATM   31  C9  UNL     1      62.920   7.540  80.995  1.00  0.00     0.142 C
BRANCH  31  32
HETATM   32  C10 UNL     1      63.727   7.830  79.784  1.00  0.00     0.118 A
HETATM   33  N6  UNL     1      64.421   9.002  79.569  1.00  0.00    -0.272 N
HETATM   34  N7  UNL     1      65.000   8.989  78.401  1.00  0.00    -0.227 N
ATOM     35  H6  UNL     1      64.474   9.774  80.233  1.00  0.00     0.190 HD
HETATM   36  N8  UNL     1      64.696   7.836  77.856  1.00  0.00    -0.227 N
ATOM     37  H7  UNL     1      65.573   9.727  77.993  1.00  0.00     0.210 HD
HETATM   38  N9  UNL     1      63.942   7.142  78.667  1.00  0.00    -0.272 N
ATOM     39  H8  UNL     1      65.002   7.527  76.933  1.00  0.00     0.210 HD
ATOM     40  H9  UNL     1      63.574   6.210  78.471  1.00  0.00     0.190 HD
ENDBRANCH  31  32
ENDBRANCH  29  31
BRANCH  29  41
HETATM   41  C11 UNL     1      63.182   9.703  82.350  1.00  0.00     0.184 C
BRANCH  41  42
HETATM   42  O4  UNL     1      64.294  10.584  82.077  1.00  0.00    -0.343 OA
ATOM     43  H4  UNL     1      65.022  10.239  81.573  1.00  0.00     0.219 HD
ENDBRANCH  41  42
BRANCH  41  44
HETATM   44  N10 UNL     1      62.143  10.258  82.726  1.00  0.00    -0.246 N
ATOM     45  H10 UNL     1      62.299  11.258  82.853  1.00  0.00     0.196 HD
BRANCH  44  46
HETATM   46  O5  UNL     1      60.913   9.950  83.008  1.00  0.00    -0.288 OA
ATOM     47  H5  UNL     1      60.377   9.767  83.770  1.00  0.00     0.244 HD
ENDBRANCH  44  46
ENDBRANCH  41  44
ENDBRANCH  29  41
ENDBRANCH   3  28
TORSDOF 12
ENDMDL