MODEL 5
REMARK VINA RESULT: -8.635553787      2.917      4.713
REMARK  19 active torsions:
REMARK  status: ('A' for Active; 'I' for Inactive)
REMARK    1  A    between atoms: O1_2  and  C2_3
REMARK    2  A    between atoms: C3_4  and  O2_5
REMARK    3  A    between atoms: C7_14  and  C8_15
REMARK       I    between atoms: C8_15  and  N3_17
REMARK    4  A    between atoms: N3_17  and  N4_18
REMARK    5  A    between atoms: N4_18  and  C9_19
REMARK    6  A    between atoms: C10_21  and  C11_22
REMARK    7  A    between atoms: C11_22  and  O5_23
REMARK    8  A    between atoms: C11_22  and  O6_25
REMARK    9  A    between atoms: C12_27  and  C13_28
REMARK   10  A    between atoms: C13_28  and  O7_29
REMARK   11  A    between atoms: C13_28  and  O8_31
REMARK   12  A    between atoms: C14_35  and  O9_36
REMARK   13  A    between atoms: O9_36  and  C15_37
REMARK   14  A    between atoms: C15_37  and  O10_38
REMARK   15  A    between atoms: C15_37  and  C16_40
REMARK   16  A    between atoms: C16_40  and  C17_42
REMARK   17  A    between atoms: C17_42  and  N6_43
REMARK   18  A    between atoms: C19_50  and  O12_51
REMARK   19  A    between atoms: O12_51  and  N8_52
ROOT
HETATM    1  C9  UNL     1      27.727   5.384  11.812  1.00  0.00     0.313 A
HETATM    2  O4  UNL     1      27.486   5.027  10.578  1.00  0.00    -0.274 OA
HETATM    3  C10 UNL     1      26.426   5.479   9.894  1.00  0.00     0.138 A
HETATM    4  C12 UNL     1      25.562   6.337  10.499  1.00  0.00     0.101 A
HETATM    5  N5  UNL     1      25.834   6.694  11.787  1.00  0.00    -0.329 N
ATOM      6  H5  UNL     1      25.192   7.338  12.248  1.00  0.00     0.168 HD
HETATM    7  C14 UNL     1      26.883   6.259  12.482  1.00  0.00     0.216 A
ENDROOT
BRANCH   1   8
HETATM    8  N4  UNL     1      28.758   4.901  12.348  1.00  0.00    -0.214 NA
BRANCH   8   9
HETATM    9  N3  UNL     1      29.575   4.336  12.817  1.00  0.00    -0.198 NA
HETATM   10  C8  UNL     1      30.661   3.550  13.493  1.00  0.00     0.395 C
HETATM   11  O3  UNL     1      30.515   2.924  14.509  1.00  0.00    -0.244 OA
BRANCH  10  12
HETATM   12  C7  UNL     1      31.940   3.622  12.757  1.00  0.00     0.208 A
HETATM   13  N2  UNL     1      32.112   4.607  11.846  1.00  0.00    -0.279 N
HETATM   14  N1  UNL     1      33.211   4.673  11.111  1.00  0.00    -0.296 N
ATOM     15  H2  UNL     1      31.384   5.310  11.724  1.00  0.00     0.189 HD
HETATM   16  C6  UNL     1      34.171   3.759  11.264  1.00  0.00     0.086 A
ATOM     17  H1  UNL     1      33.324   5.421  10.427  1.00  0.00     0.187 HD
HETATM   18  C4  UNL     1      35.284   3.850  10.465  1.00  0.00     0.004 A
HETATM   19  C18 UNL     1      34.052   2.725  12.179  1.00  0.00     0.102 A
HETATM   20  C3  UNL     1      36.273   2.900  10.586  1.00  0.00     0.110 A
HETATM   21  C5  UNL     1      35.405   5.003   9.509  1.00  0.00     0.054 C
HETATM   22  C2  UNL     1      36.157   1.858  11.502  1.00  0.00     0.140 A
HETATM   23  C19 UNL     1      35.030   1.770  12.314  1.00  0.00     0.163 A
HETATM   24  N7  UNL     1      32.899   2.701  12.915  1.00  0.00    -0.332 N
ATOM     25  H7  UNL     1      32.767   1.961  13.605  1.00  0.00     0.168 HD
BRANCH  20  26
HETATM   26  O2  UNL     1      37.386   2.979   9.795  1.00  0.00    -0.357 OA
ATOM     27  H2  UNL     1      37.738   2.188   9.406  1.00  0.00     0.217 HD
ENDBRANCH  20  26
BRANCH  22  28
HETATM   28  O1  UNL     1      37.135   0.914  11.618  1.00  0.00    -0.350 OA
HETATM   29  C1  UNL     1      38.243   1.059  12.462  1.00  0.00     0.210 C
ENDBRANCH  22  28
BRANCH  23  30
HETATM   30  O12 UNL     1      34.877   0.761  13.232  1.00  0.00    -0.240 OA
BRANCH  30  31
HETATM   31  N8  UNL     1      35.054  -0.538  12.911  1.00  0.00    -0.305 N
ATOM     32  H82 UNL     1      34.293  -1.019  12.429  1.00  0.00     0.184 HD
ATOM     33  H81 UNL     1      35.913  -1.041  13.133  1.00  0.00     0.184 HD
ENDBRANCH  30  31
ENDBRANCH  23  30
ENDBRANCH  10  12
ENDBRANCH   8   9
ENDBRANCH   1   8
BRANCH   7  34
HETATM   34  O9  UNL     1      27.180   6.604  13.783  1.00  0.00    -0.293 OA
BRANCH  34  35
HETATM   35  C15 UNL     1      26.492   6.202  14.941  1.00  0.00     0.338 C
BRANCH  35  36
HETATM   36  O10 UNL     1      26.591   7.114  15.949  1.00  0.00    -0.364 OA
ATOM     37  H10 UNL     1      27.433   7.078  16.389  1.00  0.00     0.213 HD
ENDBRANCH  35  36
BRANCH  35  38
HETATM   38  C16 UNL     1      26.843   4.792  15.313  1.00  0.00     0.206 C
HETATM   39  O11 UNL     1      26.104   3.932  14.845  1.00  0.00    -0.291 OA
BRANCH  38  40
HETATM   40  C17 UNL     1      27.968   4.385  16.164  1.00  0.00     0.312 C
BRANCH  40  41
HETATM   41  N6  UNL     1      29.067   5.350  16.062  1.00  0.00    -0.073 N
ATOM     42  H63 UNL     1      29.163   5.906  16.913  1.00  0.00     0.274 HD
ATOM     43  H62 UNL     1      29.978   4.890  16.077  1.00  0.00     0.274 HD
ATOM     44  H61 UNL     1      28.954   5.938  15.236  1.00  0.00     0.274 HD
ENDBRANCH  40  41
ENDBRANCH  38  40
ENDBRANCH  35  38
ENDBRANCH  34  35
ENDBRANCH   7  34
BRANCH   3  45
HETATM   45  C11 UNL     1      26.246   5.033   8.500  1.00  0.00     0.315 C
BRANCH  45  46
HETATM   46  O5  UNL     1      26.734   3.700   8.362  1.00  0.00    -0.365 OA
ATOM     47  H5  UNL     1      27.338   3.659   7.630  1.00  0.00     0.213 HD
ENDBRANCH  45  46
BRANCH  45  48
HETATM   48  O6  UNL     1      26.935   5.830   7.566  1.00  0.00    -0.365 OA
ATOM     49  H6  UNL     1      27.151   5.369   6.765  1.00  0.00     0.213 HD
ENDBRANCH  45  48
ENDBRANCH   3  45
BRANCH   4  50
HETATM   50  C13 UNL     1      24.308   6.808   9.899  1.00  0.00     0.308 C
BRANCH  50  51
HETATM   51  O7  UNL     1      23.357   5.753  10.078  1.00  0.00    -0.366 OA
ATOM     52  H7  UNL     1      23.056   5.814  10.977  1.00  0.00     0.213 HD
ENDBRANCH  50  51
BRANCH  50  53
HETATM   53  O8  UNL     1      23.740   7.926  10.439  1.00  0.00    -0.366 OA
ATOM     54  H8  UNL     1      23.526   8.634   9.843  1.00  0.00     0.213 HD
ENDBRANCH  50  53
ENDBRANCH   4  50
TORSDOF 19
ENDMDL