MODEL 2
REMARK VINA RESULT: -9.474742512      1.882      2.800
REMARK  11 active torsions:
REMARK  status: ('A' for Active; 'I' for Inactive)
REMARK    1  A    between atoms: C3_4  and  O1_5
REMARK    2  A    between atoms: C5_10  and  C6_11
REMARK    3  A    between atoms: N4_15  and  N5_17
REMARK    4  A    between atoms: N5_17  and  C8_19
REMARK    5  A    between atoms: C13_30  and  O2_31
REMARK    6  A    between atoms: O2_31  and  C14_32
REMARK    7  A    between atoms: C14_32  and  C15_33
REMARK    8  A    between atoms: C15_33  and  C16_34
REMARK    9  A    between atoms: C16_34  and  O3_35
REMARK   10  A    between atoms: O3_35  and  N9_36
REMARK   11  A    between atoms: C17_41  and  N14_42
ROOT
HETATM    1  N1  UNL     1      30.204   1.396  15.671  1.00  0.00    -0.191 NA
HETATM    2  C1  UNL     1      29.601   2.408  15.580  1.00  0.00     0.106 C
HETATM    3  C2  UNL     1      28.773   3.581  15.407  1.00  0.00     0.120 A
HETATM    4  C3  UNL     1      27.944   3.947  16.467  1.00  0.00     0.163 A
HETATM    5  N2  UNL     1      27.164   4.989  16.243  1.00  0.00    -0.345 N
ATOM      6  H2  UNL     1      26.572   5.313  17.008  1.00  0.00     0.167 HD
HETATM    7  C4  UNL     1      27.101   5.637  15.099  1.00  0.00     0.107 A
HETATM    8  C5  UNL     1      27.894   5.320  13.973  1.00  0.00     0.050 A
HETATM    9  C18 UNL     1      28.759   4.255  14.209  1.00  0.00     0.086 A
HETATM   10  N16 UNL     1      29.663   3.945  13.196  1.00  0.00    -0.100 NA
ENDROOT
BRANCH   4  11
HETATM   11  O1  UNL     1      27.917   3.230  17.659  1.00  0.00    -0.345 OA
ATOM     12  H1  UNL     1      28.497   3.439  18.382  1.00  0.00     0.219 HD
ENDBRANCH   4  11
BRANCH   8  13
HETATM   13  C6  UNL     1      27.604   5.885  12.671  1.00  0.00     0.137 A
HETATM   14  N3  UNL     1      28.399   6.658  11.903  1.00  0.00    -0.174 N
HETATM   15  C7  UNL     1      27.862   7.148  10.735  1.00  0.00     0.701 A
ATOM     16  H3  UNL     1      29.358   6.871  12.177  1.00  0.00     0.186 HD
HETATM   17  N4  UNL     1      28.514   8.043  10.040  1.00  0.00    -0.130 N
HETATM   18  N8  UNL     1      26.648   6.857  10.349  1.00  0.00    -0.153 N
ATOM     19  H4  UNL     1      28.140   8.401   9.161  1.00  0.00     0.205 HD
HETATM   20  C13 UNL     1      25.811   6.099  11.090  1.00  0.00     0.239 A
ATOM     21  H8  UNL     1      26.319   7.217   9.453  1.00  0.00     0.188 HD
HETATM   22  N15 UNL     1      26.344   5.633  12.246  1.00  0.00    -0.306 N
ATOM     23  H15 UNL     1      25.752   5.050  12.839  1.00  0.00     0.171 HD
BRANCH  17  24
HETATM   24  N5  UNL     1      29.744   8.498  10.542  1.00  0.00    -0.274 N
ATOM     25  H5  UNL     1      30.544   7.872  10.448  1.00  0.00     0.189 HD
BRANCH  24  26
HETATM   26  C8  UNL     1      29.974   9.745  11.164  1.00  0.00     0.102 C
HETATM   27  N6  UNL     1      29.565  10.062  12.308  1.00  0.00    -0.360 N
HETATM   28  C9  UNL     1      29.864  11.340  12.988  1.00  0.00     0.199 C
ATOM     29  H6  UNL     1      28.983   9.387  12.805  1.00  0.00     0.162 HD
HETATM   30  C10 UNL     1      29.101  12.447  12.453  1.00  0.00     0.085 C
HETATM   31  C11 UNL     1      31.326  11.590  13.150  1.00  0.00     0.114 C
HETATM   32  N7  UNL     1      28.546  13.380  12.043  1.00  0.00    -0.195 NA
HETATM   33  S1  UNL     1      32.171  11.271  11.557  1.00  0.00    -0.159 SA
HETATM   34  C12 UNL     1      30.902  10.667  10.435  1.00  0.00     0.151 C
ENDBRANCH  24  26
ENDBRANCH  17  24
BRANCH  20  35
HETATM   35  O2  UNL     1      24.533   5.853  10.771  1.00  0.00    -0.321 OA
BRANCH  35  36
HETATM   36  C14 UNL     1      23.566   6.670  10.280  1.00  0.00     0.181 C
BRANCH  36  37
HETATM   37  C15 UNL     1      22.395   5.948   9.678  1.00  0.00     0.056 C
BRANCH  37  38
HETATM   38  C16 UNL     1      22.698   5.405   8.256  1.00  0.00     0.205 C
BRANCH  38  39
HETATM   39  O3  UNL     1      23.712   6.158   7.758  1.00  0.00    -0.262 OA
BRANCH  39  40
HETATM   40  N9  UNL     1      24.543   5.689   6.914  1.00  0.00    -0.136 N
HETATM   41  N10 UNL     1      25.875   5.656   7.373  1.00  0.00     0.016 NA
HETATM   42  N11 UNL     1      26.714   6.198   6.406  1.00  0.00     0.003 NA
HETATM   43  N12 UNL     1      26.560   5.600   5.176  1.00  0.00    -0.016 NA
HETATM   44  N13 UNL     1      25.277   5.829   4.685  1.00  0.00    -0.071 NA
HETATM   45  C17 UNL     1      24.329   5.184   5.656  1.00  0.00     0.436 C
BRANCH  45  46
HETATM   46  N14 UNL     1      24.694   3.773   5.546  1.00  0.00    -0.039 N
ATOM     47 3H14 UNL     1      25.050   3.417   6.432  1.00  0.00     0.278 HD
ATOM     48 2H14 UNL     1      23.864   3.186   5.454  1.00  0.00     0.278 HD
ATOM     49 1H14 UNL     1      25.353   3.595   4.788  1.00  0.00     0.278 HD
ENDBRANCH  45  46
ENDBRANCH  39  40
ENDBRANCH  38  39
ENDBRANCH  37  38
ENDBRANCH  36  37
ENDBRANCH  35  36
ENDBRANCH  20  35
ENDBRANCH   8  13
TORSDOF 11
ENDMDL