MODEL 1
REMARK VINA RESULT: -8.955775091      0.000      0.000
REMARK  16 active torsions:
REMARK  status: ('A' for Active; 'I' for Inactive)
REMARK    1  A    between atoms: C2_2  and  N1_3
REMARK    2  A    between atoms: C2_2  and  C3_7
REMARK       I    between atoms: C3_7  and  N2_9
REMARK       I    between atoms: N2_9  and  C4_11
REMARK    3  A    between atoms: C4_11  and  O3_13
REMARK    4  A    between atoms: O3_13  and  C5_14
REMARK    5  A    between atoms: C5_14  and  N3_15
REMARK       I    between atoms: N3_15  and  C6_17
REMARK    6  A    between atoms: C6_17  and  C7_19
REMARK    7  A    between atoms: C7_19  and  N4_20
REMARK    8  A    between atoms: C9_26  and  S1_27
REMARK    9  A    between atoms: S1_27  and  O7_30
REMARK   10  A    between atoms: O7_30  and  N7_31
REMARK   11  A    between atoms: N7_31  and  C10_33
REMARK   12  A    between atoms: C10_33  and  C11_37
REMARK   13  A    between atoms: C12_38  and  O8_39
REMARK   14  A    between atoms: N9_41  and  N10_42
REMARK   15  A    between atoms: N11_47  and  N12_48
REMARK   16  A    between atoms: C14_51  and  N13_52
ROOT
HETATM    1  S1  UNL     1      25.531   5.933  12.951  1.00  0.00     0.352 S
HETATM    2  O5  UNL     1      24.158   6.232  12.458  1.00  0.00    -0.188 OA
HETATM    3  O6  UNL     1      25.593   4.449  13.211  1.00  0.00    -0.188 OA
ENDROOT
BRANCH   1   4
HETATM    4  C9  UNL     1      26.712   6.446  11.779  1.00  0.00     0.251 A
HETATM    5  N4  UNL     1      26.873   6.029  10.542  1.00  0.00    -0.255 N
HETATM    6  N5  UNL     1      27.858   6.734   9.946  1.00  0.00    -0.291 N
HETATM    7  C8  UNL     1      28.323   7.606  10.837  1.00  0.00     0.199 A
ATOM      8  H5  UNL     1      28.187   6.618   8.987  1.00  0.00     0.188 HD
HETATM    9  N6  UNL     1      27.632   7.443  11.965  1.00  0.00    -0.325 N
ATOM     10  H6  UNL     1      27.766   7.973  12.826  1.00  0.00     0.169 HD
BRANCH   5  11
HETATM   11  C7  UNL     1      26.224   4.941   9.817  1.00  0.00     0.254 C
BRANCH  11  12
HETATM   12  C6  UNL     1      25.450   5.497   8.688  1.00  0.00     0.239 C
HETATM   13  N3  UNL     1      24.026   5.368   8.715  1.00  0.00    -0.338 N
ATOM     14  H3  UNL     1      23.579   4.897   9.502  1.00  0.00     0.164 HD
HETATM   15  O4  UNL     1      25.955   6.086   7.689  1.00  0.00    -0.272 OA
BRANCH  13  16
HETATM   16  C5  UNL     1      23.208   5.898   7.640  1.00  0.00     0.306 C
BRANCH  16  17
HETATM   17  O3  UNL     1      23.092   4.972   6.564  1.00  0.00    -0.284 OA
BRANCH  17  18
HETATM   18  C4  UNL     1      23.895   5.173   5.429  1.00  0.00     0.368 C
HETATM   19  N2  UNL     1      24.401   6.444   5.055  1.00  0.00    -0.271 N
HETATM   20  C3  UNL     1      25.224   6.545   3.904  1.00  0.00     0.256 C
ATOM     21  H2  UNL     1      24.177   7.274   5.605  1.00  0.00     0.174 HD
HETATM   22  O1  UNL     1      25.478   5.483   3.243  1.00  0.00    -0.271 OA
HETATM   23  O2  UNL     1      24.154   4.152   4.743  1.00  0.00    -0.238 OA
BRANCH  20  24
HETATM   24  C2  UNL     1      25.800   7.832   3.444  1.00  0.00     0.271 C
HETATM   25  C1  UNL     1      24.751   8.929   3.501  1.00  0.00     0.050 C
BRANCH  24  26
HETATM   26  N1  UNL     1      26.946   8.182   4.246  1.00  0.00    -0.067 N
ATOM     27  H13 UNL     1      27.742   8.457   3.670  1.00  0.00     0.275 HD
ATOM     28  H12 UNL     1      26.806   9.062   4.742  1.00  0.00     0.275 HD
ATOM     29  H11 UNL     1      27.185   7.422   4.883  1.00  0.00     0.275 HD
ENDBRANCH  24  26
ENDBRANCH  20  24
ENDBRANCH  17  18
ENDBRANCH  16  17
ENDBRANCH  13  16
ENDBRANCH  11  12
ENDBRANCH   5  11
ENDBRANCH   1   4
BRANCH   1  30
HETATM   30  O7  UNL     1      25.705   6.754  14.404  1.00  0.00    -0.143 OA
BRANCH  30  31
HETATM   31  N7  UNL     1      26.469   6.080  15.302  1.00  0.00    -0.232 N
ATOM     32  H7  UNL     1      25.985   5.593  16.056  1.00  0.00     0.197 HD
BRANCH  31  33
HETATM   33  C10 UNL     1      27.871   5.999  15.276  1.00  0.00     0.138 C
HETATM   34  N8  UNL     1      28.558   7.103  15.251  1.00  0.00    -0.383 N
ATOM     35  H82 UNL     1      28.040   7.981  15.254  1.00  0.00     0.157 HD
ATOM     36  H81 UNL     1      29.575   7.044  15.232  1.00  0.00     0.157 HD
BRANCH  33  37
HETATM   37  C11 UNL     1      28.609   4.749  15.273  1.00  0.00     0.107 A
HETATM   38  C12 UNL     1      28.447   3.725  16.172  1.00  0.00     0.181 A
HETATM   39  N9  UNL     1      29.176   2.571  16.107  1.00  0.00    -0.211 N
HETATM   40  C13 UNL     1      30.092   2.400  15.147  1.00  0.00     0.222 A
HETATM   41  S2  UNL     1      30.994   1.046  15.017  1.00  0.00    -0.037 SA
HETATM   42  N11 UNL     1      30.290   3.389  14.229  1.00  0.00    -0.218 N
HETATM   43  C14 UNL     1      29.577   4.522  14.286  1.00  0.00     0.141 A
BRANCH  38  44
HETATM   44  O8  UNL     1      27.526   3.841  17.178  1.00  0.00    -0.344 OA
ATOM     45  H8  UNL     1      27.149   3.061  17.567  1.00  0.00     0.219 HD
ENDBRANCH  38  44
BRANCH  39  46
HETATM   46  N10 UNL     1      28.987   1.536  17.039  1.00  0.00    -0.334 N
ATOM     47 2H10 UNL     1      28.332   1.691  17.806  1.00  0.00     0.177 HD
ATOM     48 1H10 UNL     1      29.488   0.651  16.956  1.00  0.00     0.177 HD
ENDBRANCH  39  46
BRANCH  42  49
HETATM   49  N12 UNL     1      31.233   3.241  13.211  1.00  0.00    -0.335 N
ATOM     50 2H12 UNL     1      31.118   2.478  12.544  1.00  0.00     0.177 HD
ATOM     51 1H12 UNL     1      32.024   3.880  13.137  1.00  0.00     0.177 HD
ENDBRANCH  42  49
BRANCH  43  52
HETATM   52  N13 UNL     1      29.780   5.435  13.418  1.00  0.00    -0.383 N
ATOM     53 2H13 UNL     1      29.159   6.244  13.387  1.00  0.00     0.157 HD
ATOM     54 1H13 UNL     1      30.563   5.324  12.775  1.00  0.00     0.157 HD
ENDBRANCH  43  52
ENDBRANCH  33  37
ENDBRANCH  31  33
ENDBRANCH  30  31
ENDBRANCH   1  30
TORSDOF 16
ENDMDL