MODEL 3
REMARK VINA RESULT: -9.297040303      1.072      1.247
REMARK  15 active torsions:
REMARK  status: ('A' for Active; 'I' for Inactive)
REMARK    1  A    between atoms: N1_1  and  C1_5
REMARK    2  A    between atoms: C1_5  and  C2_6
REMARK    3  A    between atoms: C1_5  and  C3_11
REMARK    4  A    between atoms: C2_6  and  O1_7
REMARK    5  A    between atoms: C2_6  and  O2_9
REMARK    6  A    between atoms: C3_11  and  O3_12
REMARK    7  A    between atoms: C3_11  and  C4_14
REMARK    8  A    between atoms: C6_16  and  C7_17
REMARK    9  A    between atoms: C7_17  and  N2_18
REMARK   10  A    between atoms: C7_17  and  C14_37
REMARK   11  A    between atoms: N2_18  and  C8_20
REMARK   12  A    between atoms: C8_20  and  O4_21
REMARK   13  A    between atoms: C8_20  and  N3_23
REMARK   14  A    between atoms: C15_40  and  C16_41
REMARK   15  A    between atoms: C18_56  and  O10_57
ROOT
HETATM    1  C7  UNL     1      28.327   7.250  12.147  1.00  0.00     0.210 C
ENDROOT
BRANCH   1   2
HETATM    2  C6  UNL     1      27.305   6.694  11.289  1.00  0.00     0.057 A
HETATM    3  C5  UNL     1      27.545   6.203  10.032  1.00  0.00     0.043 A
HETATM    4  C4  UNL     1      26.563   5.661   9.239  1.00  0.00     0.027 A
HETATM    5  C18 UNL     1      25.272   5.635   9.799  1.00  0.00     0.163 A
HETATM    6  N12 UNL     1      25.068   6.111  11.008  1.00  0.00    -0.279 N
HETATM    7  N11 UNL     1      26.047   6.635  11.756  1.00  0.00    -0.300 N
ATOM      8  H12 UNL     1      24.123   6.079  11.392  1.00  0.00     0.189 HD
ATOM      9  H11 UNL     1      25.836   6.992  12.688  1.00  0.00     0.186 HD
BRANCH   4  10
HETATM   10  C3  UNL     1      26.722   5.022   7.920  1.00  0.00     0.191 C
BRANCH  10  11
HETATM   11  C1  UNL     1      26.218   5.803   6.797  1.00  0.00     0.271 C
BRANCH  11  12
HETATM   12  N1  UNL     1      27.047   6.770   6.207  1.00  0.00    -0.068 N
ATOM     13  H13 UNL     1      26.980   6.763   5.190  1.00  0.00     0.275 HD
ATOM     14  H12 UNL     1      26.707   7.717   6.372  1.00  0.00     0.275 HD
ATOM     15  H11 UNL     1      28.007   6.645   6.529  1.00  0.00     0.275 HD
ENDBRANCH  11  12
BRANCH  11  16
HETATM   16  C2  UNL     1      25.494   5.010   5.711  1.00  0.00     0.287 C
BRANCH  16  17
HETATM   17  O1  UNL     1      24.423   4.340   6.262  1.00  0.00    -0.369 OA
ATOM     18  H1  UNL     1      23.886   3.970   5.570  1.00  0.00     0.212 HD
ENDBRANCH  16  17
BRANCH  16  19
HETATM   19  O2  UNL     1      26.463   4.155   5.170  1.00  0.00    -0.369 OA
ATOM     20  H2  UNL     1      27.222   4.704   5.013  1.00  0.00     0.212 HD
ENDBRANCH  16  19
ENDBRANCH  11  16
ENDBRANCH  10  11
BRANCH  10  21
HETATM   21  O3  UNL     1      26.388   3.696   8.000  1.00  0.00    -0.388 OA
ATOM     22  H3  UNL     1      26.880   3.137   8.590  1.00  0.00     0.210 HD
ENDBRANCH  10  21
ENDBRANCH   4  10
BRANCH   5  23
HETATM   23  O10 UNL     1      24.216   5.091   9.027  1.00  0.00    -0.345 OA
ATOM     24  H10 UNL     1      23.670   4.420   9.420  1.00  0.00     0.219 HD
ENDBRANCH   5  23
ENDBRANCH   1   2
BRANCH   1  25
HETATM   25  N2  UNL     1      29.611   7.515  11.617  1.00  0.00    -0.363 N
ATOM     26  H2  UNL     1      29.706   7.781  10.636  1.00  0.00     0.158 HD
BRANCH  25  27
HETATM   27  C8  UNL     1      30.766   7.416  12.429  1.00  0.00     0.332 C
BRANCH  27  28
HETATM   28  O4  UNL     1      31.216   8.668  12.818  1.00  0.00    -0.359 OA
ATOM     29  H4  UNL     1      31.485   8.669  13.729  1.00  0.00     0.214 HD
ENDBRANCH  27  28
BRANCH  27  30
HETATM   30  N3  UNL     1      31.811   6.840  11.545  1.00  0.00    -0.283 N
HETATM   31  C9  UNL     1      32.504   7.532  10.609  1.00  0.00     0.189 A
HETATM   32  N4  UNL     1      33.391   6.718  10.004  1.00  0.00    -0.345 N
HETATM   33  C10 UNL     1      33.242   5.524  10.569  1.00  0.00     0.147 A
ATOM     34  H4  UNL     1      34.044   6.968   9.261  1.00  0.00     0.167 HD
HETATM   35  C11 UNL     1      33.894   4.352  10.309  1.00  0.00     0.280 A
HETATM   36  C13 UNL     1      32.251   5.602  11.534  1.00  0.00     0.148 A
HETATM   37  O5  UNL     1      34.784   4.257   9.450  1.00  0.00    -0.265 OA
HETATM   38  N5  UNL     1      33.566   3.238  11.005  1.00  0.00    -0.273 N
HETATM   39  C12 UNL     1      32.600   3.314  11.943  1.00  0.00     0.328 A
ATOM     40  H5  UNL     1      34.043   2.355  10.824  1.00  0.00     0.173 HD
HETATM   41  O6  UNL     1      32.311   2.262  12.580  1.00  0.00    -0.247 OA
HETATM   42  N6  UNL     1      31.955   4.483  12.199  1.00  0.00    -0.292 N
ATOM     43  H6  UNL     1      31.229   4.505  12.916  1.00  0.00     0.172 HD
ENDBRANCH  27  30
ENDBRANCH  25  27
ENDBRANCH   1  25
BRANCH   1  44
HETATM   44  C14 UNL     1      28.456   6.540  13.453  1.00  0.00     0.177 A
HETATM   45  N7  UNL     1      28.894   5.246  13.474  1.00  0.00    -0.318 N
HETATM   46  C15 UNL     1      28.933   4.832  14.753  1.00  0.00     0.174 A
ATOM     47  H7  UNL     1      29.149   4.689  12.659  1.00  0.00     0.169 HD
HETATM   48  N10 UNL     1      28.522   5.879  15.464  1.00  0.00    -0.240 N
HETATM   49  O9  UNL     1      28.233   6.901  14.672  1.00  0.00    -0.220 OA
ATOM     50  H10 UNL     1      28.440   5.892  16.480  1.00  0.00     0.196 HD
BRANCH  46  51
HETATM   51  C16 UNL     1      29.307   3.498  15.178  1.00  0.00     0.177 A
HETATM   52  N8  UNL     1      28.737   2.818  16.178  1.00  0.00    -0.282 N
HETATM   53  C17 UNL     1      29.343   1.628  16.260  1.00  0.00     0.388 A
ATOM     54  H8  UNL     1      27.977   3.146  16.772  1.00  0.00     0.172 HD
HETATM   55  O7  UNL     1      29.093   0.721  17.078  1.00  0.00    -0.236 OA
HETATM   56  O8  UNL     1      30.258   1.607  15.312  1.00  0.00    -0.179 OA
HETATM   57  N9  UNL     1      30.273   2.697  14.651  1.00  0.00    -0.236 N
ATOM     58  H9  UNL     1      30.892   2.925  13.873  1.00  0.00     0.197 HD
ENDBRANCH  46  51
ENDBRANCH   1  44
TORSDOF 15
ENDMDL