MODEL 2
REMARK VINA RESULT: -8.210055929      1.020      1.339
REMARK  13 active torsions:
REMARK  status: ('A' for Active; 'I' for Inactive)
REMARK    1  A    between atoms: C2_2  and  C11_28
REMARK    2  A    between atoms: N1_3  and  C3_5
REMARK    3  A    between atoms: C4_6  and  C5_7
REMARK       I    between atoms: C5_7  and  N2_9
REMARK    4  A    between atoms: N2_9  and  C6_10
REMARK    5  A    between atoms: N2_9  and  S2_17
REMARK    6  A    between atoms: C6_10  and  C7_11
REMARK    7  A    between atoms: C7_11  and  S1_12
REMARK    8  A    between atoms: S1_12  and  C8_13
REMARK    9  A    between atoms: C8_13  and  C9_14
REMARK   10  A    between atoms: C9_14  and  O2_15
REMARK   11  A    between atoms: N7_32  and  N8_33
REMARK   12  A    between atoms: C13_36  and  N9_37
REMARK   13  A    between atoms: C16_45  and  O9_46
ROOT
HETATM    1  C1  UNL     1      29.301   8.861  12.676  1.00  0.00     0.071 C
HETATM    2  C2  UNL     1      29.094   7.393  12.702  1.00  0.00     0.040 C
HETATM    3  N1  UNL     1      27.933   6.990  12.966  1.00  0.00    -0.376 N
ATOM      4  H1  UNL     1      27.302   7.774  13.127  1.00  0.00     0.160 HD
ENDROOT
BRANCH   3   5
HETATM    5  C3  UNL     1      27.266   5.779  13.102  1.00  0.00     0.214 C
HETATM    6  C4  UNL     1      26.117   5.700  12.104  1.00  0.00     0.129 C
HETATM    7  N3  UNL     1      25.066   6.036  12.733  1.00  0.00    -0.259 N
HETATM    8  O6  UNL     1      25.311   6.344  14.050  1.00  0.00    -0.228 OA
ATOM      9  H3  UNL     1      24.140   6.073  12.308  1.00  0.00     0.194 HD
HETATM   10  C10 UNL     1      26.479   5.617  14.385  1.00  0.00     0.288 A
HETATM   11  N4  UNL     1      27.108   5.957  15.607  1.00  0.00    -0.068 NA
HETATM   12  N6  UNL     1      26.284   4.287  14.866  1.00  0.00    -0.068 NA
HETATM   13  N5  UNL     1      27.014   4.619  16.014  1.00  0.00    -0.031 NA
BRANCH   6  14
HETATM   14  C5  UNL     1      26.294   5.305  10.717  1.00  0.00     0.285 C
HETATM   15  O1  UNL     1      27.371   4.677  10.430  1.00  0.00    -0.265 OA
HETATM   16  N2  UNL     1      25.364   5.567   9.679  1.00  0.00    -0.220 N
BRANCH  16  17
HETATM   17  C6  UNL     1      25.694   5.093   8.315  1.00  0.00     0.158 C
BRANCH  17  18
HETATM   18  C7  UNL     1      26.476   6.125   7.577  1.00  0.00     0.095 C
BRANCH  18  19
HETATM   19  S1  UNL     1      26.284   6.049   5.829  1.00  0.00    -0.165 SA
BRANCH  19  20
HETATM   20  C8  UNL     1      24.669   6.294   5.135  1.00  0.00     0.100 C
BRANCH  20  21
HETATM   21  C9  UNL     1      23.737   5.127   5.278  1.00  0.00     0.174 C
BRANCH  21  22
HETATM   22  O2  UNL     1      24.364   3.965   4.830  1.00  0.00    -0.400 OA
ATOM     23  H2  UNL     1      23.748   3.437   4.337  1.00  0.00     0.209 HD
ENDBRANCH  21  22
ENDBRANCH  20  21
ENDBRANCH  19  20
ENDBRANCH  18  19
ENDBRANCH  17  18
ENDBRANCH  16  17
BRANCH  16  24
HETATM   24  S2  UNL     1      23.878   6.398   9.879  1.00  0.00     0.213 S
HETATM   25  O3  UNL     1      23.156   6.540   8.543  1.00  0.00    -0.578 OA
HETATM   26  O4  UNL     1      24.045   7.801  10.384  1.00  0.00    -0.578 OA
HETATM   27  O5  UNL     1      22.812   5.558  10.883  1.00  0.00    -0.578 OA
ENDBRANCH  16  24
ENDBRANCH   6  14
ENDBRANCH   3   5
BRANCH   2  28
HETATM   28  C11 UNL     1      30.175   6.474  12.437  1.00  0.00     0.150 A
HETATM   29  O7  UNL     1      30.138   5.152  12.683  1.00  0.00    -0.254 OA
HETATM   30  C12 UNL     1      31.238   4.573  12.352  1.00  0.00     0.393 A
HETATM   31  O8  UNL     1      31.537   3.333  12.451  1.00  0.00    -0.236 OA
HETATM   32  N7  UNL     1      32.071   5.489  11.865  1.00  0.00    -0.184 N
HETATM   33  C13 UNL     1      31.409   6.710  11.911  1.00  0.00     0.192 A
BRANCH  32  34
HETATM   34  N8  UNL     1      33.373   5.347  11.379  1.00  0.00    -0.332 N
ATOM     35  H82 UNL     1      33.594   4.845  10.518  1.00  0.00     0.177 HD
ATOM     36  H81 UNL     1      34.255   5.688  11.761  1.00  0.00     0.177 HD
ENDBRANCH  32  34
BRANCH  33  37
HETATM   37  N9  UNL     1      32.008   7.906  11.465  1.00  0.00    -0.211 N
HETATM   38  N10 UNL     1      32.822   8.674  12.137  1.00  0.00    -0.275 N
HETATM   39  C14 UNL     1      33.227   9.720  11.391  1.00  0.00     0.118 A
ATOM     40  H10 UNL     1      33.113   8.505  13.099  1.00  0.00     0.189 HD
HETATM   41  N11 UNL     1      34.034  10.651  11.782  1.00  0.00    -0.384 N
HETATM   42  C15 UNL     1      32.618   9.593  10.162  1.00  0.00     0.107 A
ATOM     43 2H11 UNL     1      34.485  10.745  12.692  1.00  0.00     0.157 HD
ATOM     44 1H11 UNL     1      34.341  11.443  11.217  1.00  0.00     0.157 HD
HETATM   45  C16 UNL     1      31.858   8.439  10.245  1.00  0.00     0.167 A
BRANCH  45  46
HETATM   46  O9  UNL     1      31.087   7.949   9.216  1.00  0.00    -0.345 OA
ATOM     47  H9  UNL     1      30.624   8.454   8.558  1.00  0.00     0.219 HD
ENDBRANCH  45  46
ENDBRANCH  33  37
ENDBRANCH   2  28
TORSDOF 13
ENDMDL