MODEL 4
REMARK VINA RESULT: -9.073533300      2.619     11.503
REMARK  14 active torsions:
REMARK  status: ('A' for Active; 'I' for Inactive)
REMARK    1  A    between atoms: N1_1  and  C1_4
REMARK    2  A    between atoms: C2_7  and  C3_8
REMARK    3  A    between atoms: C4_14  and  N5_15
REMARK    4  A    between atoms: N6_18  and  C5_19
REMARK    5  A    between atoms: C6_21  and  O3_22
REMARK    6  A    between atoms: C6_21  and  C7_24
REMARK       I    between atoms: C7_24  and  N7_26
REMARK    7  A    between atoms: N7_26  and  N8_28
REMARK    8  A    between atoms: C8_30  and  C9_31
REMARK    9  A    between atoms: C10_34  and  C11_35
REMARK   10  A    between atoms: C12_39  and  O6_40
REMARK   11  A    between atoms: C12_39  and  C13_42
REMARK   12  A    between atoms: C13_42  and  O7_43
REMARK   13  A    between atoms: C14_45  and  O8_46
REMARK   14  A    between atoms: C16_49  and  N11_50
ROOT
HETATM    1  C7  UNL     1      28.052   6.812  11.542  1.00  0.00     0.329 C
HETATM    2  O4  UNL     1      28.053   7.928  10.984  1.00  0.00    -0.263 OA
HETATM    3  N7  UNL     1      27.324   5.754  10.952  1.00  0.00    -0.263 N
ATOM      4  H7  UNL     1      27.330   4.844  11.415  1.00  0.00     0.190 HD
ENDROOT
BRANCH   1   5
HETATM    5  C6  UNL     1      28.783   6.586  12.780  1.00  0.00     0.376 C
HETATM    6  O2  UNL     1      30.082   6.047  12.617  1.00  0.00    -0.274 OA
HETATM    7  C5  UNL     1      29.840   5.372  13.834  1.00  0.00     0.406 C
HETATM    8  O11 UNL     1      28.493   5.381  13.463  1.00  0.00    -0.274 OA
BRANCH   7   9
HETATM    9  N6  UNL     1      30.449   4.055  13.880  1.00  0.00    -0.205 N
HETATM   10  C2  UNL     1      30.096   3.130  14.797  1.00  0.00     0.175 A
HETATM   11  N2  UNL     1      30.829   2.015  14.589  1.00  0.00    -0.172 N
HETATM   12  C1  UNL     1      31.620   2.289  13.539  1.00  0.00     0.692 A
ATOM     13  H2  UNL     1      30.790   1.145  15.119  1.00  0.00     0.186 HD
HETATM   14  N12 UNL     1      31.373   3.537  13.123  1.00  0.00    -0.124 N
ATOM     15  H12 UNL     1      31.832   4.005  12.342  1.00  0.00     0.206 HD
BRANCH  10  16
HETATM   16  C3  UNL     1      29.100   3.280  15.843  1.00  0.00     0.148 A
HETATM   17  N3  UNL     1      28.176   4.286  15.884  1.00  0.00    -0.234 N
HETATM   18  O1  UNL     1      27.434   4.146  16.934  1.00  0.00    -0.155 OA
ATOM     19  H3  UNL     1      28.084   5.032  15.193  1.00  0.00     0.197 HD
HETATM   20  N4  UNL     1      27.785   3.115  17.617  1.00  0.00    -0.224 N
HETATM   21  C4  UNL     1      28.844   2.532  16.958  1.00  0.00     0.154 A
ATOM     22  H4  UNL     1      27.358   2.789  18.484  1.00  0.00     0.198 HD
BRANCH  21  23
HETATM   23  N5  UNL     1      29.467   1.486  17.325  1.00  0.00    -0.382 N
ATOM     24  H52 UNL     1      29.995   0.860  16.718  1.00  0.00     0.157 HD
ATOM     25  H51 UNL     1      29.531   1.122  18.276  1.00  0.00     0.157 HD
ENDBRANCH  21  23
ENDBRANCH  10  16
BRANCH  12  26
HETATM   26  N1  UNL     1      32.484   1.465  13.019  1.00  0.00    -0.233 N
ATOM     27  H12 UNL     1      32.586   1.248  12.028  1.00  0.00     0.174 HD
ATOM     28  H11 UNL     1      33.173   0.929  13.547  1.00  0.00     0.174 HD
ENDBRANCH  12  26
ENDBRANCH   7   9
BRANCH   5  29
HETATM   29  O3  UNL     1      28.719   7.620  13.714  1.00  0.00    -0.335 OA
ATOM     30  H3  UNL     1      29.569   7.907  14.025  1.00  0.00     0.216 HD
ENDBRANCH   5  29
ENDBRANCH   1   5
BRANCH   3  31
HETATM   31  N8  UNL     1      26.599   5.890   9.769  1.00  0.00    -0.307 N
HETATM   32  C8  UNL     1      25.419   5.466   9.636  1.00  0.00     0.139 C
ATOM     33  H8  UNL     1      27.044   6.353   8.976  1.00  0.00     0.186 HD
BRANCH  32  34
HETATM   34  C9  UNL     1      24.643   5.598   8.409  1.00  0.00     0.083 A
HETATM   35  N9  UNL     1      25.263   5.792   7.203  1.00  0.00    -0.351 N
HETATM   36  C10 UNL     1      24.388   5.861   6.199  1.00  0.00     0.062 A
ATOM     37  H9  UNL     1      26.273   5.875   7.086  1.00  0.00     0.166 HD
HETATM   38  C15 UNL     1      23.155   5.706   6.773  1.00  0.00     0.070 A
HETATM   39  C16 UNL     1      23.307   5.541   8.166  1.00  0.00     0.133 A
BRANCH  36  40
HETATM   40  C11 UNL     1      24.675   6.060   4.767  1.00  0.00     0.093 C
HETATM   41  N10 UNL     1      24.007   6.788   3.946  1.00  0.00    -0.262 N
HETATM   42  O5  UNL     1      24.579   6.730   2.687  1.00  0.00    -0.235 OA
ATOM     43  H10 UNL     1      23.177   7.329   4.186  1.00  0.00     0.194 HD
HETATM   44  C12 UNL     1      25.870   6.144   2.745  1.00  0.00     0.240 C
HETATM   45  C14 UNL     1      25.816   5.421   4.074  1.00  0.00     0.238 C
BRANCH  44  46
HETATM   46  O6  UNL     1      25.980   5.284   1.677  1.00  0.00    -0.360 OA
ATOM     47  H6  UNL     1      26.852   4.909   1.703  1.00  0.00     0.213 HD
ENDBRANCH  44  46
BRANCH  44  48
HETATM   48  C13 UNL     1      26.958   7.166   2.813  1.00  0.00     0.238 C
BRANCH  48  49
HETATM   49  O7  UNL     1      26.490   8.468   2.877  1.00  0.00    -0.395 OA
ATOM     50  H7  UNL     1      26.928   8.996   3.535  1.00  0.00     0.209 HD
ENDBRANCH  48  49
ENDBRANCH  44  48
BRANCH  45  51
HETATM   51  O8  UNL     1      25.610   4.048   3.898  1.00  0.00    -0.384 OA
ATOM     52  H8  UNL     1      26.283   3.535   4.329  1.00  0.00     0.210 HD
ENDBRANCH  45  51
ENDBRANCH  36  40
BRANCH  39  53
HETATM   53  N11 UNL     1      22.247   5.346   9.059  1.00  0.00    -0.113 N
HETATM   54  O9  UNL     1      21.305   4.536   8.738  1.00  0.00    -0.532 OA
HETATM   55  O10 UNL     1      22.080   5.926  10.270  1.00  0.00    -0.532 OA
ENDBRANCH  39  53
ENDBRANCH  32  34
ENDBRANCH   3  31
TORSDOF 14
ENDMDL