MODEL 4
REMARK VINA RESULT: -7.536769587      3.240      8.851
REMARK  16 active torsions:
REMARK  status: ('A' for Active; 'I' for Inactive)
REMARK    1  A    between atoms: C2_2  and  O1_4
REMARK    2  A    between atoms: C2_2  and  C4_6
REMARK    3  A    between atoms: N2_9  and  C5_10
REMARK    4  A    between atoms: C6_14  and  O2_15
REMARK    5  A    between atoms: C9_23  and  N6_24
REMARK    6  A    between atoms: C11_26  and  C12_27
REMARK    7  A    between atoms: C12_27  and  O3_28
REMARK    8  A    between atoms: C13_36  and  N10_37
REMARK    9  A    between atoms: N10_37  and  C14_38
REMARK   10  A    between atoms: N10_37  and  C16_42
REMARK   11  A    between atoms: C14_38  and  C15_39
REMARK   12  A    between atoms: C15_39  and  O4_40
REMARK   13  A    between atoms: C16_42  and  C17_43
REMARK   14  A    between atoms: C17_43  and  O5_44
REMARK   15  A    between atoms: C18_46  and  N11_47
REMARK   16  A    between atoms: N11_47  and  C19_49
ROOT
HETATM    1  C5  UNL     1      29.676   8.053  11.348  1.00  0.00     0.382 C
HETATM    2  N3  UNL     1      31.083   7.846  10.950  1.00  0.00    -0.002 N
ATOM      3  H31 UNL     1      31.304   6.874  10.732  1.00  0.00     0.285 HD
ATOM      4  H32 UNL     1      31.743   7.954  11.722  1.00  0.00     0.285 HD
HETATM    5  C6  UNL     1      31.334   8.769   9.832  1.00  0.00     0.429 C
HETATM    6  N4  UNL     1      30.961  10.136  10.225  1.00  0.00    -0.337 N
ATOM      7  H4  UNL     1      31.201  10.912   9.608  1.00  0.00     0.164 HD
HETATM    8  C7  UNL     1      30.279  10.404  11.433  1.00  0.00     0.104 A
HETATM    9  C8  UNL     1      29.618   9.334  12.063  1.00  0.00     0.109 A
HETATM   10  N5  UNL     1      28.983   9.541  13.215  1.00  0.00    -0.187 N
ATOM     11  H5  UNL     1      28.509   8.758  13.664  1.00  0.00     0.184 HD
HETATM   12  C9  UNL     1      28.946  10.761  13.814  1.00  0.00     0.706 A
HETATM   13  N9  UNL     1      29.598  11.791  13.179  1.00  0.00    -0.172 N
ATOM     14  H9  UNL     1      29.589  12.717  13.606  1.00  0.00     0.186 HD
HETATM   15  C13 UNL     1      30.239  11.621  12.029  1.00  0.00     0.155 A
ENDROOT
BRANCH   1  16
HETATM   16  N2  UNL     1      29.099   6.933  11.989  1.00  0.00    -0.084 N
HETATM   17  N1  UNL     1      29.447   6.351  13.105  1.00  0.00    -0.267 N
HETATM   18  C4  UNL     1      28.683   5.321  13.406  1.00  0.00     0.146 A
ATOM     19  H1  UNL     1      30.227   6.662  13.683  1.00  0.00     0.189 HD
HETATM   20  N14 UNL     1      27.748   5.210  12.408  1.00  0.00    -0.174 N
HETATM   21  C18 UNL     1      28.033   6.221  11.548  1.00  0.00     0.705 A
ATOM     22  H14 UNL     1      27.002   4.519  12.328  1.00  0.00     0.185 HD
BRANCH  18  23
HETATM   23  C2  UNL     1      28.691   4.432  14.591  1.00  0.00     0.110 C
HETATM   24  C1  UNL     1      29.816   3.445  14.511  1.00  0.00     0.054 C
HETATM   25  C3  UNL     1      27.391   3.671  14.715  1.00  0.00     0.054 C
BRANCH  23  26
HETATM   26  O1  UNL     1      28.757   5.214  15.773  1.00  0.00    -0.383 OA
ATOM     27  H1  UNL     1      27.894   5.396  16.125  1.00  0.00     0.211 HD
ENDBRANCH  23  26
ENDBRANCH  18  23
BRANCH  21  28
HETATM   28  N11 UNL     1      27.402   6.485  10.483  1.00  0.00    -0.160 N
ATOM     29  H11 UNL     1      27.956   6.879   9.722  1.00  0.00     0.187 HD
BRANCH  28  30
HETATM   30  C19 UNL     1      26.033   6.304  10.218  1.00  0.00     0.190 C
HETATM   31  N12 UNL     1      25.114   6.817  11.030  1.00  0.00    -0.360 N
HETATM   32  C20 UNL     1      23.795   6.530  10.588  1.00  0.00     0.142 C
ATOM     33  H12 UNL     1      25.330   7.354  11.870  1.00  0.00     0.162 HD
HETATM   34  C21 UNL     1      23.946   5.808   9.291  1.00  0.00     0.142 C
HETATM   35  N13 UNL     1      25.397   5.597   9.170  1.00  0.00    -0.360 N
ATOM     36  H13 UNL     1      25.863   5.037   8.455  1.00  0.00     0.162 HD
ENDBRANCH  28  30
ENDBRANCH  21  28
ENDBRANCH   1  16
BRANCH   5  37
HETATM   37  O2  UNL     1      30.468   8.383   8.817  1.00  0.00    -0.354 OA
ATOM     38  H2  UNL     1      29.828   9.080   8.741  1.00  0.00     0.214 HD
ENDBRANCH   5  37
BRANCH  15  39
HETATM   39  N10 UNL     1      30.850  12.806  11.317  1.00  0.00    -0.317 N
BRANCH  39  40
HETATM   40  C14 UNL     1      32.211  13.017  11.629  1.00  0.00     0.121 C
BRANCH  40  41
HETATM   41  C15 UNL     1      33.293  12.856  10.667  1.00  0.00     0.148 C
BRANCH  41  42
HETATM   42  O4  UNL     1      33.205  12.018   9.604  1.00  0.00    -0.371 OA
ATOM     43  H4  UNL     1      32.451  12.005   9.026  1.00  0.00     0.216 HD
ENDBRANCH  41  42
ENDBRANCH  40  41
ENDBRANCH  39  40
BRANCH  39  44
HETATM   44  C16 UNL     1      29.913  13.429  10.478  1.00  0.00     0.097 C
BRANCH  44  45
HETATM   45  C17 UNL     1      29.962  13.418   9.004  1.00  0.00     0.209 C
BRANCH  45  46
HETATM   46  O5  UNL     1      30.552  12.356   8.368  1.00  0.00    -0.396 OA
ATOM     47  H5  UNL     1      30.001  11.695   7.967  1.00  0.00     0.209 HD
ENDBRANCH  45  46
ENDBRANCH  44  45
ENDBRANCH  39  44
ENDBRANCH  15  39
BRANCH  12  48
HETATM   48  N6  UNL     1      28.213  10.964  14.997  1.00  0.00    -0.081 N
HETATM   49  C10 UNL     1      27.839  12.029  15.700  1.00  0.00     0.165 A
HETATM   50  C11 UNL     1      27.101  11.570  16.840  1.00  0.00     0.068 A
HETATM   51  N7  UNL     1      27.102  10.292  16.714  1.00  0.00    -0.286 N
HETATM   52  N8  UNL     1      27.724   9.880  15.676  1.00  0.00    -0.222 N
ATOM     53  H7  UNL     1      26.649   9.664  17.379  1.00  0.00     0.188 HD
ATOM     54  H8  UNL     1      27.837   8.905  15.399  1.00  0.00     0.209 HD
BRANCH  50  55
HETATM   55  C12 UNL     1      26.475  12.401  17.890  1.00  0.00     0.224 C
BRANCH  55  56
HETATM   56  O3  UNL     1      25.101  12.453  17.626  1.00  0.00    -0.395 OA
ATOM     57  H3  UNL     1      24.835  13.364  17.664  1.00  0.00     0.209 HD
ENDBRANCH  55  56
ENDBRANCH  50  55
ENDBRANCH  12  48
TORSDOF 16
ENDMDL