MODEL 5
REMARK VINA RESULT: -8.270614694      2.729      7.869
REMARK  15 active torsions:
REMARK  status: ('A' for Active; 'I' for Inactive)
REMARK    1  A    between atoms: N4_5  and  C2_6
REMARK    2  A    between atoms: C3_9  and  C4_10
REMARK    3  A    between atoms: C5_13  and  C6_14
REMARK    4  A    between atoms: C6_14  and  O3_15
REMARK    5  A    between atoms: C6_14  and  O4_17
REMARK    6  A    between atoms: N6_19  and  N7_20
REMARK    7  A    between atoms: N7_20  and  C7_22
REMARK    8  A    between atoms: C7_22  and  C8_23
REMARK    9  A    between atoms: C7_22  and  C10_31
REMARK   10  A    between atoms: C8_23  and  C9_24
REMARK   11  A    between atoms: C10_31  and  C11_32
REMARK   12  A    between atoms: C11_32  and  N12_33
REMARK   13  A    between atoms: C14_38  and  N14_39
REMARK   14  A    between atoms: N17_48  and  O5_50
REMARK   15  A    between atoms: C17_52  and  N18_53
ROOT
HETATM    1  C7  UNL     1      25.507   6.237   8.397  1.00  0.00     0.156 C
ENDROOT
BRANCH   1   2
HETATM    2  N7  UNL     1      25.595   5.845   9.766  1.00  0.00    -0.317 N
ATOM      3  H7  UNL     1      24.966   5.097  10.057  1.00  0.00     0.181 HD
BRANCH   2   4
HETATM    4  N6  UNL     1      26.426   6.352  10.747  1.00  0.00    -0.237 N
HETATM    5  C5  UNL     1      26.175   6.018  12.055  1.00  0.00     0.123 A
HETATM    6  C3  UNL     1      27.051   6.378  13.026  1.00  0.00     0.141 A
HETATM    7  N5  UNL     1      28.183   7.084  12.710  1.00  0.00    -0.330 N
HETATM    8  C2  UNL     1      28.471   7.435  11.477  1.00  0.00     0.185 A
ATOM      9  H5  UNL     1      28.825   7.345  13.459  1.00  0.00     0.168 HD
HETATM   10  C17 UNL     1      27.560   7.054  10.459  1.00  0.00     0.168 A
BRANCH   5  11
HETATM   11  C6  UNL     1      24.871   5.346  12.363  1.00  0.00     0.309 C
BRANCH  11  12
HETATM   12  O3  UNL     1      25.005   4.402  13.411  1.00  0.00    -0.366 OA
ATOM     13  H3  UNL     1      25.037   4.825  14.262  1.00  0.00     0.213 HD
ENDBRANCH  11  12
BRANCH  11  14
HETATM   14  O4  UNL     1      23.830   6.201  12.572  1.00  0.00    -0.366 OA
ATOM     15  H4  UNL     1      23.420   6.122  13.426  1.00  0.00     0.213 HD
ENDBRANCH  11  14
ENDBRANCH   5  11
BRANCH   6  16
HETATM   16  C4  UNL     1      26.916   6.034  14.428  1.00  0.00     0.229 C
HETATM   17  O1  UNL     1      26.343   6.711  15.264  1.00  0.00    -0.643 OA
HETATM   18  O2  UNL     1      27.474   4.827  14.928  1.00  0.00    -0.643 OA
ENDBRANCH   6  16
BRANCH   8  19
HETATM   19  N4  UNL     1      29.638   8.173  11.125  1.00  0.00    -0.165 N
HETATM   20  N1  UNL     1      30.974   7.870  10.918  1.00  0.00    -0.108 NA
HETATM   21  C1  UNL     1      31.868   8.125  12.030  1.00  0.00     0.162 C
HETATM   22  N2  UNL     1      31.006   9.008  10.063  1.00  0.00    -0.012 NA
HETATM   23  N3  UNL     1      29.925   9.501  10.843  1.00  0.00     0.009 NA
ENDBRANCH   8  19
BRANCH  10  24
HETATM   24  N18 UNL     1      27.889   7.380   9.341  1.00  0.00    -0.381 N
ATOM     25 2H18 UNL     1      28.842   7.309   8.983  1.00  0.00     0.157 HD
ATOM     26 1H18 UNL     1      27.135   7.760   8.770  1.00  0.00     0.157 HD
ENDBRANCH  10  24
ENDBRANCH   2   4
ENDBRANCH   1   2
BRANCH   1  27
HETATM   27  C8  UNL     1      24.135   6.781   8.009  1.00  0.00     0.111 C
BRANCH  27  28
HETATM   28  C9  UNL     1      23.081   6.024   8.683  1.00  0.00     0.109 A
HETATM   29  N8  UNL     1      22.623   6.237   9.925  1.00  0.00    -0.274 N
HETATM   30  N9  UNL     1      21.668   5.373  10.222  1.00  0.00    -0.007 NA
ATOM     31  H8  UNL     1      22.964   6.965  10.553  1.00  0.00     0.185 HD
HETATM   32  N10 UNL     1      21.501   4.585   9.160  1.00  0.00    -0.007 NA
HETATM   33  N11 UNL     1      22.367   4.984   8.216  1.00  0.00    -0.274 N
ATOM     34  H11 UNL     1      22.468   4.566   7.291  1.00  0.00     0.185 HD
ENDBRANCH  27  28
ENDBRANCH   1  27
BRANCH   1  35
HETATM   35  C10 UNL     1      25.709   5.044   7.491  1.00  0.00     0.052 C
HETATM   36  N17 UNL     1      26.315   4.008   7.961  1.00  0.00    -0.274 N
ATOM     37  H17 UNL     1      26.460   3.195   7.362  1.00  0.00     0.193 HD
BRANCH  35  38
HETATM   38  C11 UNL     1      25.222   5.079   6.115  1.00  0.00     0.188 C
BRANCH  38  39
HETATM   39  N12 UNL     1      25.813   6.150   5.357  1.00  0.00    -0.322 N
HETATM   40  C12 UNL     1      27.055   6.628   5.498  1.00  0.00     0.185 A
HETATM   41  N13 UNL     1      27.235   7.640   4.594  1.00  0.00    -0.346 N
HETATM   42  C13 UNL     1      26.111   7.793   3.895  1.00  0.00     0.122 A
ATOM     43  H13 UNL     1      28.088   8.187   4.476  1.00  0.00     0.167 HD
HETATM   44  C14 UNL     1      25.740   8.634   2.890  1.00  0.00     0.131 A
HETATM   45  C16 UNL     1      25.215   6.846   4.384  1.00  0.00     0.140 A
HETATM   46  N15 UNL     1      24.498   8.578   2.336  1.00  0.00    -0.337 N
HETATM   47  C15 UNL     1      23.630   7.657   2.813  1.00  0.00     0.183 A
ATOM     48  H15 UNL     1      24.230   9.211   1.582  1.00  0.00     0.168 HD
HETATM   49  N16 UNL     1      23.982   6.821   3.805  1.00  0.00    -0.336 N
ATOM     50  H16 UNL     1      23.299   6.141   4.138  1.00  0.00     0.168 HD
BRANCH  44  51
HETATM   51  N14 UNL     1      26.576   9.502   2.447  1.00  0.00    -0.383 N
ATOM     52 2H14 UNL     1      26.764   9.536   1.445  1.00  0.00     0.157 HD
ATOM     53 1H14 UNL     1      27.037  10.137   3.099  1.00  0.00     0.157 HD
ENDBRANCH  44  51
ENDBRANCH  38  39
ENDBRANCH  35  38
BRANCH  36  54
HETATM   54  O5  UNL     1      26.765   3.983   9.247  1.00  0.00    -0.290 OA
ATOM     55  H5  UNL     1      26.875   3.161   9.710  1.00  0.00     0.244 HD
ENDBRANCH  36  54
ENDBRANCH   1  35
TORSDOF 15
ENDMDL