MODEL 5
REMARK VINA RESULT: -8.394932582      1.772      2.475
REMARK  15 active torsions:
REMARK  status: ('A' for Active; 'I' for Inactive)
REMARK    1  A    between atoms: O1_2  and  N1_3
REMARK    2  A    between atoms: N1_3  and  C2_5
REMARK    3  A    between atoms: N2_7  and  C4_8
REMARK    4  A    between atoms: C5_11  and  C6_12
REMARK    5  A    between atoms: C10_22  and  C11_23
REMARK    6  A    between atoms: C11_23  and  O4_24
REMARK    7  A    between atoms: C11_23  and  N6_26
REMARK    8  A    between atoms: N6_26  and  C12_28
REMARK    9  A    between atoms: N8_32  and  N9_33
REMARK   10  A    between atoms: N9_33  and  C14_35
REMARK   11  A    between atoms: C15_38  and  O5_39
REMARK   12  A    between atoms: N12_43  and  N13_44
REMARK   13  A    between atoms: C17_51  and  C18_52
REMARK   14  A    between atoms: C18_52  and  C19_53
REMARK   15  A    between atoms: C19_53  and  N16_54
ROOT
HETATM    1  C4  UNL     1      27.591   7.187  10.640  1.00  0.00     0.137 A
HETATM    2  N3  UNL     1      28.661   8.001  10.390  1.00  0.00    -0.321 N
ATOM      3  H3  UNL     1      28.814   8.337   9.439  1.00  0.00     0.169 HD
HETATM    4  C5  UNL     1      29.516   8.373  11.356  1.00  0.00     0.187 A
HETATM    5  N4  UNL     1      29.352   7.953  12.620  1.00  0.00    -0.321 N
ATOM      6  H4  UNL     1      30.011   8.245  13.341  1.00  0.00     0.169 HD
HETATM    7  C7  UNL     1      28.326   7.153  12.941  1.00  0.00     0.134 A
HETATM    8  C8  UNL     1      27.437   6.770  11.929  1.00  0.00     0.117 A
HETATM    9  N5  UNL     1      26.365   5.961  12.324  1.00  0.00    -0.382 N
ATOM     10  H5  UNL     1      25.495   5.998  11.791  1.00  0.00     0.160 HD
HETATM   11  C9  UNL     1      26.449   5.072  13.464  1.00  0.00     0.149 C
HETATM   12  C10 UNL     1      27.017   5.797  14.633  1.00  0.00     0.149 C
HETATM   13  N15 UNL     1      28.103   6.682  14.261  1.00  0.00    -0.364 N
ATOM     14  H15 UNL     1      28.747   6.985  14.992  1.00  0.00     0.161 HD
ENDROOT
BRANCH  12  15
HETATM   15  C11 UNL     1      27.521   4.894  15.719  1.00  0.00     0.244 C
BRANCH  15  16
HETATM   16  O4  UNL     1      28.807   5.319  16.120  1.00  0.00    -0.375 OA
ATOM     17  H4  UNL     1      29.276   4.585  16.498  1.00  0.00     0.212 HD
ENDBRANCH  15  16
BRANCH  15  18
HETATM   18  N6  UNL     1      27.601   3.525  15.362  1.00  0.00    -0.333 N
ATOM     19  H6  UNL     1      26.745   2.979  15.257  1.00  0.00     0.165 HD
BRANCH  18  20
HETATM   20  C12 UNL     1      28.869   2.906  15.147  1.00  0.00     0.195 A
HETATM   21  N7  UNL     1      29.383   1.934  15.819  1.00  0.00    -0.342 N
HETATM   22  C13 UNL     1      30.668   1.529  15.365  1.00  0.00     0.294 A
ATOM     23  H7  UNL     1      28.909   1.492  16.607  1.00  0.00     0.164 HD
HETATM   24  N8  UNL     1      30.964   2.383  14.265  1.00  0.00    -0.199 N
HETATM   25  N14 UNL     1      29.820   3.237  14.148  1.00  0.00    -0.253 N
ATOM     26  H14 UNL     1      29.706   3.972  13.451  1.00  0.00     0.192 HD
BRANCH  24  27
HETATM   27  N9  UNL     1      32.069   2.426  13.468  1.00  0.00    -0.112 N
ATOM     28  H9  UNL     1      32.675   1.608  13.524  1.00  0.00     0.207 HD
BRANCH  27  29
HETATM   29  C14 UNL     1      32.455   3.325  12.672  1.00  0.00     0.722 A
HETATM   30  N10 UNL     1      31.899   4.483  12.266  1.00  0.00    -0.164 N
HETATM   31  C15 UNL     1      32.722   5.103  11.389  1.00  0.00     0.199 A
ATOM     32  H10 UNL     1      30.994   4.838  12.573  1.00  0.00     0.186 HD
HETATM   33  C16 UNL     1      33.828   4.316  11.238  1.00  0.00     0.206 A
HETATM   34  N11 UNL     1      34.962   4.588  10.398  1.00  0.00    -0.075 NA
HETATM   35  N12 UNL     1      33.661   3.255  12.008  1.00  0.00    -0.073 N
BRANCH  31  36
HETATM   36  O5  UNL     1      32.493   6.315  10.755  1.00  0.00    -0.343 OA
ATOM     37  H5  UNL     1      32.208   6.440   9.857  1.00  0.00     0.219 HD
ENDBRANCH  31  36
BRANCH  35  38
HETATM   38  N13 UNL     1      34.539   2.174  12.177  1.00  0.00    -0.323 N
ATOM     39 2H13 UNL     1      34.722   1.649  13.032  1.00  0.00     0.178 HD
ATOM     40 1H13 UNL     1      35.097   1.806  11.406  1.00  0.00     0.178 HD
ENDBRANCH  35  38
ENDBRANCH  27  29
ENDBRANCH  24  27
ENDBRANCH  18  20
ENDBRANCH  15  18
ENDBRANCH  12  15
BRANCH   1  41
HETATM   41  N2  UNL     1      26.722   6.780   9.602  1.00  0.00    -0.350 N
HETATM   42  C3  UNL     1      27.135   6.356   8.236  1.00  0.00     0.182 C
HETATM   43  C2  UNL     1      25.869   5.610   8.157  1.00  0.00     0.050 C
HETATM   44  C17 UNL     1      25.373   6.518   9.209  1.00  0.00     0.137 C
BRANCH  43  45
HETATM   45  N1  UNL     1      25.482   4.622   7.443  1.00  0.00    -0.272 N
ATOM     46  H1  UNL     1      25.537   3.683   7.837  1.00  0.00     0.193 HD
BRANCH  45  47
HETATM   47  O1  UNL     1      24.997   4.773   6.166  1.00  0.00    -0.285 OA
HETATM   48  C1  UNL     1      23.753   5.380   5.894  1.00  0.00     0.237 C
ENDBRANCH  45  47
ENDBRANCH  43  45
BRANCH  44  49
HETATM   49  C18 UNL     1      24.448   5.910  10.212  1.00  0.00     0.059 C
BRANCH  49  50
HETATM   50  C19 UNL     1      23.038   6.431   9.984  1.00  0.00     0.232 C
BRANCH  50  51
HETATM   51  N16 UNL     1      22.260   5.456   9.214  1.00  0.00    -0.079 N
ATOM     52 3H16 UNL     1      22.372   4.509   9.575  1.00  0.00     0.274 HD
ATOM     53 2H16 UNL     1      21.257   5.558   9.370  1.00  0.00     0.274 HD
ATOM     54 1H16 UNL     1      22.500   5.519   8.225  1.00  0.00     0.274 HD
ENDBRANCH  50  51
ENDBRANCH  49  50
ENDBRANCH  44  49
ENDBRANCH   1  41
BRANCH   4  55
HETATM   55  C6  UNL     1      30.638   9.236  11.052  1.00  0.00     0.245 C
HETATM   56  O2  UNL     1      31.768   9.039  11.558  1.00  0.00    -0.642 OA
HETATM   57  O3  UNL     1      30.450  10.298  10.184  1.00  0.00    -0.642 OA
ENDBRANCH   4  55
TORSDOF 15
ENDMDL