MODEL 5
REMARK VINA RESULT: -7.580603823      1.480      2.076
REMARK  16 active torsions:
REMARK  status: ('A' for Active; 'I' for Inactive)
REMARK    1  A    between atoms: C4_5  and  N2_6
REMARK    2  A    between atoms: N3_8  and  C5_10
REMARK    3  A    between atoms: C13_24  and  N8_25
REMARK    4  A    between atoms: N8_25  and  N9_27
REMARK    5  A    between atoms: N10_30  and  C14_31
REMARK    6  A    between atoms: C14_31  and  C15_32
REMARK    7  A    between atoms: C15_32  and  O2_33
REMARK    8  A    between atoms: C15_32  and  C16_35
REMARK    9  A    between atoms: C16_35  and  O3_36
REMARK   10  A    between atoms: C16_35  and  C17_38
REMARK   11  A    between atoms: C17_38  and  O4_39
REMARK   12  A    between atoms: C17_38  and  C18_41
REMARK   13  A    between atoms: C18_41  and  C19_42
REMARK   14  A    between atoms: C19_42  and  O5_43
REMARK   15  A    between atoms: N11_45  and  N12_46
REMARK   16  A    between atoms: C21_51  and  O7_52
ROOT
HETATM    1  C5  UNL     1      32.652   3.330  12.272  1.00  0.00     0.108 A
HETATM    2  C6  UNL     1      31.924   2.662  13.193  1.00  0.00     0.144 A
HETATM    3  N4  UNL     1      32.257   1.351  13.570  1.00  0.00    -0.094 NA
HETATM    4  C7  UNL     1      30.855   3.288  13.753  1.00  0.00     0.275 A
HETATM    5  O1  UNL     1      30.132   2.696  14.631  1.00  0.00    -0.266 OA
HETATM    6  N5  UNL     1      30.447   4.571  13.452  1.00  0.00    -0.301 N
HETATM    7  C8  UNL     1      29.409   5.167  14.199  1.00  0.00     0.161 C
HETATM    8  C9  UNL     1      31.164   5.233  12.533  1.00  0.00     0.143 A
HETATM    9  C10 UNL     1      32.285   4.611  11.933  1.00  0.00     0.109 A
HETATM   10  N6  UNL     1      33.040   5.269  11.042  1.00  0.00    -0.340 N
ATOM     11  H6  UNL     1      33.848   4.816  10.615  1.00  0.00     0.167 HD
HETATM   12  C11 UNL     1      32.722   6.525  10.718  1.00  0.00     0.160 A
HETATM   13  C12 UNL     1      33.554   7.232   9.741  1.00  0.00     0.121 C
HETATM   14  N7  UNL     1      34.236   7.769   8.956  1.00  0.00    -0.190 NA
HETATM   15  C13 UNL     1      31.664   7.169  11.248  1.00  0.00     0.162 A
HETATM   16  N10 UNL     1      30.852   6.488  12.187  1.00  0.00    -0.311 N
ENDROOT
BRANCH  15  17
HETATM   17  N8  UNL     1      31.338   8.365  11.063  1.00  0.00    -0.289 N
ATOM     18  H8  UNL     1      30.587   8.535  10.394  1.00  0.00     0.188 HD
BRANCH  17  19
HETATM   19  N9  UNL     1      31.884   9.462  11.663  1.00  0.00    -0.344 N
ATOM     20  H92 UNL     1      32.368  10.107  11.040  1.00  0.00     0.176 HD
ATOM     21  H91 UNL     1      31.854   9.692  12.655  1.00  0.00     0.176 HD
ENDBRANCH  17  19
ENDBRANCH  15  17
BRANCH  16  22
HETATM   22  C14 UNL     1      29.683   7.179  12.549  1.00  0.00     0.166 C
BRANCH  22  23
HETATM   23  C15 UNL     1      28.733   7.190  11.336  1.00  0.00     0.167 C
BRANCH  23  24
HETATM   24  O2  UNL     1      28.342   8.415  10.871  1.00  0.00    -0.391 OA
ATOM     25  H2  UNL     1      28.055   9.047  11.519  1.00  0.00     0.210 HD
ENDBRANCH  23  24
BRANCH  23  26
HETATM   26  C16 UNL     1      27.426   6.426  11.590  1.00  0.00     0.177 C
BRANCH  26  27
HETATM   27  O3  UNL     1      27.642   5.046  11.319  1.00  0.00    -0.390 OA
ATOM     28  H3  UNL     1      27.094   4.530  11.899  1.00  0.00     0.210 HD
ENDBRANCH  26  27
BRANCH  26  29
HETATM   29  C17 UNL     1      26.378   6.795  10.576  1.00  0.00     0.151 C
BRANCH  29  30
HETATM   30  O4  UNL     1      26.994   6.423   9.305  1.00  0.00    -0.393 OA
ATOM     31  H4  UNL     1      26.248   6.297   8.729  1.00  0.00     0.210 HD
ENDBRANCH  29  30
BRANCH  29  32
HETATM   32  C18 UNL     1      25.184   5.907  10.604  1.00  0.00     0.060 C
BRANCH  32  33
HETATM   33  C19 UNL     1      24.017   6.314  11.413  1.00  0.00     0.166 C
BRANCH  33  34
HETATM   34  O5  UNL     1      24.063   6.305  12.760  1.00  0.00    -0.401 OA
ATOM     35  H5  UNL     1      24.157   5.493  13.245  1.00  0.00     0.209 HD
ENDBRANCH  33  34
ENDBRANCH  32  33
ENDBRANCH  29  32
ENDBRANCH  26  29
ENDBRANCH  23  26
ENDBRANCH  22  23
ENDBRANCH  16  22
BRANCH   1  36
HETATM   36  N3  UNL     1      33.798   2.772  11.621  1.00  0.00    -0.295 N
HETATM   37  N2  UNL     1      34.806   2.419  12.301  1.00  0.00    -0.282 N
ATOM     38  H2  UNL     1      34.787   2.538  13.314  1.00  0.00     0.188 HD
ATOM     39  H3  UNL     1      33.803   2.659  10.608  1.00  0.00     0.187 HD
BRANCH  37  40
HETATM   40  C4  UNL     1      35.965   1.861  11.693  1.00  0.00     0.169 A
HETATM   41  C3  UNL     1      36.659   2.643  10.801  1.00  0.00     0.102 A
HETATM   42  C2  UNL     1      37.781   2.118  10.205  1.00  0.00     0.005 A
HETATM   43  N1  UNL     1      36.213   3.978  10.503  1.00  0.00    -0.098 NA
HETATM   44  C1  UNL     1      38.518   2.982   9.241  1.00  0.00     0.053 C
HETATM   45  C21 UNL     1      38.175   0.848  10.511  1.00  0.00     0.144 A
HETATM   46  C20 UNL     1      37.442   0.115  11.411  1.00  0.00     0.301 A
HETATM   47  N11 UNL     1      36.346   0.612  11.999  1.00  0.00    -0.205 N
HETATM   48  O6  UNL     1      37.791  -1.069  11.708  1.00  0.00    -0.263 OA
BRANCH  45  49
HETATM   49  O7  UNL     1      39.303   0.323   9.911  1.00  0.00    -0.355 OA
ATOM     50  H7  UNL     1      39.404   0.384   8.968  1.00  0.00     0.218 HD
ENDBRANCH  45  49
BRANCH  47  51
HETATM   51  N12 UNL     1      35.608  -0.159  12.920  1.00  0.00    -0.334 N
ATOM     52 2H12 UNL     1      35.237  -1.073  12.659  1.00  0.00     0.177 HD
ATOM     53 1H12 UNL     1      35.433   0.185  13.865  1.00  0.00     0.177 HD
ENDBRANCH  47  51
ENDBRANCH  37  40
ENDBRANCH   1  36
TORSDOF 16
ENDMDL