MODEL 5
REMARK VINA RESULT: -7.246743730      3.375      6.339
REMARK  9 active torsions:
REMARK  status: ('A' for Active; 'I' for Inactive)
REMARK    1  A    between atoms: C2_2  and  N1_3
REMARK    2  A    between atoms: N1_3  and  C3_5
REMARK    3  A    between atoms: C3_5  and  N2_7
REMARK    4  A    between atoms: C4_8  and  C5_9
REMARK       I    between atoms: C5_9  and  N3_11
REMARK    5  A    between atoms: N3_11  and  C6_13
REMARK    6  A    between atoms: C13_22  and  N4_23
REMARK       I    between atoms: N4_23  and  C14_25
REMARK    7  A    between atoms: C14_25  and  C15_27
REMARK    8  A    between atoms: C15_27  and  C16_28
REMARK    9  A    between atoms: C16_28  and  C17_29
REMARK       I    between atoms: C17_29  and  N5_31
ROOT
HETATM    1  N2  UNL     1       3.122  19.994   6.719  1.00  0.00    -0.331 N
HETATM    2  C4  UNL     1       4.325  20.203   5.946  1.00  0.00     0.182 C
HETATM    3  C12 UNL     1       4.383  21.445   5.128  1.00  0.00     0.060 C
HETATM    4  C13 UNL     1       3.468  22.541   5.698  1.00  0.00     0.094 C
HETATM    5  C19 UNL     1       2.139  21.910   5.753  1.00  0.00     0.046 C
HETATM    6  C20 UNL     1       0.977  22.833   5.884  1.00  0.00    -0.000 C
HETATM    7  C21 UNL     1       1.041  23.727   7.092  1.00  0.00     0.011 C
HETATM    8  C22 UNL     1      -0.240  21.915   5.929  1.00  0.00     0.080 C
HETATM    9  S2  UNL     1       0.407  20.403   6.763  1.00  0.00    -0.143 SA
HETATM   10  C23 UNL     1       2.127  20.987   6.951  1.00  0.00     0.156 C
ENDROOT
BRANCH   2  11
HETATM   11  C5  UNL     1       5.495  20.232   6.903  1.00  0.00     0.245 C
HETATM   12  O1  UNL     1       5.566  21.167   7.697  1.00  0.00    -0.271 OA
HETATM   13  N3  UNL     1       6.420  19.185   6.816  1.00  0.00    -0.324 N
ATOM     14  H3  UNL     1       6.230  18.477   6.107  1.00  0.00     0.169 HD
BRANCH  13  15
HETATM   15  C6  UNL     1       7.589  18.989   7.597  1.00  0.00     0.058 A
HETATM   16  C7  UNL     1       8.556  19.943   7.751  1.00  0.00     0.031 A
HETATM   17  C8  UNL     1       9.668  19.666   8.534  1.00  0.00     0.004 A
HETATM   18  C9  UNL     1       9.844  18.467   9.168  1.00  0.00     0.026 A
HETATM   19  C10 UNL     1       8.878  17.513   9.014  1.00  0.00     0.058 A
HETATM   20 CL1  UNL     1       9.009  15.929   9.793  1.00  0.00    -0.082 Cl
HETATM   21  C11 UNL     1       7.773  17.761   8.248  1.00  0.00     0.082 A
HETATM   22 CL2  UNL     1       6.535  16.499   8.066  1.00  0.00    -0.080 Cl
ENDBRANCH  13  15
ENDBRANCH   2  11
BRANCH   1  23
HETATM   23  C3  UNL     1       2.952  18.691   7.274  1.00  0.00     0.171 C
HETATM   24  S1  UNL     1       3.425  17.405   6.341  1.00  0.00    -0.041 SA
BRANCH  23  25
HETATM   25  N1  UNL     1       2.395  18.445   8.556  1.00  0.00    -0.367 N
ATOM     26  H1  UNL     1       2.335  19.191   9.249  1.00  0.00     0.161 HD
BRANCH  25  27
HETATM   27  C2  UNL     1       1.911  17.108   8.861  1.00  0.00     0.117 C
HETATM   28  C1  UNL     1       2.807  16.402   9.847  1.00  0.00     0.026 C
ENDBRANCH  25  27
ENDBRANCH  23  25
ENDBRANCH   1  23
BRANCH   4  29
HETATM   29  N4  UNL     1       3.543  23.742   4.924  1.00  0.00    -0.356 N
HETATM   30  C14 UNL     1       4.102  24.957   5.367  1.00  0.00     0.218 C
HETATM   31  O2  UNL     1       4.577  25.021   6.517  1.00  0.00    -0.274 OA
ATOM     32  H4  UNL     1       3.162  23.717   3.978  1.00  0.00     0.162 HD
BRANCH  30  33
HETATM   33  C15 UNL     1       4.134  26.142   4.498  1.00  0.00     0.112 C
BRANCH  33  34
HETATM   34  C16 UNL     1       5.491  26.672   4.186  1.00  0.00     0.112 C
BRANCH  34  35
HETATM   35  C17 UNL     1       6.493  25.666   3.796  1.00  0.00     0.217 C
HETATM   36  O3  UNL     1       6.557  25.237   2.633  1.00  0.00    -0.274 OA
HETATM   37  N5  UNL     1       7.389  25.197   4.783  1.00  0.00    -0.365 N
HETATM   38  C18 UNL     1       8.386  24.210   4.426  1.00  0.00     0.149 C
ATOM     39  H5  UNL     1       7.333  25.550   5.737  1.00  0.00     0.161 HD
ENDBRANCH  34  35
ENDBRANCH  33  34
ENDBRANCH  30  33
ENDBRANCH   4  29
TORSDOF 9
ENDMDL