MODEL 5
REMARK VINA RESULT: -8.706495039      1.382      2.802
REMARK  10 active torsions:
REMARK  status: ('A' for Active; 'I' for Inactive)
REMARK    1  A    between atoms: C2_2  and  N1_3
REMARK    2  A    between atoms: N1_3  and  C3_4
REMARK    3  A    between atoms: N1_3  and  S1_40
REMARK    4  A    between atoms: C3_4  and  C4_5
REMARK    5  A    between atoms: C3_4  and  C19_37
REMARK    6  A    between atoms: C4_5  and  O1_6
REMARK    7  A    between atoms: C4_5  and  N2_8
REMARK       I    between atoms: N2_8  and  C5_10
REMARK       I    between atoms: C5_10  and  N3_12
REMARK    8  A    between atoms: N3_12  and  C6_14
REMARK    9  A    between atoms: C9_19  and  N5_20
REMARK   10  A    between atoms: N5_20  and  C10_22
ROOT
HETATM    1  C6  UNL     1       9.374  19.359   8.532  1.00  0.00     0.117 A
HETATM    2  N4  UNL     1       8.230  19.365   7.754  1.00  0.00    -0.351 N
ATOM      3  H4  UNL     1       8.017  20.208   7.221  1.00  0.00     0.166 HD
HETATM    4  C7  UNL     1       7.398  18.347   7.660  1.00  0.00     0.107 A
HETATM    5  C8  UNL     1       7.606  17.179   8.341  1.00  0.00     0.053 A
HETATM    6  C9  UNL     1       6.932  15.981   8.443  1.00  0.00     0.134 A
HETATM    7  N6  UNL     1       7.659  15.228   9.286  1.00  0.00    -0.284 N
ATOM      8  H6  UNL     1       7.422  14.277   9.568  1.00  0.00     0.188 HD
HETATM    9  N7  UNL     1       8.723  15.892   9.698  1.00  0.00    -0.298 N
ATOM     10  H7  UNL     1       9.425  15.529  10.343  1.00  0.00     0.187 HD
HETATM   11  C16 UNL     1       8.749  17.130   9.138  1.00  0.00     0.073 A
HETATM   12  C17 UNL     1       9.610  18.201   9.226  1.00  0.00     0.011 A
HETATM   13  C18 UNL     1      10.797  18.061  10.086  1.00  0.00     0.054 C
ENDROOT
BRANCH   1  14
HETATM   14  N3  UNL     1      10.034  20.411   8.501  1.00  0.00    -0.294 N
HETATM   15  C5  UNL     1      10.575  21.236   7.517  1.00  0.00     0.327 C
HETATM   16  N2  UNL     1       9.842  22.233   6.846  1.00  0.00    -0.291 N
HETATM   17  O2  UNL     1      11.815  20.987   7.292  1.00  0.00    -0.247 OA
ATOM     18  H2  UNL     1       8.876  22.313   7.164  1.00  0.00     0.172 HD
ATOM     19  H3  UNL     1      10.231  20.761   9.439  1.00  0.00     0.172 HD
BRANCH  16  20
HETATM   20  C4  UNL     1      10.169  23.126   5.840  1.00  0.00     0.143 C
BRANCH  20  21
HETATM   21  C3  UNL     1       9.971  23.122   4.376  1.00  0.00     0.170 C
BRANCH  21  22
HETATM   22  N1  UNL     1      11.229  23.130   3.695  1.00  0.00    -0.331 N
BRANCH  22  23
HETATM   23  C2  UNL     1      11.079  23.644   2.331  1.00  0.00     0.128 C
HETATM   24  C1  UNL     1      10.306  24.917   2.220  1.00  0.00     0.027 C
ENDBRANCH  22  23
BRANCH  22  25
HETATM   25  S1  UNL     1      12.471  21.914   3.808  1.00  0.00     0.016 S
HETATM   26  C22 UNL     1      12.779  21.672   1.995  1.00  0.00     0.136 C
HETATM   27  C23 UNL     1      13.837  22.856   4.775  1.00  0.00     0.136 C
HETATM   28  O3  UNL     1      13.109  20.377   4.247  1.00  0.00    -0.251 OA
ENDBRANCH  22  25
ENDBRANCH  21  22
BRANCH  21  29
HETATM   29  C19 UNL     1       8.998  22.038   4.161  1.00  0.00     0.009 C
HETATM   30  C20 UNL     1       7.613  22.673   4.480  1.00  0.00     0.012 C
HETATM   31  C21 UNL     1       8.773  21.374   2.886  1.00  0.00     0.012 C
ENDBRANCH  21  29
ENDBRANCH  20  21
BRANCH  20  32
HETATM   32  O1  UNL     1      10.778  24.195   6.281  1.00  0.00    -0.348 OA
ATOM     33  H1  UNL     1      11.114  24.103   7.164  1.00  0.00     0.219 HD
ENDBRANCH  20  32
ENDBRANCH  16  20
ENDBRANCH   1  14
BRANCH   6  34
HETATM   34  N5  UNL     1       5.834  15.697   7.829  1.00  0.00    -0.338 N
ATOM     35  H5  UNL     1       5.882  15.178   6.952  1.00  0.00     0.167 HD
BRANCH  34  36
HETATM   36  C10 UNL     1       4.567  16.079   8.326  1.00  0.00     0.077 A
HETATM   37  C11 UNL     1       3.876  17.111   7.727  1.00  0.00     0.062 A
HETATM   38 CL1  UNL     1       4.503  17.987   6.347  1.00  0.00    -0.082 Cl
HETATM   39  C12 UNL     1       2.644  17.472   8.226  1.00  0.00     0.026 A
HETATM   40  C13 UNL     1       2.064  16.841   9.312  1.00  0.00     0.003 A
HETATM   41  C14 UNL     1       2.768  15.815   9.896  1.00  0.00     0.026 A
HETATM   42  C15 UNL     1       4.009  15.435   9.410  1.00  0.00     0.062 A
HETATM   43 CL2  UNL     1       4.818  14.116  10.231  1.00  0.00    -0.082 Cl
ENDBRANCH  34  36
ENDBRANCH   6  34
TORSDOF 10
ENDMDL