MODEL 4
REMARK VINA RESULT: -6.250773581      4.490      6.506
REMARK  7 active torsions:
REMARK  status: ('A' for Active; 'I' for Inactive)
REMARK    1  A    between atoms: C2_2  and  C3_3
REMARK    2  A    between atoms: C3_3  and  C4_4
REMARK    3  A    between atoms: C4_4  and  C5_5
REMARK    4  A    between atoms: C10_13  and  C11_14
REMARK    5  A    between atoms: C11_14  and  C12_15
REMARK    6  A    between atoms: C12_15  and  N2_16
REMARK    7  A    between atoms: C16_24  and  C17_25
ROOT
HETATM    1  C5  UNL     1       2.928  18.520   7.346  1.00  0.00    -0.006 C
HETATM    2  C6  UNL     1       1.699  19.340   7.176  1.00  0.00     0.007 C
HETATM    3  C7  UNL     1       1.897  20.808   7.068  1.00  0.00     0.020 C
HETATM    4  C8  UNL     1       0.590  21.576   7.291  1.00  0.00     0.122 C
HETATM    5  N1  UNL     1      -0.468  20.994   6.507  1.00  0.00    -0.359 N
ATOM      6  H1  UNL     1      -0.594  19.983   6.559  1.00  0.00     0.162 HD
HETATM    7  C9  UNL     1      -1.342  21.722   5.672  1.00  0.00     0.240 C
HETATM    8  O1  UNL     1      -2.524  21.312   5.552  1.00  0.00    -0.271 OA
HETATM    9  C10 UNL     1      -0.934  22.964   4.918  1.00  0.00     0.180 C
HETATM   10  N3  UNL     1      -0.778  22.639   3.520  1.00  0.00    -0.341 N
HETATM   11  C14 UNL     1      -1.935  21.952   2.934  1.00  0.00     0.153 C
HETATM   12  C15 UNL     1       0.352  22.900   2.711  1.00  0.00     0.245 C
HETATM   13  O2  UNL     1       0.728  21.899   1.974  1.00  0.00    -0.271 OA
HETATM   14  C16 UNL     1       1.134  24.132   2.603  1.00  0.00     0.209 C
HETATM   15  N4  UNL     1       1.349  24.874   3.798  1.00  0.00    -0.345 N
ATOM     16  H4  UNL     1       0.558  25.403   4.166  1.00  0.00     0.163 HD
HETATM   17  C18 UNL     1       2.566  24.941   4.522  1.00  0.00     0.218 C
HETATM   18  O3  UNL     1       2.754  25.983   5.204  1.00  0.00    -0.274 OA
HETATM   19  C19 UNL     1       3.603  23.903   4.532  1.00  0.00     0.103 C
HETATM   20  C20 UNL     1       4.765  24.172   3.631  1.00  0.00     0.009 C
HETATM   21  C21 UNL     1       6.085  23.785   4.315  1.00  0.00     0.001 C
HETATM   22  C22 UNL     1       5.901  22.549   5.152  1.00  0.00     0.002 C
HETATM   23  C23 UNL     1       6.907  21.475   4.846  1.00  0.00     0.020 C
HETATM   24  C24 UNL     1       6.681  20.351   5.857  1.00  0.00     0.122 C
HETATM   25  N5  UNL     1       5.996  19.231   5.247  1.00  0.00    -0.361 N
ATOM     26  H5  UNL     1       6.486  18.698   4.528  1.00  0.00     0.162 HD
HETATM   27  C25 UNL     1       4.677  18.836   5.599  1.00  0.00     0.217 C
HETATM   28  O4  UNL     1       3.947  18.248   4.786  1.00  0.00    -0.274 OA
HETATM   29  C26 UNL     1       4.217  19.168   6.997  1.00  0.00     0.107 C
ENDROOT
BRANCH   9  30
HETATM   30  C11 UNL     1      -2.028  23.984   5.188  1.00  0.00     0.062 C
BRANCH  30  31
HETATM   31  C12 UNL     1      -1.322  25.148   5.888  1.00  0.00     0.234 C
BRANCH  31  32
HETATM   32  N2  UNL     1      -1.069  24.827   7.280  1.00  0.00    -0.079 N
HETATM   33  C13 UNL     1       0.215  25.345   7.690  1.00  0.00     0.266 C
ATOM     34  H22 UNL     1      -1.822  25.152   7.887  1.00  0.00     0.276 HD
ATOM     35  H21 UNL     1      -1.150  23.826   7.460  1.00  0.00     0.276 HD
ENDBRANCH  31  32
ENDBRANCH  30  31
ENDBRANCH   9  30
BRANCH  14  36
HETATM   36  C17 UNL     1       0.637  25.050   1.499  1.00  0.00     0.210 C
HETATM   37 CL1  UNL     1      -0.867  25.876   1.969  1.00  0.00    -0.105 Cl
HETATM   38 CL2  UNL     1       1.841  26.269   1.027  1.00  0.00    -0.105 Cl
ENDBRANCH  14  36
BRANCH   1  39
HETATM   39  C4  UNL     1       2.950  17.748   8.644  1.00  0.00     0.005 C
BRANCH  39  40
HETATM   40  C3  UNL     1       3.194  16.296   8.558  1.00  0.00     0.000 C
BRANCH  40  41
HETATM   41  C2  UNL     1       4.623  15.873   8.710  1.00  0.00    -0.005 C
HETATM   42  C1  UNL     1       4.671  14.378   9.072  1.00  0.00     0.005 C
ENDBRANCH  40  41
ENDBRANCH  39  40
ENDBRANCH   1  39
TORSDOF 7
ENDMDL