MODEL 5
REMARK VINA RESULT: -8.065480505      3.936      7.843
REMARK  9 active torsions:
REMARK  status: ('A' for Active; 'I' for Inactive)
REMARK    1  A    between atoms: C2_2  and  C4_4
REMARK    2  A    between atoms: C4_4  and  N1_5
REMARK    3  A    between atoms: C4_4  and  C23_34
REMARK       I    between atoms: N1_5  and  C5_7
REMARK       I    between atoms: C5_7  and  N2_9
REMARK    4  A    between atoms: C7_11  and  O2_12
REMARK    5  A    between atoms: C9_15  and  C10_16
REMARK       I    between atoms: C10_16  and  N3_18
REMARK    6  A    between atoms: N3_18  and  C11_20
REMARK    7  A    between atoms: C11_20  and  C13_22
REMARK    8  A    between atoms: C11_20  and  C19_30
REMARK       I    between atoms: C23_34  and  N4_36
REMARK    9  A    between atoms: N4_36  and  C24_38
ROOT
HETATM    1  C24 UNL     1      12.428  22.795   6.480  1.00  0.00     0.122 A
HETATM    2  C25 UNL     1      13.874  23.091   6.660  1.00  0.00     0.091 C
HETATM    3  N5  UNL     1      15.002  23.301   6.792  1.00  0.00    -0.195 NA
HETATM    4  C26 UNL     1      11.700  22.571   7.756  1.00  0.00     0.050 A
HETATM    5  C27 UNL     1      11.973  21.434   6.854  1.00  0.00     0.050 A
ENDROOT
BRANCH   1   6
HETATM    6  N4  UNL     1      11.807  23.580   5.444  1.00  0.00    -0.337 N
HETATM    7  C23 UNL     1      11.883  23.329   4.066  1.00  0.00     0.242 C
HETATM    8  O4  UNL     1      12.538  22.331   3.664  1.00  0.00    -0.271 OA
ATOM      9  H4  UNL     1      11.263  24.391   5.739  1.00  0.00     0.164 HD
BRANCH   7  10
HETATM   10  C4  UNL     1      11.218  24.203   3.077  1.00  0.00     0.181 C
BRANCH  10  11
HETATM   11  C2  UNL     1      12.060  24.328   1.795  1.00  0.00     0.009 C
HETATM   12  C1  UNL     1      12.925  25.541   1.792  1.00  0.00     0.012 C
HETATM   13  C3  UNL     1      11.325  24.038   0.543  1.00  0.00     0.012 C
ENDBRANCH  10  11
BRANCH  10  14
HETATM   14  N1  UNL     1       9.930  23.592   2.683  1.00  0.00    -0.329 N
HETATM   15  C5  UNL     1       8.849  23.367   3.555  1.00  0.00     0.319 C
HETATM   16  O1  UNL     1       9.010  23.716   4.758  1.00  0.00    -0.247 OA
HETATM   17  N2  UNL     1       7.645  22.789   3.117  1.00  0.00    -0.318 N
HETATM   18  C6  UNL     1       7.378  22.317   1.773  1.00  0.00     0.160 C
HETATM   19  C9  UNL     1       6.403  22.555   3.822  1.00  0.00     0.183 C
HETATM   20  C7  UNL     1       6.056  22.990   1.482  1.00  0.00     0.138 C
HETATM   21  C8  UNL     1       5.351  22.971   2.817  1.00  0.00     0.068 C
ATOM     22  H1  UNL     1       9.817  23.315   1.707  1.00  0.00     0.165 HD
BRANCH  20  23
HETATM   23  O2  UNL     1       5.343  22.418   0.456  1.00  0.00    -0.394 OA
ATOM     24  H2  UNL     1       4.460  22.157   0.691  1.00  0.00     0.210 HD
ENDBRANCH  20  23
BRANCH  19  25
HETATM   25  C10 UNL     1       6.280  21.114   4.232  1.00  0.00     0.241 C
HETATM   26  O3  UNL     1       6.920  20.330   3.506  1.00  0.00    -0.271 OA
HETATM   27  N3  UNL     1       5.528  20.656   5.312  1.00  0.00    -0.345 N
ATOM     28  H3  UNL     1       5.059  21.409   5.815  1.00  0.00     0.163 HD
BRANCH  27  29
HETATM   29  C11 UNL     1       5.268  19.382   5.867  1.00  0.00     0.063 C
HETATM   30  C12 UNL     1       5.374  18.344   4.727  1.00  0.00     0.044 C
BRANCH  29  31
HETATM   31  C13 UNL     1       6.432  19.031   6.765  1.00  0.00    -0.028 A
HETATM   32  C14 UNL     1       7.316  19.938   7.266  1.00  0.00     0.011 A
HETATM   33  C15 UNL     1       8.328  19.531   8.093  1.00  0.00     0.026 A
HETATM   34  C16 UNL     1       8.494  18.214   8.449  1.00  0.00     0.055 A
HETATM   35 CL1  UNL     1       9.767  17.640   9.506  1.00  0.00    -0.083 Cl
HETATM   36  C17 UNL     1       7.601  17.285   7.949  1.00  0.00     0.056 A
HETATM   37 CL2  UNL     1       7.726  15.582   8.349  1.00  0.00    -0.083 Cl
HETATM   38  C18 UNL     1       6.598  17.713   7.124  1.00  0.00     0.035 A
ENDBRANCH  29  31
BRANCH  29  39
HETATM   39  C19 UNL     1       3.992  19.139   6.556  1.00  0.00    -0.022 C
HETATM   40  C20 UNL     1       3.497  17.704   6.462  1.00  0.00     0.017 C
HETATM   41  C21 UNL     1       2.860  19.929   5.867  1.00  0.00     0.017 C
HETATM   42  C22 UNL     1       3.893  19.559   7.995  1.00  0.00     0.017 C
ENDBRANCH  29  39
ENDBRANCH  27  29
ENDBRANCH  19  25
ENDBRANCH  10  14
ENDBRANCH   7  10
ENDBRANCH   1   6
TORSDOF 9
ENDMDL