MODEL 1
REMARK VINA RESULT: -7.711802564      0.000      0.000
REMARK  9 active torsions:
REMARK  status: ('A' for Active; 'I' for Inactive)
REMARK    1  A    between atoms: C7_8  and  C9_10
REMARK    2  A    between atoms: C9_10  and  N1_11
REMARK    3  A    between atoms: C9_10  and  C10_15
REMARK    4  A    between atoms: C11_17  and  O1_18
REMARK    5  A    between atoms: C20_28  and  C21_29
REMARK    6  A    between atoms: C21_29  and  C22_30
REMARK    7  A    between atoms: C22_30  and  C24_33
REMARK       I    between atoms: C24_33  and  N3_35
REMARK    8  A    between atoms: N3_35  and  C25_37
REMARK    9  A    between atoms: C25_37  and  C26_38
ROOT
HETATM    1  C22 UNL     1       7.225  16.811   8.125  1.00  0.00     0.185 C
HETATM    2  C23 UNL     1       8.308  17.136   8.996  1.00  0.00     0.073 C
HETATM    3  N2  UNL     1       9.195  17.355   9.711  1.00  0.00    -0.196 NA
ENDROOT
BRANCH   1   4
HETATM    4  C21 UNL     1       6.117  17.794   7.946  1.00  0.00     0.034 C
BRANCH   4   5
HETATM    5  C20 UNL     1       5.497  17.751   6.586  1.00  0.00    -0.004 C
HETATM    6  C18 UNL     1       4.235  18.569   6.504  1.00  0.00    -0.036 C
HETATM    7  C17 UNL     1       3.989  19.474   7.657  1.00  0.00     0.010 C
HETATM    8  C19 UNL     1       3.103  17.526   6.539  1.00  0.00     0.016 C
HETATM    9  C29 UNL     1       4.271  19.323   5.180  1.00  0.00     0.003 C
HETATM   10  C16 UNL     1       2.762  20.340   7.444  1.00  0.00     0.007 C
HETATM   11  C15 UNL     1       2.526  20.688   6.004  1.00  0.00     0.003 C
HETATM   12  C13 UNL     1       1.506  21.708   5.720  1.00  0.00    -0.034 C
HETATM   13  C30 UNL     1       3.840  20.725   5.248  1.00  0.00     0.026 C
HETATM   14  C5  UNL     1       1.785  23.129   5.920  1.00  0.00    -0.002 C
HETATM   15  C12 UNL     1       0.863  21.382   4.377  1.00  0.00     0.042 C
HETATM   16  C14 UNL     1       0.398  21.370   6.759  1.00  0.00     0.016 C
HETATM   17  C4  UNL     1       3.105  23.640   5.455  1.00  0.00     0.047 C
HETATM   18  C6  UNL     1       0.717  24.036   5.363  1.00  0.00     0.019 C
HETATM   19  C3  UNL     1       4.178  23.066   6.346  1.00  0.00     0.199 C
HETATM   20  C2  UNL     1       4.702  21.804   5.671  1.00  0.00    -0.051 C
HETATM   21  F1  UNL     1       5.172  24.065   6.356  1.00  0.00    -0.245 F
HETATM   22  C1  UNL     1       5.985  21.893   5.538  1.00  0.00     0.017 C
HETATM   23  C7  UNL     1       0.255  23.752   3.989  1.00  0.00     0.011 C
HETATM   24  C8  UNL     1      -1.269  23.476   4.087  1.00  0.00     0.020 C
HETATM   25  C11 UNL     1       0.831  22.494   3.396  1.00  0.00     0.129 C
HETATM   26  C28 UNL     1       5.397  18.823   4.410  1.00  0.00     0.006 C
HETATM   27  C27 UNL     1       6.358  18.173   5.442  1.00  0.00     0.006 C
BRANCH  23  28
HETATM   28  C9  UNL     1       0.328  24.899   3.011  1.00  0.00     0.207 C
BRANCH  28  29
HETATM   29  N1  UNL     1      -0.910  25.056   2.267  1.00  0.00    -0.073 N
ATOM     30  H13 UNL     1      -1.011  24.330   1.557  1.00  0.00     0.274 HD
ATOM     31  H12 UNL     1      -1.720  24.829   2.843  1.00  0.00     0.274 HD
ATOM     32  H11 UNL     1      -0.994  25.987   1.860  1.00  0.00     0.274 HD
ENDBRANCH  28  29
BRANCH  28  33
HETATM   33  C10 UNL     1       0.600  26.245   3.634  1.00  0.00     0.148 C
HETATM   34 CL1  UNL     1       2.351  26.559   3.317  1.00  0.00    -0.128 Cl
ENDBRANCH  28  33
ENDBRANCH  23  28
BRANCH  25  35
HETATM   35  O1  UNL     1      -0.092  22.095   2.392  1.00  0.00    -0.395 OA
ATOM     36  H1  UNL     1      -0.092  21.145   2.415  1.00  0.00     0.210 HD
ENDBRANCH  25  35
ENDBRANCH   4   5
ENDBRANCH   1   4
BRANCH   1  37
HETATM   37  C24 UNL     1       6.635  15.490   8.560  1.00  0.00     0.235 C
HETATM   38  O2  UNL     1       7.355  14.498   8.620  1.00  0.00    -0.272 OA
HETATM   39  N3  UNL     1       5.269  15.460   8.880  1.00  0.00    -0.352 N
ATOM     40  H3  UNL     1       4.731  16.323   8.799  1.00  0.00     0.162 HD
BRANCH  39  41
HETATM   41  C25 UNL     1       4.591  14.261   9.318  1.00  0.00     0.222 C
BRANCH  41  42
HETATM   42  C26 UNL     1       3.711  14.581  10.452  1.00  0.00     0.248 C
HETATM   43  N4  UNL     1       2.668  15.524  10.406  1.00  0.00    -0.061 NA
HETATM   44  O3  UNL     1       3.916  13.957  11.538  1.00  0.00    -0.275 OA
ENDBRANCH  41  42
ENDBRANCH  39  41
ENDBRANCH   1  37
TORSDOF 9
ENDMDL