MODEL 5
REMARK VINA RESULT: -6.996646825      2.417      7.058
REMARK  10 active torsions:
REMARK  status: ('A' for Active; 'I' for Inactive)
REMARK    1  A    between atoms: C4_4  and  C5_5
REMARK    2  A    between atoms: C5_5  and  O2_7
REMARK    3  A    between atoms: O2_7  and  C6_8
REMARK    4  A    between atoms: C6_8  and  C7_9
REMARK    5  A    between atoms: C7_9  and  O3_11
REMARK    6  A    between atoms: C7_9  and  C9_13
REMARK    7  A    between atoms: C11_16  and  O4_17
REMARK    8  A    between atoms: C12_19  and  C13_20
REMARK    9  A    between atoms: C20_29  and  C21_30
REMARK   10  A    between atoms: C22_32  and  O5_33
ROOT
HETATM    1  C9  UNL     1       4.801  17.986   7.677  1.00  0.00     0.005 C
HETATM    2  C10 UNL     1       4.359  16.862   8.166  1.00  0.00     0.029 C
HETATM    3 BR1  UNL     1       2.418  16.716   8.330  1.00  0.00    -0.052 Br
HETATM    4  C11 UNL     1       5.182  15.692   8.587  1.00  0.00     0.189 C
HETATM    5  C12 UNL     1       6.643  15.949   8.549  1.00  0.00    -0.033 C
HETATM    6  C16 UNL     1       6.955  17.400   8.599  1.00  0.00    -0.007 C
HETATM    7  C17 UNL     1       8.137  17.910   9.255  1.00  0.00    -0.002 A
HETATM    8  C18 UNL     1       8.604  17.418  10.487  1.00  0.00     0.031 A
HETATM    9  C19 UNL     1       9.654  18.158  10.937  1.00  0.00     0.089 A
HETATM   10  N1  UNL     1       9.842  19.093  10.009  1.00  0.00    -0.368 N
ATOM     11  H1  UNL     1      10.566  19.809  10.063  1.00  0.00     0.165 HD
HETATM   12  C20 UNL     1       8.957  18.984   8.980  1.00  0.00     0.030 A
HETATM   13  C22 UNL     1       6.300  18.108   7.478  1.00  0.00     0.185 C
ENDROOT
BRANCH   1  14
HETATM   14  C7  UNL     1       3.798  19.029   7.298  1.00  0.00     0.103 C
HETATM   15  C8  UNL     1       2.781  19.324   8.286  1.00  0.00     0.053 C
BRANCH  14  16
HETATM   16  C6  UNL     1       4.611  20.257   6.926  1.00  0.00     0.221 C
BRANCH  16  17
HETATM   17  O2  UNL     1       4.668  20.558   5.615  1.00  0.00    -0.315 OA
BRANCH  17  18
HETATM   18  C5  UNL     1       5.351  20.363   4.483  1.00  0.00     0.283 C
HETATM   19  O1  UNL     1       5.486  19.145   4.120  1.00  0.00    -0.260 OA
BRANCH  18  20
HETATM   20  C4  UNL     1       5.925  21.434   3.686  1.00  0.00     0.084 C
HETATM   21  C2  UNL     1       7.045  22.025   3.810  1.00  0.00    -0.082 C
HETATM   22  C1  UNL     1       7.341  23.135   2.796  1.00  0.00     0.043 C
HETATM   23  C3  UNL     1       8.085  21.759   4.805  1.00  0.00     0.043 C
ENDBRANCH  18  20
ENDBRANCH  17  18
ENDBRANCH  16  17
ENDBRANCH  14  16
BRANCH  14  24
HETATM   24  O3  UNL     1       3.264  18.531   6.088  1.00  0.00    -0.383 OA
ATOM     25  H3  UNL     1       3.853  18.821   5.402  1.00  0.00     0.211 HD
ENDBRANCH  14  24
ENDBRANCH   1  14
BRANCH  13  26
HETATM   26  O5  UNL     1       6.421  17.474   6.217  1.00  0.00    -0.386 OA
ATOM     27  H5  UNL     1       5.538  17.601   5.890  1.00  0.00     0.210 HD
ENDBRANCH  13  26
BRANCH   4  28
HETATM   28  O4  UNL     1       4.682  15.369   9.847  1.00  0.00    -0.386 OA
ATOM     29  H4  UNL     1       4.635  16.207  10.293  1.00  0.00     0.210 HD
ENDBRANCH   4  28
BRANCH   5  30
HETATM   30  C13 UNL     1       7.554  14.868   8.875  1.00  0.00     0.010 C
HETATM   31  C14 UNL     1       8.160  14.257   7.563  1.00  0.00     0.014 C
HETATM   32  C15 UNL     1       6.947  13.607   9.476  1.00  0.00     0.014 C
ENDBRANCH   5  30
BRANCH  12  33
HETATM   33  C21 UNL     1       9.004  19.864   7.804  1.00  0.00     0.142 C
HETATM   34 BR2  UNL     1      10.584  21.028   7.855  1.00  0.00    -0.090 Br
ENDBRANCH  12  33
TORSDOF 10
ENDMDL