MODEL 4
REMARK VINA RESULT: -7.960333585      2.326      2.970
REMARK  11 active torsions:
REMARK  status: ('A' for Active; 'I' for Inactive)
REMARK    1  A    between atoms: C2_2  and  C5_5
REMARK    2  A    between atoms: C5_5  and  N1_6
REMARK    3  A    between atoms: C5_5  and  C25_38
REMARK       I    between atoms: N1_6  and  C6_8
REMARK       I    between atoms: C6_8  and  N2_10
REMARK    4  A    between atoms: N2_10  and  C7_11
REMARK    5  A    between atoms: C7_11  and  C8_12
REMARK    6  A    between atoms: C7_11  and  C21_33
REMARK    7  A    between atoms: C8_12  and  O2_13
REMARK    8  A    between atoms: C8_12  and  N3_15
REMARK    9  A    between atoms: C12_19  and  C13_20
REMARK       I    between atoms: C13_20  and  N4_22
REMARK   10  A    between atoms: N4_22  and  C14_24
REMARK   11  A    between atoms: C14_24  and  C15_25
ROOT
HETATM    1  C21 UNL     1       5.646  24.651   3.411  1.00  0.00     0.082 C
HETATM    2  C22 UNL     1       4.304  24.078   2.891  1.00  0.00     0.035 C
HETATM    3  C23 UNL     1       6.093  25.610   2.311  1.00  0.00     0.035 C
HETATM    4  C24 UNL     1       5.291  25.265   4.649  1.00  0.00     0.072 C
HETATM    5  N5  UNL     1       4.946  25.782   5.654  1.00  0.00    -0.196 NA
ENDROOT
BRANCH   1   6
HETATM    6  C7  UNL     1       6.561  23.494   3.541  1.00  0.00     0.264 C
BRANCH   6   7
HETATM    7  N2  UNL     1       7.897  24.048   3.877  1.00  0.00    -0.381 NA
HETATM    8  C6  UNL     1       9.087  24.544   4.167  1.00  0.00     0.390 C
HETATM    9  N1  UNL     1       9.673  24.291   5.479  1.00  0.00    -0.316 N
HETATM   10  O1  UNL     1       9.789  25.224   3.410  1.00  0.00    -0.231 OA
ATOM     11  H1  UNL     1       9.112  23.928   6.249  1.00  0.00     0.166 HD
BRANCH   9  12
HETATM   12  C5  UNL     1      11.071  24.573   5.642  1.00  0.00     0.195 C
BRANCH  12  13
HETATM   13  C2  UNL     1      11.809  23.394   6.268  1.00  0.00    -0.021 C
HETATM   14  C1  UNL     1      11.564  22.154   5.393  1.00  0.00     0.017 C
HETATM   15  C3  UNL     1      11.439  23.115   7.690  1.00  0.00     0.017 C
HETATM   16  C4  UNL     1      13.313  23.678   6.203  1.00  0.00     0.017 C
ENDBRANCH  12  13
BRANCH  12  17
HETATM   17  C25 UNL     1      11.461  25.846   6.261  1.00  0.00     0.197 C
HETATM   18  O4  UNL     1      11.067  26.350   7.349  1.00  0.00    -0.646 OA
HETATM   19  O5  UNL     1      12.402  26.669   5.533  1.00  0.00    -0.646 OA
ENDBRANCH  12  17
ENDBRANCH   9  12
ENDBRANCH   6   7
BRANCH   6  20
HETATM   20  C8  UNL     1       6.279  22.540   4.642  1.00  0.00     0.153 C
BRANCH  20  21
HETATM   21  O2  UNL     1       7.357  22.564   5.451  1.00  0.00    -0.347 OA
ATOM     22  H2  UNL     1       7.244  23.313   6.025  1.00  0.00     0.219 HD
ENDBRANCH  20  21
BRANCH  20  23
HETATM   23  N3  UNL     1       5.303  21.687   5.087  1.00  0.00    -0.349 N
HETATM   24  C9  UNL     1       4.469  22.136   6.266  1.00  0.00     0.126 C
HETATM   25  C10 UNL     1       3.335  21.209   6.285  1.00  0.00     0.022 C
HETATM   26  C11 UNL     1       3.268  20.678   4.904  1.00  0.00     0.037 C
HETATM   27  C12 UNL     1       4.797  20.394   4.712  1.00  0.00     0.179 C
BRANCH  27  28
HETATM   28  C13 UNL     1       5.182  19.376   5.742  1.00  0.00     0.251 C
HETATM   29  O3  UNL     1       4.505  18.452   6.039  1.00  0.00    -0.270 OA
HETATM   30  N4  UNL     1       6.461  19.571   6.379  1.00  0.00    -0.290 N
ATOM     31  H4  UNL     1       6.951  20.433   6.137  1.00  0.00     0.178 HD
BRANCH  30  32
HETATM   32  C14 UNL     1       7.087  18.768   7.243  1.00  0.00    -0.024 C
BRANCH  32  33
HETATM   33  C15 UNL     1       7.770  18.052   8.227  1.00  0.00     0.070 A
HETATM   34  C16 UNL     1       9.034  18.559   8.713  1.00  0.00     0.055 A
HETATM   35 CL1  UNL     1       9.457  20.138   8.125  1.00  0.00    -0.083 Cl
HETATM   36  C17 UNL     1       9.803  17.846   9.568  1.00  0.00     0.025 A
HETATM   37  C18 UNL     1       9.400  16.574  10.020  1.00  0.00     0.003 A
HETATM   38  C19 UNL     1       8.199  16.077   9.562  1.00  0.00     0.025 A
HETATM   39  C20 UNL     1       7.427  16.777   8.712  1.00  0.00     0.055 A
HETATM   40 CL2  UNL     1       5.904  15.995   8.268  1.00  0.00    -0.083 Cl
ENDBRANCH  32  33
ENDBRANCH  30  32
ENDBRANCH  27  28
ENDBRANCH  20  23
ENDBRANCH   6  20
ENDBRANCH   1   6
TORSDOF 11
ENDMDL