MODEL 4
REMARK VINA RESULT: -7.607335884      2.177      3.447
REMARK  11 active torsions:
REMARK  status: ('A' for Active; 'I' for Inactive)
REMARK    1  A    between atoms: O1_2  and  C2_3
REMARK    2  A    between atoms: C2_3  and  C3_4
REMARK    3  A    between atoms: C8_9  and  C9_10
REMARK       I    between atoms: C9_10  and  N1_12
REMARK    4  A    between atoms: N1_12  and  C10_14
REMARK    5  A    between atoms: C10_14  and  C11_15
REMARK    6  A    between atoms: C13_19  and  C14_20
REMARK    7  A    between atoms: N2_23  and  C15_24
REMARK    8  A    between atoms: C15_24  and  O7_25
REMARK    9  A    between atoms: C15_24  and  N3_27
REMARK   10  A    between atoms: N3_27  and  C16_29
REMARK   11  A    between atoms: C16_29  and  C17_30
ROOT
HETATM    1  C2  UNL     1       2.993  23.830   5.096  1.00  0.00     0.085 C
HETATM    2  C7  UNL     1       4.150  23.818   6.064  1.00  0.00     0.075 C
HETATM    3  C8  UNL     1       4.539  22.369   6.221  1.00  0.00     0.182 C
HETATM    4  N2  UNL     1       3.495  21.618   5.520  1.00  0.00    -0.331 N
HETATM    5  C25 UNL     1       3.233  22.479   4.368  1.00  0.00     0.166 C
ENDROOT
BRANCH   4   6
HETATM    6  C15 UNL     1       2.878  20.428   5.953  1.00  0.00     0.219 C
BRANCH   6   7
HETATM    7  O7  UNL     1       1.564  20.561   6.066  1.00  0.00    -0.332 OA
ATOM      8  H7  UNL     1       1.101  20.140   5.352  1.00  0.00     0.220 HD
ENDBRANCH   6   7
BRANCH   6   9
HETATM    9  N3  UNL     1       3.352  19.178   6.277  1.00  0.00    -0.332 N
ATOM     10  H3  UNL     1       3.271  18.434   5.585  1.00  0.00     0.168 HD
BRANCH   9  11
HETATM   11  C16 UNL     1       3.950  18.873   7.528  1.00  0.00     0.106 C
BRANCH  11  12
HETATM   12  C17 UNL     1       4.473  17.555   7.850  1.00  0.00     0.023 A
HETATM   13  C18 UNL     1       3.672  16.575   8.473  1.00  0.00     0.047 A
HETATM   14 CL1  UNL     1       1.948  16.885   8.538  1.00  0.00    -0.083 Cl
HETATM   15  C19 UNL     1       4.214  15.430   8.997  1.00  0.00     0.032 A
HETATM   16  C20 UNL     1       5.586  15.170   8.950  1.00  0.00    -0.053 A
HETATM   17  C21 UNL     1       6.151  13.908   9.466  1.00  0.00     0.049 C
HETATM   18  C22 UNL     1       6.388  16.134   8.344  1.00  0.00    -0.033 A
HETATM   19  C23 UNL     1       7.873  15.897   8.449  1.00  0.00     0.050 C
HETATM   20  C24 UNL     1       5.825  17.282   7.814  1.00  0.00     0.053 A
HETATM   21 CL2  UNL     1       6.934  18.456   7.080  1.00  0.00    -0.083 Cl
ENDBRANCH  11  12
ENDBRANCH   9  11
ENDBRANCH   6   9
ENDBRANCH   4   6
BRANCH   3  22
HETATM   22  C9  UNL     1       5.831  22.083   5.436  1.00  0.00     0.241 C
HETATM   23  O2  UNL     1       6.038  20.920   5.089  1.00  0.00    -0.271 OA
HETATM   24  N1  UNL     1       6.713  23.141   5.177  1.00  0.00    -0.339 N
ATOM     25  H1  UNL     1       6.448  24.084   5.464  1.00  0.00     0.163 HD
BRANCH  24  26
HETATM   26  C10 UNL     1       8.001  22.940   4.509  1.00  0.00     0.136 A
HETATM   27  C12 UNL     1       9.123  22.202   5.052  1.00  0.00     0.062 A
HETATM   28  C13 UNL     1       9.158  23.657   5.190  1.00  0.00     0.128 A
BRANCH  26  29
HETATM   29  C11 UNL     1       7.831  23.081   3.036  1.00  0.00     0.203 C
HETATM   30  O3  UNL     1       8.202  22.068   2.352  1.00  0.00    -0.646 OA
HETATM   31  O4  UNL     1       7.325  24.165   2.406  1.00  0.00    -0.646 OA
ENDBRANCH  26  29
BRANCH  28  32
HETATM   32  C14 UNL     1      10.008  24.598   4.511  1.00  0.00     0.180 C
HETATM   33  O5  UNL     1      11.065  24.316   3.824  1.00  0.00    -0.648 OA
HETATM   34  O6  UNL     1       9.754  25.982   4.519  1.00  0.00    -0.648 OA
ENDBRANCH  28  32
ENDBRANCH  24  26
ENDBRANCH   3  22
BRANCH   1  35
HETATM   35  O1  UNL     1       1.877  23.720   5.847  1.00  0.00    -0.382 OA
HETATM   36  C1  UNL     1       1.712  24.412   6.991  1.00  0.00     0.202 C
ENDBRANCH   1  35
BRANCH   1  37
HETATM   37  C3  UNL     1       3.082  25.000   4.172  1.00  0.00    -0.018 C
HETATM   38  C4  UNL     1       3.847  26.185   4.633  1.00  0.00     0.018 C
HETATM   39  C5  UNL     1       1.762  25.485   3.632  1.00  0.00     0.018 C
HETATM   40  C6  UNL     1       3.830  24.469   2.922  1.00  0.00     0.018 C
ENDBRANCH   1  37
TORSDOF 11
ENDMDL