MODEL 2
REMARK VINA RESULT: -6.328658310      1.437      1.855
REMARK  8 active torsions:
REMARK  status: ('A' for Active; 'I' for Inactive)
REMARK    1  A    between atoms: C2_2  and  C3_3
REMARK    2  A    between atoms: C3_3  and  C4_4
REMARK    3  A    between atoms: C4_4  and  C5_5
REMARK    4  A    between atoms: C7_10  and  C8_11
REMARK    5  A    between atoms: C14_21  and  C15_22
REMARK    6  A    between atoms: C15_22  and  C16_23
REMARK    7  A    between atoms: C16_23  and  C17_24
REMARK    8  A    between atoms: C17_24  and  N3_25
ROOT
HETATM    1  C5  UNL     1       2.485  21.153   5.050  1.00  0.00     0.177 C
HETATM    2  N1  UNL     1       3.872  21.505   5.374  1.00  0.00    -0.346 N
ATOM      3  H1  UNL     1       4.555  20.758   5.247  1.00  0.00     0.163 HD
HETATM    4  C6  UNL     1       4.386  22.708   5.829  1.00  0.00     0.249 C
HETATM    5  O1  UNL     1       5.010  22.692   6.956  1.00  0.00    -0.271 OA
HETATM    6  C7  UNL     1       4.342  24.060   5.222  1.00  0.00     0.280 C
HETATM    7  N2  UNL     1       4.360  25.101   6.266  1.00  0.00    -0.062 N
ATOM      8  H21 UNL     1       5.272  25.555   6.313  1.00  0.00     0.278 HD
ATOM      9  H22 UNL     1       4.334  24.685   7.197  1.00  0.00     0.278 HD
HETATM   10  C11 UNL     1       3.303  26.074   6.101  1.00  0.00     0.240 C
HETATM   11  C12 UNL     1       2.409  26.234   7.307  1.00  0.00     0.106 C
HETATM   12  C13 UNL     1       0.964  26.287   6.994  1.00  0.00     0.141 C
HETATM   13  O2  UNL     1       0.626  26.985   6.058  1.00  0.00    -0.297 OA
HETATM   14  C14 UNL     1      -0.122  25.584   7.691  1.00  0.00     0.147 C
HETATM   15  C18 UNL     1      -1.380  25.505   6.936  1.00  0.00     0.231 C
HETATM   16  O3  UNL     1      -2.166  26.489   7.250  1.00  0.00    -0.273 OA
HETATM   17  N4  UNL     1      -1.857  24.598   5.983  1.00  0.00    -0.351 N
HETATM   18  C19 UNL     1      -2.620  25.157   4.849  1.00  0.00     0.153 C
HETATM   19  C20 UNL     1      -1.719  23.152   5.944  1.00  0.00     0.166 C
HETATM   20  C21 UNL     1      -1.656  22.706   4.483  1.00  0.00    -0.012 A
HETATM   21  C22 UNL     1      -2.832  22.360   3.858  1.00  0.00     0.013 A
HETATM   22  C23 UNL     1      -2.900  22.025   2.531  1.00  0.00     0.026 A
HETATM   23  C24 UNL     1      -1.751  22.030   1.774  1.00  0.00     0.058 A
HETATM   24 CL1  UNL     1      -1.789  21.610   0.067  1.00  0.00    -0.082 Cl
HETATM   25  C25 UNL     1      -0.569  22.375   2.396  1.00  0.00     0.083 A
HETATM   26 CL2  UNL     1       0.884  22.457   1.351  1.00  0.00    -0.080 Cl
HETATM   27  C26 UNL     1      -0.504  22.711   3.744  1.00  0.00     0.066 A
HETATM   28  N5  UNL     1       0.814  22.996   4.226  1.00  0.00    -0.323 N
ATOM     29  H5  UNL     1       1.247  23.801   3.773  1.00  0.00     0.169 HD
HETATM   30  C27 UNL     1       1.625  22.396   5.189  1.00  0.00     0.245 C
HETATM   31  O4  UNL     1       1.768  22.820   6.359  1.00  0.00    -0.271 OA
ENDROOT
BRANCH  14  32
HETATM   32  C15 UNL     1      -0.268  26.288   9.029  1.00  0.00     0.023 C
BRANCH  32  33
HETATM   33  C16 UNL     1       0.480  27.562   9.149  1.00  0.00     0.028 C
BRANCH  33  34
HETATM   34  C17 UNL     1      -0.419  28.779   9.231  1.00  0.00     0.229 C
BRANCH  34  35
HETATM   35  N3  UNL     1      -0.866  29.174   7.908  1.00  0.00    -0.079 N
ATOM     36  H33 UNL     1      -0.466  28.580   7.181  1.00  0.00     0.274 HD
ATOM     37  H32 UNL     1      -1.851  28.954   7.761  1.00  0.00     0.274 HD
ATOM     38  H31 UNL     1      -0.669  30.160   7.743  1.00  0.00     0.274 HD
ENDBRANCH  34  35
ENDBRANCH  33  34
ENDBRANCH  32  33
ENDBRANCH  14  32
BRANCH   6  39
HETATM   39  C8  UNL     1       5.665  24.259   4.475  1.00  0.00     0.017 C
HETATM   40  C9  UNL     1       5.981  25.726   4.324  1.00  0.00     0.012 C
HETATM   41  C10 UNL     1       5.637  23.640   3.116  1.00  0.00     0.012 C
ENDBRANCH   6  39
BRANCH   1  42
HETATM   42  C4  UNL     1       1.961  20.208   6.142  1.00  0.00     0.035 C
BRANCH  42  43
HETATM   43  C3  UNL     1       3.029  19.269   6.612  1.00  0.00     0.002 C
BRANCH  43  44
HETATM   44  C2  UNL     1       2.434  18.448   7.743  1.00  0.00    -0.004 C
HETATM   45  C1  UNL     1       3.179  17.164   7.977  1.00  0.00     0.005 C
ENDBRANCH  43  44
ENDBRANCH  42  43
ENDBRANCH   1  42
TORSDOF 8
ENDMDL