MODEL 4
REMARK VINA RESULT: -8.539950259      2.813      5.200
REMARK  8 active torsions:
REMARK  status: ('A' for Active; 'I' for Inactive)
REMARK    1  A    between atoms: C2_2  and  C3_3
REMARK    2  A    between atoms: C3_3  and  C13_19
REMARK    3  A    between atoms: N1_4  and  C4_6
REMARK    4  A    between atoms: C4_6  and  C5_8
REMARK    5  A    between atoms: C7_10  and  C8_11
REMARK    6  A    between atoms: C8_11  and  C9_12
REMARK    7  A    between atoms: C14_20  and  S1_21
REMARK    8  A    between atoms: S1_21  and  N3_24
ROOT
HETATM    1  C13 UNL     1       6.731  19.857   6.858  1.00  0.00     0.078 A
HETATM    2  C14 UNL     1       5.923  18.750   7.020  1.00  0.00     0.109 A
HETATM    3  C16 UNL     1       6.404  17.665   7.791  1.00  0.00     0.017 A
HETATM    4  C17 UNL     1       5.609  16.557   7.955  1.00  0.00     0.039 A
HETATM    5  C18 UNL     1       6.042  15.449   8.717  1.00  0.00     0.035 A
HETATM    6 CL1  UNL     1       4.980  14.053   8.900  1.00  0.00    -0.084 Cl
HETATM    7  C19 UNL     1       7.279  15.489   9.293  1.00  0.00     0.033 A
HETATM    8  C20 UNL     1       8.083  16.597   9.128  1.00  0.00    -0.033 A
HETATM    9  C21 UNL     1       9.455  16.609   9.771  1.00  0.00     0.050 C
HETATM   10  C22 UNL     1       7.647  17.670   8.389  1.00  0.00     0.053 A
HETATM   11  N4  UNL     1       8.416  18.733   8.235  1.00  0.00    -0.322 N
ATOM     12  H4  UNL     1       9.338  18.764   8.670  1.00  0.00     0.169 HD
HETATM   13  C23 UNL     1       7.986  19.768   7.510  1.00  0.00     0.259 A
HETATM   14  O3  UNL     1       8.737  20.758   7.389  1.00  0.00    -0.267 OA
ENDROOT
BRANCH   1  15
HETATM   15  C3  UNL     1       6.380  21.008   6.007  1.00  0.00     0.023 C
HETATM   16  N1  UNL     1       6.673  21.122   4.678  1.00  0.00    -0.376 N
ATOM     17  H1  UNL     1       6.495  20.316   4.078  1.00  0.00     0.160 HD
BRANCH  15  18
HETATM   18  C2  UNL     1       5.413  21.950   6.708  1.00  0.00     0.053 C
HETATM   19  C1  UNL     1       4.414  22.672   5.864  1.00  0.00     0.011 C
ENDBRANCH  15  18
BRANCH  16  20
HETATM   20  C4  UNL     1       7.204  22.278   4.089  1.00  0.00     0.184 C
HETATM   21 BR1  UNL     1       8.393  21.536   2.643  1.00  0.00    -0.067 Br
BRANCH  20  22
HETATM   22  C5  UNL     1       8.013  23.253   4.757  1.00  0.00     0.221 C
HETATM   23  C6  UNL     1       9.138  23.857   3.855  1.00  0.00     0.069 C
HETATM   24  C7  UNL     1       9.827  24.133   5.231  1.00  0.00     0.189 C
HETATM   25  N2  UNL     1       9.183  22.829   5.551  1.00  0.00    -0.064 N
ATOM     26  H22 UNL     1       9.071  22.529   6.520  1.00  0.00     0.278 HD
ATOM     27  H21 UNL     1       9.659  21.950   5.346  1.00  0.00     0.278 HD
BRANCH  24  28
HETATM   28  C8  UNL     1      11.264  24.207   4.985  1.00  0.00     0.041 C
BRANCH  28  29
HETATM   29  C9  UNL     1      12.158  24.518   6.165  1.00  0.00    -0.050 C
HETATM   30  C10 UNL     1      13.554  24.911   5.598  1.00  0.00     0.014 C
HETATM   31  C11 UNL     1      12.389  23.313   7.035  1.00  0.00     0.014 C
HETATM   32  C12 UNL     1      11.659  25.669   6.972  1.00  0.00     0.014 C
ENDBRANCH  28  29
ENDBRANCH  24  28
ENDBRANCH  20  22
ENDBRANCH  16  20
ENDBRANCH   1  15
BRANCH   2  33
HETATM   33  S1  UNL     1       4.344  18.658   6.433  1.00  0.00     0.260 S
HETATM   34  O1  UNL     1       4.212  19.296   4.993  1.00  0.00    -0.200 OA
HETATM   35  O2  UNL     1       3.696  17.313   6.321  1.00  0.00    -0.200 OA
BRANCH  33  36
HETATM   36  N3  UNL     1       3.249  19.581   7.345  1.00  0.00    -0.320 N
HETATM   37  C15 UNL     1       1.993  19.929   6.823  1.00  0.00     0.159 C
ATOM     38  H3  UNL     1       3.506  19.885   8.285  1.00  0.00     0.171 HD
ENDBRANCH  33  36
ENDBRANCH   2  33
TORSDOF 8
ENDMDL