MODEL 1
REMARK VINA RESULT: -6.391746824      0.000      0.000
REMARK  15 active torsions:
REMARK  status: ('A' for Active; 'I' for Inactive)
REMARK    1  A    between atoms: C3_7  and  N3_8
REMARK    2  A    between atoms: C6_13  and  N5_14
REMARK    3  A    between atoms: C7_19  and  N7_20
REMARK    4  A    between atoms: N9_25  and  C10_27
REMARK    5  A    between atoms: C10_27  and  C11_28
REMARK    6  A    between atoms: C11_28  and  O1_29
REMARK    7  A    between atoms: C11_28  and  C12_31
REMARK    8  A    between atoms: C12_31  and  O2_32
REMARK    9  A    between atoms: C12_31  and  C13_34
REMARK   10  A    between atoms: C13_34  and  O3_35
REMARK   11  A    between atoms: C13_34  and  C14_37
REMARK   12  A    between atoms: C14_37  and  O4_38
REMARK   13  A    between atoms: C14_37  and  O5_40
REMARK   14  A    between atoms: C16_48  and  O6_49
REMARK   15  A    between atoms: C17_51  and  O7_52
ROOT
HETATM    1  N1  UNL     1      18.324  -4.672  22.994  1.00  0.00    -0.195 NA
HETATM    2  C1  UNL     1      17.872  -4.261  21.990  1.00  0.00     0.095 C
HETATM    3  C2  UNL     1      17.298  -3.732  20.754  1.00  0.00     0.325 C
HETATM    4  N2  UNL     1      17.358  -4.703  19.706  1.00  0.00    -0.032 N
ATOM      5  H21 UNL     1      17.924  -5.511  19.966  1.00  0.00     0.281 HD
ATOM      6  H22 UNL     1      17.916  -4.379  18.916  1.00  0.00     0.281 HD
HETATM    7  C3  UNL     1      16.039  -5.078  19.312  1.00  0.00     0.326 C
HETATM    8  C16 UNL     1      15.219  -3.850  19.674  1.00  0.00     0.200 C
HETATM    9  C17 UNL     1      15.810  -3.493  21.029  1.00  0.00     0.195 C
ENDROOT
BRANCH   9  10
HETATM   10  O7  UNL     1      15.566  -2.132  21.291  1.00  0.00    -0.390 OA
ATOM     11  H7  UNL     1      16.224  -1.588  20.875  1.00  0.00     0.210 HD
ENDBRANCH   9  10
BRANCH   7  12
HETATM   12  N3  UNL     1      15.921  -5.361  17.910  1.00  0.00    -0.295 N
HETATM   13  C4  UNL     1      16.885  -5.175  16.990  1.00  0.00     0.187 A
HETATM   14  N4  UNL     1      16.412  -5.554  15.801  1.00  0.00    -0.346 N
HETATM   15  C5  UNL     1      15.147  -5.986  15.926  1.00  0.00     0.123 A
ATOM     16  H4  UNL     1      16.934  -5.520  14.925  1.00  0.00     0.167 HD
HETATM   17  C6  UNL     1      14.197  -6.481  15.061  1.00  0.00     0.145 A
HETATM   18  C15 UNL     1      14.853  -5.854  17.281  1.00  0.00     0.157 A
HETATM   19  N6  UNL     1      13.007  -6.820  15.576  1.00  0.00    -0.172 N
HETATM   20  C7  UNL     1      12.710  -6.695  16.905  1.00  0.00     0.720 A
ATOM     21  H6  UNL     1      12.291  -7.188  14.950  1.00  0.00     0.186 HD
HETATM   22  N12 UNL     1      13.637  -6.214  17.728  1.00  0.00    -0.171 N
ATOM     23  H12 UNL     1      13.421  -6.117  18.720  1.00  0.00     0.186 HD
BRANCH  17  24
HETATM   24  N5  UNL     1      14.460  -6.608  13.795  1.00  0.00    -0.383 N
ATOM     25  H52 UNL     1      15.089  -5.969  13.306  1.00  0.00     0.157 HD
ATOM     26  H51 UNL     1      14.039  -7.361  13.251  1.00  0.00     0.157 HD
ENDBRANCH  17  24
BRANCH  20  27
HETATM   27  N7  UNL     1      11.416  -7.102  17.314  1.00  0.00    -0.005 N
HETATM   28  N8  UNL     1      11.024  -6.992  18.650  1.00  0.00    -0.274 N
HETATM   29  C8  UNL     1      10.029  -7.627  19.147  1.00  0.00     0.158 C
ATOM     30  H8  UNL     1      11.557  -6.374  19.262  1.00  0.00     0.188 HD
HETATM   31  C9  UNL     1       9.271  -8.514  18.251  1.00  0.00     0.131 C
HETATM   32  N9  UNL     1       8.266  -9.174  18.703  1.00  0.00    -0.372 N
HETATM   33  N10 UNL     1       9.706  -8.593  16.906  1.00  0.00    -0.266 N
ATOM     34  H9  UNL     1       8.031  -9.050  19.688  1.00  0.00     0.161 HD
HETATM   35  N11 UNL     1      10.556  -7.627  16.330  1.00  0.00     0.018 NA
ATOM     36  H10 UNL     1       9.392  -9.375  16.333  1.00  0.00     0.186 HD
BRANCH  32  37
HETATM   37  C10 UNL     1       7.444 -10.072  17.942  1.00  0.00     0.155 C
BRANCH  37  38
HETATM   38  C11 UNL     1       6.071  -9.464  17.664  1.00  0.00     0.167 C
BRANCH  38  39
HETATM   39  O1  UNL     1       5.145 -10.477  17.452  1.00  0.00    -0.391 OA
ATOM     40  H1  UNL     1       5.123 -11.053  18.208  1.00  0.00     0.210 HD
ENDBRANCH  38  39
BRANCH  38  41
HETATM   41  C12 UNL     1       6.146  -8.515  16.489  1.00  0.00     0.182 C
BRANCH  41  42
HETATM   42  O2  UNL     1       7.126  -8.984  15.589  1.00  0.00    -0.390 OA
ATOM     43  H2  UNL     1       7.958  -8.579  15.807  1.00  0.00     0.210 HD
ENDBRANCH  41  42
BRANCH  41  44
HETATM   44  C13 UNL     1       4.866  -8.442  15.727  1.00  0.00     0.204 C
BRANCH  44  45
HETATM   45  O3  UNL     1       3.806  -7.958  16.490  1.00  0.00    -0.388 OA
ATOM     46  H3  UNL     1       3.020  -7.805  15.979  1.00  0.00     0.210 HD
ENDBRANCH  44  45
BRANCH  44  47
HETATM   47  C14 UNL     1       4.977  -7.767  14.388  1.00  0.00     0.285 C
BRANCH  47  48
HETATM   48  O4  UNL     1       3.687  -7.577  13.892  1.00  0.00    -0.369 OA
ATOM     49  H4  UNL     1       3.670  -6.750  13.425  1.00  0.00     0.212 HD
ENDBRANCH  47  48
BRANCH  47  50
HETATM   50  O5  UNL     1       5.484  -6.471  14.626  1.00  0.00    -0.369 OA
ATOM     51  H5  UNL     1       5.567  -6.049  13.779  1.00  0.00     0.212 HD
ENDBRANCH  47  50
ENDBRANCH  44  47
ENDBRANCH  41  44
ENDBRANCH  38  41
ENDBRANCH  37  38
ENDBRANCH  32  37
ENDBRANCH  20  27
ENDBRANCH   7  12
BRANCH   8  52
HETATM   52  O6  UNL     1      15.520  -2.770  18.826  1.00  0.00    -0.389 OA
ATOM     53  H6  UNL     1      15.590  -1.959  19.315  1.00  0.00     0.210 HD
ENDBRANCH   8  52
TORSDOF 15
ENDMDL