MODEL 3
REMARK VINA RESULT: -5.261088729      8.635     12.347
REMARK  17 active torsions:
REMARK  status: ('A' for Active; 'I' for Inactive)
REMARK    1  A    between atoms: N1_1  and  C1_5
REMARK    2  A    between atoms: C1_5  and  O1_6
REMARK    3  A    between atoms: C1_5  and  C2_8
REMARK    4  A    between atoms: C2_8  and  N2_9
REMARK    5  A    between atoms: C2_8  and  C17_48
REMARK    6  A    between atoms: N2_9  and  C3_11
REMARK    7  A    between atoms: C4_14  and  N4_15
REMARK    8  A    between atoms: N4_15  and  C5_16
REMARK    9  A    between atoms: C6_17  and  O2_18
REMARK   10  A    between atoms: C7_20  and  O3_21
REMARK   11  A    between atoms: C8_23  and  N5_24
REMARK   12  A    between atoms: N5_24  and  C9_26
REMARK   13  A    between atoms: C10_29  and  N6_30
REMARK   14  A    between atoms: N10_42  and  C16_43
REMARK   15  A    between atoms: C16_43  and  O6_44
REMARK   16  A    between atoms: C17_48  and  O7_49
REMARK   17  A    between atoms: C17_48  and  O8_51
ROOT
HETATM    1  C3  UNL     1      13.440  -7.518  14.090  1.00  0.00     0.682 A
HETATM    2  N3  UNL     1      12.545  -7.646  15.057  1.00  0.00    -0.162 N
ATOM      3  H3  UNL     1      11.786  -8.315  14.932  1.00  0.00     0.187 HD
HETATM    4  C4  UNL     1      12.591  -6.916  16.227  1.00  0.00     0.218 A
HETATM    5  C13 UNL     1      13.637  -5.986  16.410  1.00  0.00     0.141 A
HETATM    6  C14 UNL     1      14.540  -5.883  15.384  1.00  0.00     0.154 A
HETATM    7  N9  UNL     1      15.435  -4.931  15.772  1.00  0.00    -0.336 N
ATOM      8  H9  UNL     1      16.240  -4.608  15.236  1.00  0.00     0.168 HD
HETATM    9  C15 UNL     1      15.068  -4.497  16.985  1.00  0.00     0.187 A
HETATM   10  N10 UNL     1      13.946  -5.143  17.405  1.00  0.00    -0.314 N
HETATM   11  N11 UNL     1      14.430  -6.631  14.266  1.00  0.00    -0.174 N
ATOM     12  H11 UNL     1      15.126  -6.519  13.529  1.00  0.00     0.186 HD
ENDROOT
BRANCH   4  13
HETATM   13  N4  UNL     1      11.735  -7.020  17.089  1.00  0.00    -0.415 NA
BRANCH  13  14
HETATM   14  C5  UNL     1      10.639  -7.236  17.823  1.00  0.00     0.247 C
HETATM   15  C6  UNL     1       9.459  -7.635  16.913  1.00  0.00     0.191 C
HETATM   16  C7  UNL     1       8.182  -7.668  17.694  1.00  0.00     0.199 C
HETATM   17  C8  UNL     1       8.401  -8.752  18.764  1.00  0.00     0.257 C
HETATM   18  O5  UNL     1       9.459  -8.352  19.529  1.00  0.00    -0.335 OA
HETATM   19  C10 UNL     1      10.687  -8.356  18.860  1.00  0.00     0.285 C
BRANCH  15  20
HETATM   20  O2  UNL     1       9.736  -8.883  16.409  1.00  0.00    -0.390 OA
ATOM     21  H2  UNL     1       9.574  -8.853  15.474  1.00  0.00     0.210 HD
ENDBRANCH  15  20
BRANCH  16  22
HETATM   22  O3  UNL     1       7.161  -8.044  16.826  1.00  0.00    -0.388 OA
ATOM     23  H3  UNL     1       6.466  -8.433  17.345  1.00  0.00     0.210 HD
ENDBRANCH  16  22
BRANCH  17  24
HETATM   24  N5  UNL     1       7.195  -8.740  19.570  1.00  0.00    -0.340 N
ATOM     25  H5  UNL     1       6.997  -7.973  20.211  1.00  0.00     0.164 HD
BRANCH  24  26
HETATM   26  C9  UNL     1       6.300  -9.836  19.436  1.00  0.00     0.350 C
HETATM   27  O4  UNL     1       5.422  -9.788  18.538  1.00  0.00    -0.284 OA
ENDBRANCH  24  26
ENDBRANCH  17  24
BRANCH  19  28
HETATM   28  N6  UNL     1      11.666  -8.080  19.884  1.00  0.00    -0.255 N
HETATM   29  C11 UNL     1      11.377  -7.593  21.087  1.00  0.00     0.133 A
HETATM   30  C12 UNL     1      12.578  -7.472  21.762  1.00  0.00     0.127 A
HETATM   31  N7  UNL     1      13.512  -7.901  20.902  1.00  0.00    -0.296 N
HETATM   32  N8  UNL     1      12.952  -8.266  19.770  1.00  0.00    -0.239 N
ATOM     33  H7  UNL     1      14.512  -7.938  21.097  1.00  0.00     0.187 HD
ATOM     34  H8  UNL     1      13.437  -8.631  18.949  1.00  0.00     0.208 HD
ENDBRANCH  19  28
ENDBRANCH  13  14
ENDBRANCH   4  13
BRANCH   1  35
HETATM   35  N2  UNL     1      13.352  -8.233  12.992  1.00  0.00    -0.212 N
ATOM     36  H2  UNL     1      13.135  -9.222  13.113  1.00  0.00     0.178 HD
BRANCH  35  37
HETATM   37  C2  UNL     1      13.524  -7.788  11.665  1.00  0.00     0.210 C
BRANCH  37  38
HETATM   38  C1  UNL     1      14.879  -8.252  11.128  1.00  0.00     0.344 C
BRANCH  38  39
HETATM   39  N1  UNL     1      15.822  -7.173  11.255  1.00  0.00    -0.051 N
ATOM     40  H13 UNL     1      16.785  -7.504  11.319  1.00  0.00     0.277 HD
ATOM     41  H12 UNL     1      15.913  -6.633  10.395  1.00  0.00     0.277 HD
ATOM     42  H11 UNL     1      15.556  -6.594  12.052  1.00  0.00     0.277 HD
ENDBRANCH  38  39
BRANCH  38  43
HETATM   43  O1  UNL     1      14.784  -8.614   9.786  1.00  0.00    -0.368 OA
ATOM     44  H1  UNL     1      14.700  -7.828   9.260  1.00  0.00     0.212 HD
ENDBRANCH  38  43
ENDBRANCH  37  38
BRANCH  37  45
HETATM   45  C17 UNL     1      12.468  -8.289  10.688  1.00  0.00     0.281 C
BRANCH  45  46
HETATM   46  O7  UNL     1      12.003  -7.332   9.828  1.00  0.00    -0.369 OA
ATOM     47  H7  UNL     1      11.074  -7.154   9.911  1.00  0.00     0.212 HD
ENDBRANCH  45  46
BRANCH  45  48
HETATM   48  O8  UNL     1      11.447  -8.965  11.333  1.00  0.00    -0.369 OA
ATOM     49  H8  UNL     1      10.976  -8.403  11.937  1.00  0.00     0.212 HD
ENDBRANCH  45  48
ENDBRANCH  37  45
ENDBRANCH  35  37
ENDBRANCH   1  35
BRANCH  10  50
HETATM   50  C16 UNL     1      13.287  -4.963  18.684  1.00  0.00     0.296 C
BRANCH  50  51
HETATM   51  O6  UNL     1      14.184  -5.296  19.691  1.00  0.00    -0.382 OA
ATOM     52  H6  UNL     1      13.701  -5.707  20.399  1.00  0.00     0.211 HD
ENDBRANCH  50  51
ENDBRANCH  10  50
TORSDOF 17
ENDMDL