MODEL 3
REMARK VINA RESULT: -5.444639948      1.512      2.335
REMARK  15 active torsions:
REMARK  status: ('A' for Active; 'I' for Inactive)
REMARK    1  A    between atoms: C1_4  and  N2_5
REMARK    2  A    between atoms: C1_4  and  O8_49
REMARK    3  A    between atoms: N2_5  and  C2_7
REMARK    4  A    between atoms: C4_12  and  N4_13
REMARK    5  A    between atoms: C5_17  and  N5_18
REMARK    6  A    between atoms: C7_21  and  N6_22
REMARK    7  A    between atoms: C9_28  and  C10_29
REMARK    8  A    between atoms: C12_34  and  O4_35
REMARK    9  A    between atoms: C12_34  and  C13_37
REMARK   10  A    between atoms: C13_37  and  O5_38
REMARK   11  A    between atoms: C14_40  and  O6_41
REMARK   12  A    between atoms: O6_41  and  C15_42
REMARK   13  A    between atoms: O8_49  and  C17_50
REMARK   14  A    between atoms: C17_50  and  C18_51
REMARK   15  A    between atoms: C18_51  and  N10_52
ROOT
HETATM    1  C2  UNL     1      13.799  -4.585  18.573  1.00  0.00     0.489 C
HETATM    2  N3  UNL     1      14.147  -3.464  17.724  1.00  0.00    -0.020 N
ATOM      3  H31 UNL     1      14.658  -2.732  18.218  1.00  0.00     0.282 HD
ATOM      4  H32 UNL     1      13.340  -2.901  17.454  1.00  0.00     0.282 HD
HETATM    5  C3  UNL     1      14.872  -3.998  16.590  1.00  0.00     0.255 C
HETATM    6  C4  UNL     1      16.385  -4.115  16.818  1.00  0.00     0.240 C
HETATM    7  C5  UNL     1      16.303  -5.541  16.292  1.00  0.00     0.147 C
HETATM    8  C16 UNL     1      14.825  -5.507  16.712  1.00  0.00     0.247 C
HETATM    9  N9  UNL     1      14.636  -5.675  18.134  1.00  0.00    -0.020 N
ATOM     10  H91 UNL     1      14.266  -6.592  18.384  1.00  0.00     0.282 HD
ATOM     11  H92 UNL     1      15.512  -5.744  18.651  1.00  0.00     0.282 HD
ENDROOT
BRANCH   7  12
HETATM   12  N5  UNL     1      16.504  -5.690  14.905  1.00  0.00    -0.383 N
HETATM   13  C6  UNL     1      16.938  -6.664  14.254  1.00  0.00     0.054 C
HETATM   14  C7  UNL     1      17.348  -7.939  14.919  1.00  0.00     0.301 C
HETATM   15  C14 UNL     1      17.002  -6.438  12.778  1.00  0.00     0.225 C
HETATM   16  C8  UNL     1      18.282  -8.707  14.034  1.00  0.00     0.182 C
HETATM   17  O1  UNL     1      17.893  -9.788  13.657  1.00  0.00    -0.294 OA
HETATM   18  C9  UNL     1      19.619  -8.194  13.627  1.00  0.00     0.219 C
HETATM   19  C11 UNL     1      19.429  -6.823  13.099  1.00  0.00     0.186 C
HETATM   20  O3  UNL     1      20.308  -6.028  13.424  1.00  0.00    -0.293 OA
HETATM   21  C12 UNL     1      18.380  -6.222  12.250  1.00  0.00     0.172 C
ATOM     22  H5  UNL     1      16.258  -4.875  14.346  1.00  0.00     0.159 HD
BRANCH  14  23
HETATM   23  N6  UNL     1      18.150  -7.673  16.125  1.00  0.00    -0.063 N
ATOM     24  H63 UNL     1      18.537  -6.729  16.117  1.00  0.00     0.275 HD
ATOM     25  H62 UNL     1      17.564  -7.594  16.956  1.00  0.00     0.275 HD
ATOM     26  H61 UNL     1      18.878  -8.377  16.244  1.00  0.00     0.275 HD
ENDBRANCH  14  23
BRANCH  18  27
HETATM   27  C10 UNL     1      20.291  -9.064  12.641  1.00  0.00     0.249 C
HETATM   28  N7  UNL     1      21.292 -10.007  13.031  1.00  0.00    -0.061 NA
HETATM   29  O2  UNL     1      20.014  -9.007  11.435  1.00  0.00    -0.276 OA
ENDBRANCH  18  27
BRANCH  21  30
HETATM   30  O4  UNL     1      18.478  -6.839  10.979  1.00  0.00    -0.377 OA
ATOM     31  H4  UNL     1      18.709  -6.158  10.360  1.00  0.00     0.211 HD
ENDBRANCH  21  30
BRANCH  21  32
HETATM   32  C13 UNL     1      18.662  -4.750  11.981  1.00  0.00     0.213 C
BRANCH  32  33
HETATM   33  O5  UNL     1      18.339  -4.390  10.694  1.00  0.00    -0.397 OA
ATOM     34  H5  UNL     1      18.029  -3.493  10.642  1.00  0.00     0.209 HD
ENDBRANCH  32  33
ENDBRANCH  21  32
BRANCH  15  35
HETATM   35  O6  UNL     1      16.453  -7.584  12.131  1.00  0.00    -0.291 OA
BRANCH  35  36
HETATM   36  C15 UNL     1      15.206  -7.564  11.527  1.00  0.00     0.373 C
HETATM   37  N8  UNL     1      14.068  -7.146  12.245  1.00  0.00    -0.032 NA
HETATM   38  O7  UNL     1      15.158  -7.936  10.312  1.00  0.00    -0.242 OA
ENDBRANCH  35  36
ENDBRANCH  15  35
ENDBRANCH   7  12
BRANCH   6  39
HETATM   39  N4  UNL     1      16.631  -4.029  18.246  1.00  0.00    -0.071 N
ATOM     40  H43 UNL     1      16.253  -4.824  18.761  1.00  0.00     0.274 HD
ATOM     41  H42 UNL     1      17.613  -4.165  18.486  1.00  0.00     0.274 HD
ATOM     42  H41 UNL     1      16.264  -3.136  18.576  1.00  0.00     0.274 HD
ENDBRANCH   6  39
BRANCH   1  43
HETATM   43  N2  UNL     1      14.026  -4.296  19.985  1.00  0.00    -0.307 N
ATOM     44  H2  UNL     1      13.698  -3.413  20.377  1.00  0.00     0.166 HD
BRANCH  43  45
HETATM   45  C1  UNL     1      14.697  -5.230  20.821  1.00  0.00     0.215 C
HETATM   46  N1  UNL     1      14.050  -5.777  21.804  1.00  0.00    -0.365 N
ATOM     47  H12 UNL     1      13.074  -5.510  21.935  1.00  0.00     0.159 HD
ATOM     48  H11 UNL     1      14.532  -6.448  22.403  1.00  0.00     0.159 HD
BRANCH  45  49
HETATM   49  O8  UNL     1      16.024  -5.594  20.642  1.00  0.00    -0.321 OA
BRANCH  49  50
HETATM   50  C17 UNL     1      16.953  -5.428  21.696  1.00  0.00     0.206 C
BRANCH  50  51
HETATM   51  C18 UNL     1      17.331  -3.955  21.808  1.00  0.00     0.256 C
BRANCH  51  52
HETATM   52  N10 UNL     1      18.651  -3.787  21.205  1.00  0.00    -0.077 N
ATOM     53 3H10 UNL     1      19.403  -3.778  21.894  1.00  0.00     0.274 HD
ATOM     54 2H10 UNL     1      18.956  -4.609  20.684  1.00  0.00     0.274 HD
ATOM     55 1H10 UNL     1      18.627  -2.942  20.634  1.00  0.00     0.274 HD
ENDBRANCH  51  52
ENDBRANCH  50  51
ENDBRANCH  49  50
ENDBRANCH  45  49
ENDBRANCH  43  45
ENDBRANCH   1  43
TORSDOF 15
ENDMDL