MODEL 4
REMARK VINA RESULT: -5.363978835      1.240      1.376
REMARK  15 active torsions:
REMARK  status: ('A' for Active; 'I' for Inactive)
REMARK    1  A    between atoms: N1_1  and  C1_5
REMARK    2  A    between atoms: C3_10  and  O1_11
REMARK    3  A    between atoms: O1_11  and  C4_12
REMARK    4  A    between atoms: C5_13  and  O2_14
REMARK    5  A    between atoms: C6_16  and  O3_17
REMARK    6  A    between atoms: C6_16  and  C7_19
REMARK       I    between atoms: C7_19  and  N3_21
REMARK    7  A    between atoms: N3_21  and  C8_23
REMARK    8  A    between atoms: C8_23  and  C9_24
REMARK    9  A    between atoms: C9_24  and  C10_25
REMARK   10  A    between atoms: C10_25  and  C11_26
REMARK   11  A    between atoms: C11_26  and  O5_27
REMARK   12  A    between atoms: C12_30  and  O7_31
REMARK   13  A    between atoms: C12_30  and  C13_33
REMARK   14  A    between atoms: C17_41  and  O12_42
REMARK   15  A    between atoms: N4_44  and  O13_45
ROOT
HETATM    1  C4  UNL     1      19.159  -0.752  15.964  1.00  0.00     0.194 C
HETATM    2  C5  UNL     1      19.150   0.765  16.063  1.00  0.00     0.222 C
HETATM    3  C6  UNL     1      19.771   1.091  17.417  1.00  0.00     0.278 C
HETATM    4  O6  UNL     1      18.948   0.518  18.343  1.00  0.00    -0.296 OA
HETATM    5  C12 UNL     1      18.904  -0.856  18.363  1.00  0.00     0.285 C
HETATM    6  C14 UNL     1      18.472  -1.477  17.076  1.00  0.00     0.159 C
HETATM    7  C15 UNL     1      19.144  -2.886  17.012  1.00  0.00     0.215 C
HETATM    8  O10 UNL     1      18.483  -3.753  17.921  1.00  0.00    -0.316 OA
HETATM    9  C16 UNL     1      17.097  -3.880  17.803  1.00  0.00     0.304 C
HETATM   10  O11 UNL     1      16.510  -4.848  18.276  1.00  0.00    -0.261 OA
HETATM   11  C17 UNL     1      16.395  -2.807  17.090  1.00  0.00     0.319 C
HETATM   12  N4  UNL     1      17.075  -1.598  16.851  1.00  0.00    -0.140 NA
ENDROOT
BRANCH   1  13
HETATM   13  O1  UNL     1      18.835  -1.179  14.712  1.00  0.00    -0.328 OA
BRANCH  13  14
HETATM   14  C3  UNL     1      19.847  -1.326  13.816  1.00  0.00     0.471 C
HETATM   15  N2  UNL     1      19.653  -0.237  12.833  1.00  0.00    -0.021 N
HETATM   16  C2  UNL     1      20.249  -0.768  11.627  1.00  0.00     0.299 C
ATOM     17  H22 UNL     1      20.022   0.668  13.125  1.00  0.00     0.283 HD
ATOM     18  H21 UNL     1      18.688   0.073  12.728  1.00  0.00     0.283 HD
HETATM   19  C1  UNL     1      20.044  -2.250  11.791  1.00  0.00     0.348 C
HETATM   20  O14 UNL     1      19.733  -2.483  13.108  1.00  0.00    -0.304 OA
BRANCH  19  21
HETATM   21  N1  UNL     1      21.237  -2.952  11.368  1.00  0.00    -0.051 N
ATOM     22  H13 UNL     1      22.076  -2.380  11.463  1.00  0.00     0.277 HD
ATOM     23  H12 UNL     1      21.495  -3.698  12.014  1.00  0.00     0.277 HD
ATOM     24  H11 UNL     1      21.111  -3.294  10.415  1.00  0.00     0.277 HD
ENDBRANCH  19  21
ENDBRANCH  13  14
ENDBRANCH   1  13
BRANCH   2  25
HETATM   25  O2  UNL     1      17.941   1.362  15.963  1.00  0.00    -0.387 OA
ATOM     26  H2  UNL     1      17.462   1.476  16.775  1.00  0.00     0.210 HD
ENDBRANCH   2  25
BRANCH   3  27
HETATM   27  O3  UNL     1      21.093   0.549  17.438  1.00  0.00    -0.356 OA
ATOM     28  H3  UNL     1      21.186   0.031  18.230  1.00  0.00     0.213 HD
ENDBRANCH   3  27
BRANCH   3  29
HETATM   29  C7  UNL     1      19.917   2.525  17.630  1.00  0.00     0.283 C
HETATM   30  O4  UNL     1      20.189   2.951  18.814  1.00  0.00    -0.267 OA
HETATM   31  N3  UNL     1      19.788   3.522  16.660  1.00  0.00    -0.356 N
ATOM     32  H3  UNL     1      19.569   3.257  15.700  1.00  0.00     0.162 HD
BRANCH  31  33
HETATM   33  C8  UNL     1      19.958   4.918  16.988  1.00  0.00     0.123 C
BRANCH  33  34
HETATM   34  C9  UNL     1      19.203   5.818  16.033  1.00  0.00     0.022 C
BRANCH  34  35
HETATM   35  C10 UNL     1      19.514   5.533  14.603  1.00  0.00     0.028 C
BRANCH  35  36
HETATM   36  C11 UNL     1      18.309   5.098  13.808  1.00  0.00     0.164 C
BRANCH  36  37
HETATM   37  O5  UNL     1      17.798   3.941  14.431  1.00  0.00    -0.401 OA
ATOM     38  H5  UNL     1      16.857   3.943  14.294  1.00  0.00     0.209 HD
ENDBRANCH  36  37
ENDBRANCH  35  36
ENDBRANCH  34  35
ENDBRANCH  33  34
ENDBRANCH  31  33
ENDBRANCH   3  29
BRANCH   5  39
HETATM   39  O7  UNL     1      20.247  -1.321  18.532  1.00  0.00    -0.355 OA
ATOM     40  H7  UNL     1      20.514  -1.715  17.711  1.00  0.00     0.213 HD
ENDBRANCH   5  39
BRANCH   5  41
HETATM   41  C13 UNL     1      18.219  -1.330  19.584  1.00  0.00     0.241 C
HETATM   42  O8  UNL     1      18.873  -1.972  20.425  1.00  0.00    -0.644 OA
HETATM   43  O9  UNL     1      16.896  -1.099  19.835  1.00  0.00    -0.644 OA
ENDBRANCH   5  41
BRANCH  12  44
HETATM   44  O13 UNL     1      16.706  -1.205  15.583  1.00  0.00    -0.309 OA
ATOM     45  H13 UNL     1      17.380  -1.379  14.936  1.00  0.00     0.237 HD
ENDBRANCH  12  44
BRANCH  11  46
HETATM   46  O12 UNL     1      15.092  -2.610  17.623  1.00  0.00    -0.370 OA
ATOM     47  H12 UNL     1      14.515  -2.220  16.976  1.00  0.00     0.212 HD
ENDBRANCH  11  46
TORSDOF 15
ENDMDL