MODEL 3
REMARK VINA RESULT: -6.435193741      1.484      2.103
REMARK  13 active torsions:
REMARK  status: ('A' for Active; 'I' for Inactive)
REMARK    1  A    between atoms: N1_1  and  C1_4
REMARK    2  A    between atoms: N3_8  and  C3_9
REMARK    3  A    between atoms: C4_13  and  C5_14
REMARK       I    between atoms: C5_14  and  N5_16
REMARK    4  A    between atoms: N5_16  and  C6_18
REMARK    5  A    between atoms: C6_18  and  C7_19
REMARK    6  A    between atoms: C7_19  and  N6_20
REMARK    7  A    between atoms: N6_20  and  C8_23
REMARK    8  A    between atoms: C9_25  and  C10_26
REMARK    9  A    between atoms: C10_26  and  O3_27
REMARK   10  A    between atoms: N7_31  and  N8_32
REMARK   11  A    between atoms: C12_33  and  O5_34
REMARK   12  A    between atoms: C15_41  and  O7_42
REMARK   13  A    between atoms: C16_44  and  O8_45
ROOT
HETATM    1  C5  UNL     1      19.562  -2.420  15.146  1.00  0.00     0.251 C
HETATM    2  O1  UNL     1      19.823  -3.329  14.302  1.00  0.00    -0.271 OA
HETATM    3  N5  UNL     1      18.445  -2.646  15.987  1.00  0.00    -0.358 N
ATOM      4  H5  UNL     1      18.221  -1.920  16.667  1.00  0.00     0.162 HD
ENDROOT
BRANCH   1   5
HETATM    5  C4  UNL     1      20.395  -1.188  15.240  1.00  0.00     0.310 C
HETATM    6  N4  UNL     1      21.580  -1.412  14.466  1.00  0.00    -0.036 N
HETATM    7  C3  UNL     1      21.699  -0.348  13.501  1.00  0.00     0.328 C
ATOM      8  H42 UNL     1      21.599  -2.337  14.035  1.00  0.00     0.280 HD
ATOM      9  H41 UNL     1      22.414  -1.513  15.044  1.00  0.00     0.280 HD
HETATM   10  C16 UNL     1      20.297   0.080  13.275  1.00  0.00     0.200 C
HETATM   11  C15 UNL     1      19.693   0.012  14.655  1.00  0.00     0.190 C
BRANCH   7  12
HETATM   12  N3  UNL     1      22.337  -0.890  12.321  1.00  0.00    -0.263 N
HETATM   13  C2  UNL     1      22.102  -2.180  11.976  1.00  0.00     0.207 A
HETATM   14  N2  UNL     1      22.676  -2.703  10.881  1.00  0.00    -0.188 N
HETATM   15  C1  UNL     1      23.492  -1.967  10.106  1.00  0.00     0.680 A
ATOM     16  H2  UNL     1      22.491  -3.675  10.633  1.00  0.00     0.185 HD
HETATM   17  N10 UNL     1      23.728  -0.673  10.455  1.00  0.00    -0.141 N
HETATM   18  C17 UNL     1      23.150  -0.152  11.554  1.00  0.00     0.343 A
ATOM     19  H10 UNL     1      24.344  -0.097   9.882  1.00  0.00     0.189 HD
HETATM   20  O9  UNL     1      23.351   1.038  11.893  1.00  0.00    -0.246 OA
BRANCH  15  21
HETATM   21  N1  UNL     1      24.052  -2.467   9.041  1.00  0.00    -0.234 N
ATOM     22  H12 UNL     1      23.908  -3.448   8.801  1.00  0.00     0.174 HD
ATOM     23  H11 UNL     1      24.640  -1.898   8.431  1.00  0.00     0.174 HD
ENDBRANCH  15  21
ENDBRANCH   7  12
BRANCH  10  24
HETATM   24  O8  UNL     1      19.600  -0.801  12.459  1.00  0.00    -0.389 OA
ATOM     25  H8  UNL     1      18.759  -1.044  12.825  1.00  0.00     0.210 HD
ENDBRANCH  10  24
BRANCH  11  26
HETATM   26  O7  UNL     1      18.311  -0.111  14.606  1.00  0.00    -0.390 OA
ATOM     27  H7  UNL     1      17.875   0.613  14.173  1.00  0.00     0.210 HD
ENDBRANCH  11  26
ENDBRANCH   1   5
BRANCH   3  28
HETATM   28  C6  UNL     1      17.608  -3.801  15.966  1.00  0.00     0.150 C
BRANCH  28  29
HETATM   29  C7  UNL     1      17.567  -4.534  17.275  1.00  0.00     0.257 C
BRANCH  29  30
HETATM   30  N6  UNL     1      18.524  -4.035  18.234  1.00  0.00    -0.027 N
ATOM     31  H62 UNL     1      19.378  -4.592  18.241  1.00  0.00     0.282 HD
ATOM     32  H61 UNL     1      18.925  -3.144  17.940  1.00  0.00     0.282 HD
BRANCH  30  33
HETATM   33  C8  UNL     1      17.935  -3.949  19.531  1.00  0.00     0.454 C
HETATM   34  O2  UNL     1      16.916  -4.890  19.676  1.00  0.00    -0.325 OA
HETATM   35  C9  UNL     1      15.988  -4.370  20.575  1.00  0.00     0.243 C
HETATM   36  C11 UNL     1      16.254  -2.904  20.665  1.00  0.00     0.274 C
HETATM   37  O4  UNL     1      15.696  -2.066  21.396  1.00  0.00    -0.268 OA
HETATM   38  N7  UNL     1      17.283  -2.664  19.738  1.00  0.00    -0.191 N
BRANCH  35  39
HETATM   39  C10 UNL     1      14.570  -4.538  20.078  1.00  0.00     0.206 C
BRANCH  39  40
HETATM   40  O3  UNL     1      14.378  -3.693  18.990  1.00  0.00    -0.398 OA
ATOM     41  H3  UNL     1      13.508  -3.315  19.049  1.00  0.00     0.209 HD
ENDBRANCH  39  40
ENDBRANCH  35  39
BRANCH  38  42
HETATM   42  N8  UNL     1      17.653  -1.494  19.107  1.00  0.00    -0.172 N
HETATM   43  C12 UNL     1      18.753  -0.738  19.367  1.00  0.00     0.182 A
HETATM   44  C13 UNL     1      18.745   0.326  18.527  1.00  0.00     0.150 A
HETATM   45  N9  UNL     1      17.663   0.246  17.752  1.00  0.00    -0.313 N
HETATM   46  C14 UNL     1      17.009  -0.865  18.115  1.00  0.00     0.348 A
ATOM     47  H9  UNL     1      17.387   0.904  17.023  1.00  0.00     0.170 HD
HETATM   48  O6  UNL     1      15.918  -1.248  17.570  1.00  0.00    -0.245 OA
BRANCH  43  49
HETATM   49  O5  UNL     1      19.689  -1.078  20.357  1.00  0.00    -0.344 OA
ATOM     50  H5  UNL     1      19.452  -1.550  21.147  1.00  0.00     0.219 HD
ENDBRANCH  43  49
ENDBRANCH  38  42
ENDBRANCH  30  33
ENDBRANCH  29  30
ENDBRANCH  28  29
ENDBRANCH   3  28
TORSDOF 13
ENDMDL