MODEL 4
REMARK VINA RESULT: -5.245100757      4.291      7.990
REMARK  13 active torsions:
REMARK  status: ('A' for Active; 'I' for Inactive)
REMARK    1  A    between atoms: N1_1  and  C1_4
REMARK    2  A    between atoms: C4_12  and  N4_13
REMARK    3  A    between atoms: C7_19  and  C8_20
REMARK       I    between atoms: C8_20  and  N6_22
REMARK       I    between atoms: N6_22  and  C9_24
REMARK    4  A    between atoms: C9_24  and  C10_26
REMARK    5  A    between atoms: C10_26  and  O4_27
REMARK    6  A    between atoms: C10_26  and  O5_29
REMARK    7  A    between atoms: N8_34  and  C12_35
REMARK    8  A    between atoms: C13_37  and  C14_38
REMARK    9  A    between atoms: C14_38  and  O7_39
REMARK   10  A    between atoms: C14_38  and  C15_41
REMARK   11  A    between atoms: C15_41  and  O8_42
REMARK   12  A    between atoms: C16_44  and  O9_45
REMARK   13  A    between atoms: C17_47  and  O10_48
ROOT
HETATM    1  C1  UNL     1      18.072  -2.736  15.362  1.00  0.00     0.684 A
HETATM    2  N2  UNL     1      18.013  -3.238  14.128  1.00  0.00    -0.154 N
ATOM      3  H2  UNL     1      17.521  -4.116  13.965  1.00  0.00     0.187 HD
HETATM    4  C2  UNL     1      18.588  -2.609  13.110  1.00  0.00     0.290 A
HETATM    5  O1  UNL     1      18.551  -3.047  11.951  1.00  0.00    -0.265 OA
HETATM    6  C3  UNL     1      19.245  -1.429  13.371  1.00  0.00     0.163 A
HETATM    7  N3  UNL     1      19.948  -0.611  12.591  1.00  0.00    -0.182 N
ATOM      8  H3  UNL     1      20.088  -0.731  11.588  1.00  0.00     0.184 HD
HETATM    9  C4  UNL     1      20.466   0.439  13.357  1.00  0.00     0.684 A
HETATM   10  N7  UNL     1      20.045   0.223  14.607  1.00  0.00    -0.173 N
ATOM     11  H7  UNL     1      20.255   0.823  15.404  1.00  0.00     0.186 HD
HETATM   12  C11 UNL     1      19.296  -0.912  14.665  1.00  0.00     0.174 A
HETATM   13  N8  UNL     1      18.711  -1.553  15.686  1.00  0.00    -0.136 N
ENDROOT
BRANCH   9  14
HETATM   14  N4  UNL     1      21.350   1.364  12.871  1.00  0.00    -0.177 N
HETATM   15  C5  UNL     1      20.907   2.740  12.489  1.00  0.00     0.171 C
HETATM   16  C6  UNL     1      21.703   3.412  13.646  1.00  0.00     0.255 C
HETATM   17  N5  UNL     1      22.880   2.593  13.787  1.00  0.00    -0.043 N
HETATM   18  C7  UNL     1      22.779   1.511  12.747  1.00  0.00     0.393 C
ATOM     19  H52 UNL     1      23.750   3.123  13.734  1.00  0.00     0.280 HD
ATOM     20  H51 UNL     1      23.009   2.232  14.733  1.00  0.00     0.280 HD
BRANCH  18  21
HETATM   21  C8  UNL     1      23.485   0.324  13.209  1.00  0.00     0.275 C
HETATM   22  O2  UNL     1      23.890   0.313  14.426  1.00  0.00    -0.269 OA
HETATM   23  N6  UNL     1      23.781  -0.823  12.436  1.00  0.00    -0.290 N
HETATM   24  C9  UNL     1      23.641  -0.929  11.026  1.00  0.00     0.279 C
ATOM     25  H6  UNL     1      24.123  -1.645  12.934  1.00  0.00     0.172 HD
HETATM   26  O3  UNL     1      23.049  -0.131  10.294  1.00  0.00    -0.268 OA
BRANCH  24  27
HETATM   27  C10 UNL     1      24.271  -2.114  10.355  1.00  0.00     0.349 C
BRANCH  27  28
HETATM   28  O4  UNL     1      23.834  -2.195   9.041  1.00  0.00    -0.363 OA
ATOM     29  H4  UNL     1      24.476  -2.661   8.517  1.00  0.00     0.213 HD
ENDBRANCH  27  28
BRANCH  27  30
HETATM   30  O5  UNL     1      23.800  -3.292  11.000  1.00  0.00    -0.363 OA
ATOM     31  H5  UNL     1      22.904  -3.139  11.278  1.00  0.00     0.213 HD
ENDBRANCH  27  30
ENDBRANCH  24  27
ENDBRANCH  18  21
ENDBRANCH   9  14
BRANCH  13  32
HETATM   32  C12 UNL     1      18.680  -1.114  17.056  1.00  0.00     0.279 C
HETATM   33  O6  UNL     1      19.982  -0.603  17.302  1.00  0.00    -0.352 OA
HETATM   34  C13 UNL     1      19.914   0.002  18.531  1.00  0.00     0.186 C
HETATM   35  C16 UNL     1      18.557   0.628  18.644  1.00  0.00     0.182 C
HETATM   36  C17 UNL     1      17.797   0.007  17.437  1.00  0.00     0.199 C
BRANCH  34  37
HETATM   37  C14 UNL     1      21.029   1.019  18.583  1.00  0.00     0.173 C
BRANCH  37  38
HETATM   38  O7  UNL     1      21.368   1.449  19.837  1.00  0.00    -0.391 OA
ATOM     39  H7  UNL     1      21.093   2.333  20.050  1.00  0.00     0.210 HD
ENDBRANCH  37  38
BRANCH  37  40
HETATM   40  C15 UNL     1      22.185   0.623  17.739  1.00  0.00     0.198 C
BRANCH  40  41
HETATM   41  O8  UNL     1      22.012   1.293  16.498  1.00  0.00    -0.398 OA
ATOM     42  H8  UNL     1      21.793   2.192  16.714  1.00  0.00     0.209 HD
ENDBRANCH  40  41
ENDBRANCH  37  40
ENDBRANCH  34  37
BRANCH  35  43
HETATM   43  O9  UNL     1      18.551   2.009  18.509  1.00  0.00    -0.390 OA
ATOM     44  H9  UNL     1      18.406   2.317  17.622  1.00  0.00     0.210 HD
ENDBRANCH  35  43
BRANCH  36  45
HETATM   45  O10 UNL     1      17.702   0.992  16.469  1.00  0.00    -0.388 OA
ATOM     46  H10 UNL     1      18.273   0.851  15.724  1.00  0.00     0.210 HD
ENDBRANCH  36  45
ENDBRANCH  13  32
BRANCH   1  47
HETATM   47  N1  UNL     1      17.571  -3.399  16.308  1.00  0.00    -0.234 N
ATOM     48  H12 UNL     1      16.923  -4.148  16.061  1.00  0.00     0.174 HD
ATOM     49  H11 UNL     1      17.795  -3.130  17.266  1.00  0.00     0.174 HD
ENDBRANCH   1  47
TORSDOF 13
ENDMDL