MODEL 3
REMARK VINA RESULT: -5.442948648      5.091     11.008
REMARK  18 active torsions:
REMARK  status: ('A' for Active; 'I' for Inactive)
REMARK    1  A    between atoms: N1_1  and  C1_5
REMARK    2  A    between atoms: C1_5  and  O1_6
REMARK    3  A    between atoms: C1_5  and  C2_8
REMARK    4  A    between atoms: C2_8  and  O2_9
REMARK    5  A    between atoms: C2_8  and  C3_11
REMARK    6  A    between atoms: C3_11  and  O3_12
REMARK    7  A    between atoms: C5_17  and  N2_18
REMARK    8  A    between atoms: N2_18  and  C6_20
REMARK    9  A    between atoms: C8_26  and  N5_27
REMARK   10  A    between atoms: C11_30  and  O6_31
REMARK   11  A    between atoms: C12_33  and  O7_34
REMARK   12  A    between atoms: C13_36  and  O8_37
REMARK   13  A    between atoms: C14_41  and  C15_42
REMARK   14  A    between atoms: C15_42  and  O9_43
REMARK   15  A    between atoms: C15_42  and  C16_45
REMARK   16  A    between atoms: C16_45  and  O10_46
REMARK   17  A    between atoms: C16_45  and  C17_48
REMARK   18  A    between atoms: C17_48  and  O11_49
ROOT
HETATM    1  C3  UNL     1      16.157  -3.165  18.259  1.00  0.00     0.319 C
HETATM    2  O4  UNL     1      17.060  -2.973  17.169  1.00  0.00    -0.254 OA
HETATM    3  C4  UNL     1      17.208  -4.032  16.232  1.00  0.00     0.289 C
HETATM    4  O5  UNL     1      18.363  -4.204  15.785  1.00  0.00    -0.263 OA
HETATM    5  C5  UNL     1      16.007  -4.832  15.865  1.00  0.00     0.231 C
HETATM    6  C14 UNL     1      15.160  -4.915  17.127  1.00  0.00     0.192 C
HETATM    7  O12 UNL     1      15.848  -4.515  18.267  1.00  0.00    -0.320 OA
ENDROOT
BRANCH   5   8
HETATM    8  N2  UNL     1      16.271  -6.103  15.307  1.00  0.00    -0.209 N
ATOM      9  H2  UNL     1      16.525  -6.827  15.978  1.00  0.00     0.178 HD
BRANCH   8  10
HETATM   10  C6  UNL     1      16.239  -6.479  14.079  1.00  0.00     0.694 A
HETATM   11  N3  UNL     1      17.348  -6.263  13.319  1.00  0.00    -0.187 N
HETATM   12  C7  UNL     1      17.406  -6.614  12.033  1.00  0.00     0.215 A
ATOM     13  H3  UNL     1      18.160  -5.818  13.746  1.00  0.00     0.185 HD
HETATM   14  N4  UNL     1      16.335  -7.199  11.473  1.00  0.00    -0.187 N
HETATM   15  C8  UNL     1      15.215  -7.423  12.221  1.00  0.00     0.697 A
ATOM     16  H4  UNL     1      16.357  -7.476  10.491  1.00  0.00     0.185 HD
HETATM   17  N6  UNL     1      15.191  -7.066  13.488  1.00  0.00    -0.022 N
ATOM     18  H6  UNL     1      14.348  -7.241  14.036  1.00  0.00     0.203 HD
BRANCH  15  19
HETATM   19  N5  UNL     1      14.136  -8.042  11.517  1.00  0.00    -0.188 N
HETATM   20  C9  UNL     1      12.858  -7.389  11.499  1.00  0.00     0.147 C
HETATM   21  C10 UNL     1      11.996  -8.021  10.462  1.00  0.00     0.055 C
HETATM   22  C11 UNL     1      11.882  -9.502  10.514  1.00  0.00     0.152 C
HETATM   23  C12 UNL     1      13.155 -10.203  10.892  1.00  0.00     0.196 C
HETATM   24  C13 UNL     1      14.355  -9.291  10.870  1.00  0.00     0.268 C
BRANCH  22  25
HETATM   25  O6  UNL     1      10.913  -9.834  11.477  1.00  0.00    -0.393 OA
ATOM     26  H6  UNL     1      11.190 -10.631  11.915  1.00  0.00     0.210 HD
ENDBRANCH  22  25
BRANCH  23  27
HETATM   27  O7  UNL     1      13.375 -11.228   9.981  1.00  0.00    -0.389 OA
ATOM     28  H7  UNL     1      14.312 -11.359   9.900  1.00  0.00     0.210 HD
ENDBRANCH  23  27
BRANCH  24  29
HETATM   29  O8  UNL     1      14.890  -9.138   9.610  1.00  0.00    -0.373 OA
ATOM     30  H8  UNL     1      14.654  -9.853   9.029  1.00  0.00     0.212 HD
ENDBRANCH  24  29
ENDBRANCH  15  19
ENDBRANCH   8  10
ENDBRANCH   5   8
BRANCH   6  31
HETATM   31  C15 UNL     1      14.663  -6.334  17.319  1.00  0.00     0.180 C
BRANCH  31  32
HETATM   32  O9  UNL     1      13.624  -6.483  16.367  1.00  0.00    -0.390 OA
ATOM     33  H9  UNL     1      12.851  -6.679  16.884  1.00  0.00     0.210 HD
ENDBRANCH  31  32
BRANCH  31  34
HETATM   34  C16 UNL     1      14.044  -6.524  18.659  1.00  0.00     0.173 C
BRANCH  34  35
HETATM   35  O10 UNL     1      14.005  -7.856  19.092  1.00  0.00    -0.391 OA
ATOM     36  H10 UNL     1      13.173  -8.291  18.944  1.00  0.00     0.210 HD
ENDBRANCH  34  35
BRANCH  34  37
HETATM   37  C17 UNL     1      12.747  -5.802  18.873  1.00  0.00     0.198 C
BRANCH  37  38
HETATM   38  O11 UNL     1      12.969  -4.466  19.249  1.00  0.00    -0.398 OA
ATOM     39  H11 UNL     1      12.283  -4.155  19.828  1.00  0.00     0.209 HD
ENDBRANCH  37  38
ENDBRANCH  34  37
ENDBRANCH  31  34
ENDBRANCH   6  31
BRANCH   1  40
HETATM   40  C2  UNL     1      16.847  -2.813  19.548  1.00  0.00     0.267 C
BRANCH  40  41
HETATM   41  C1  UNL     1      16.381  -3.686  20.697  1.00  0.00     0.353 C
BRANCH  41  42
HETATM   42  N1  UNL     1      14.994  -3.426  20.996  1.00  0.00    -0.050 N
ATOM     43  H13 UNL     1      14.860  -2.563  21.523  1.00  0.00     0.277 HD
ATOM     44  H12 UNL     1      14.455  -3.168  20.170  1.00  0.00     0.277 HD
ATOM     45  H11 UNL     1      14.614  -4.242  21.475  1.00  0.00     0.277 HD
ENDBRANCH  41  42
BRANCH  41  46
HETATM   46  O1  UNL     1      17.145  -3.372  21.847  1.00  0.00    -0.368 OA
ATOM     47  H1  UNL     1      17.872  -3.981  21.893  1.00  0.00     0.212 HD
ENDBRANCH  41  46
ENDBRANCH  40  41
BRANCH  40  48
HETATM   48  O2  UNL     1      16.696  -1.472  19.794  1.00  0.00    -0.383 OA
ATOM     49  H2  UNL     1      16.596  -0.956  19.003  1.00  0.00     0.210 HD
ENDBRANCH  40  48
ENDBRANCH   1  40
BRANCH   1  50
HETATM   50  O3  UNL     1      15.045  -2.359  18.099  1.00  0.00    -0.341 OA
ATOM     51  H3  UNL     1      14.879  -2.232  17.172  1.00  0.00     0.215 HD
ENDBRANCH   1  50
TORSDOF 18
ENDMDL