MODEL 1
REMARK VINA RESULT: -5.525338116      0.000      0.000
REMARK  15 active torsions:
REMARK  status: ('A' for Active; 'I' for Inactive)
REMARK    1  A    between atoms: C1_2  and  C2_4
REMARK    2  A    between atoms: C2_4  and  O2_5
REMARK    3  A    between atoms: C2_4  and  C3_7
REMARK    4  A    between atoms: C3_7  and  O3_8
REMARK    5  A    between atoms: C4_10  and  O4_11
REMARK    6  A    between atoms: C7_15  and  O5_16
REMARK    7  A    between atoms: C12_25  and  C13_26
REMARK    8  A    between atoms: C13_26  and  O6_27
REMARK    9  A    between atoms: C13_26  and  C14_29
REMARK   10  A    between atoms: C14_29  and  O7_30
REMARK   11  A    between atoms: C14_29  and  C15_32
REMARK   12  A    between atoms: C15_32  and  O8_33
REMARK   13  A    between atoms: C18_42  and  N4_43
REMARK   14  A    between atoms: N4_43  and  C19_46
REMARK   15  A    between atoms: C19_46  and  C20_47
ROOT
HETATM    1  C3  UNL     1      20.764  -1.910  12.559  1.00  0.00     0.152 C
HETATM    2  C4  UNL     1      19.622  -2.880  12.439  1.00  0.00     0.159 C
HETATM    3  C5  UNL     1      18.449  -1.930  12.590  1.00  0.00     0.049 C
HETATM    4  C6  UNL     1      18.822  -1.256  13.921  1.00  0.00     0.086 C
HETATM    5  C7  UNL     1      18.316  -2.096  14.979  1.00  0.00     0.063 C
HETATM    6  C8  UNL     1      17.736  -1.540  16.222  1.00  0.00     0.054 C
HETATM    7  C9  UNL     1      17.747  -0.375  16.752  1.00  0.00     0.048 C
HETATM    8  C10 UNL     1      18.357   0.891  16.310  1.00  0.00     0.103 C
HETATM    9  C11 UNL     1      19.743   0.703  15.799  1.00  0.00     0.291 C
HETATM   10  N2  UNL     1      19.702   1.106  14.405  1.00  0.00    -0.052 N
ATOM     11  H21 UNL     1      19.787   2.118  14.302  1.00  0.00     0.278 HD
ATOM     12  H22 UNL     1      18.771   0.987  14.006  1.00  0.00     0.278 HD
HETATM   13  C12 UNL     1      20.711   0.402  13.636  1.00  0.00     0.257 C
HETATM   14  C16 UNL     1      20.309  -1.032  13.699  1.00  0.00     0.147 C
HETATM   15  O9  UNL     1      20.829  -1.448  14.982  1.00  0.00    -0.302 OA
HETATM   16  C17 UNL     1      20.385  -0.594  16.040  1.00  0.00     0.291 C
HETATM   17  O10 UNL     1      20.561  -0.973  17.210  1.00  0.00    -0.263 OA
HETATM   18  N3  UNL     1      17.008  -0.492  18.013  1.00  0.00    -0.268 N
ATOM     19  H3  UNL     1      16.481   0.238  18.492  1.00  0.00     0.194 HD
HETATM   20  O11 UNL     1      17.180  -1.805  18.416  1.00  0.00    -0.241 OA
HETATM   21  C18 UNL     1      16.858  -2.374  17.179  1.00  0.00     0.388 C
ENDROOT
BRANCH  13  22
HETATM   22  C13 UNL     1      22.023   0.830  14.164  1.00  0.00     0.182 C
BRANCH  22  23
HETATM   23  O6  UNL     1      23.101  -0.023  13.884  1.00  0.00    -0.391 OA
ATOM     24  H6  UNL     1      23.664  -0.233  14.621  1.00  0.00     0.210 HD
ENDBRANCH  22  23
BRANCH  22  25
HETATM   25  C14 UNL     1      22.395   2.240  13.613  1.00  0.00     0.172 C
BRANCH  25  26
HETATM   26  O7  UNL     1      21.723   2.495  12.425  1.00  0.00    -0.391 OA
ATOM     27  H7  UNL     1      22.336   2.708  11.732  1.00  0.00     0.210 HD
ENDBRANCH  25  26
BRANCH  25  28
HETATM   28  C15 UNL     1      23.905   2.212  13.381  1.00  0.00     0.198 C
BRANCH  28  29
HETATM   29  O8  UNL     1      24.132   2.028  12.010  1.00  0.00    -0.398 OA
ATOM     30  H8  UNL     1      24.309   2.878  11.624  1.00  0.00     0.209 HD
ENDBRANCH  28  29
ENDBRANCH  25  28
ENDBRANCH  22  25
ENDBRANCH  13  22
BRANCH   1  31
HETATM   31  C2  UNL     1      20.924  -1.396  11.231  1.00  0.00     0.247 C
BRANCH  31  32
HETATM   32  C1  UNL     1      22.395  -1.591  10.827  1.00  0.00     0.263 C
HETATM   33  N1  UNL     1      23.335  -0.538  10.961  1.00  0.00    -0.060 NA
HETATM   34  O1  UNL     1      22.749  -2.674  10.378  1.00  0.00    -0.274 OA
ENDBRANCH  31  32
BRANCH  31  35
HETATM   35  O2  UNL     1      20.781  -0.121  10.804  1.00  0.00    -0.383 OA
ATOM     36  H2  UNL     1      19.946   0.062  11.219  1.00  0.00     0.210 HD
ENDBRANCH  31  35
ENDBRANCH   1  31
BRANCH   1  37
HETATM   37  O3  UNL     1      21.927  -2.497  13.016  1.00  0.00    -0.381 OA
ATOM     38  H3  UNL     1      22.388  -1.929  13.621  1.00  0.00     0.211 HD
ENDBRANCH   1  37
BRANCH   2  39
HETATM   39  O4  UNL     1      19.408  -3.420  11.158  1.00  0.00    -0.392 OA
ATOM     40  H4  UNL     1      20.048  -4.057  10.864  1.00  0.00     0.210 HD
ENDBRANCH   2  39
BRANCH   5  41
HETATM   41  O5  UNL     1      19.055  -3.257  15.307  1.00  0.00    -0.364 OA
ATOM     42  H5  UNL     1      18.614  -3.935  15.805  1.00  0.00     0.217 HD
ENDBRANCH   5  41
BRANCH  21  43
HETATM   43  N4  UNL     1      15.464  -2.041  16.899  1.00  0.00    -0.036 N
ATOM     44  H42 UNL     1      15.170  -1.174  17.347  1.00  0.00     0.281 HD
ATOM     45  H41 UNL     1      15.317  -1.754  15.931  1.00  0.00     0.281 HD
BRANCH  43  46
HETATM   46  C19 UNL     1      14.646  -3.162  17.274  1.00  0.00     0.304 C
BRANCH  46  47
HETATM   47  C20 UNL     1      15.048  -4.397  16.518  1.00  0.00     0.258 C
HETATM   48  O12 UNL     1      14.254  -5.037  15.825  1.00  0.00    -0.305 OA
ENDBRANCH  46  47
ENDBRANCH  43  46
ENDBRANCH  21  43
TORSDOF 15
ENDMDL