MODEL 3
REMARK VINA RESULT: -5.418295724      0.875      1.355
REMARK  17 active torsions:
REMARK  status: ('A' for Active; 'I' for Inactive)
REMARK    1  A    between atoms: C4_7  and  O2_8
REMARK    2  A    between atoms: C5_11  and  O4_12
REMARK    3  A    between atoms: O4_12  and  C6_13
REMARK    4  A    between atoms: C7_14  and  N3_15
REMARK    5  A    between atoms: C9_20  and  N4_21
REMARK    6  A    between atoms: N4_21  and  C10_23
REMARK    7  A    between atoms: C12_27  and  N6_28
REMARK    8  A    between atoms: C13_34  and  N8_35
REMARK    9  A    between atoms: N8_35  and  C14_38
REMARK   10  A    between atoms: C14_38  and  O5_39
REMARK   11  A    between atoms: C14_38  and  C15_41
REMARK   12  A    between atoms: C15_41  and  O6_42
REMARK   13  A    between atoms: C15_41  and  C16_44
REMARK   14  A    between atoms: C16_44  and  O7_45
REMARK   15  A    between atoms: C16_44  and  C17_47
REMARK   16  A    between atoms: C17_47  and  O8_48
REMARK   17  A    between atoms: C18_50  and  O9_51
ROOT
HETATM    1  N1  UNL     1      17.452  -4.003  14.887  1.00  0.00    -0.171 NA
HETATM    2  C1  UNL     1      17.370  -3.553  15.959  1.00  0.00     0.191 C
HETATM    3  N2  UNL     1      17.289  -2.987  17.239  1.00  0.00    -0.202 N
HETATM    4  C2  UNL     1      16.883  -3.912  18.268  1.00  0.00     0.241 C
HETATM    5  O1  UNL     1      16.529  -5.071  17.948  1.00  0.00    -0.272 OA
HETATM    6  C3  UNL     1      16.860  -3.559  19.709  1.00  0.00     0.164 C
HETATM    7  C4  UNL     1      17.072  -2.068  19.820  1.00  0.00     0.270 C
HETATM    8  O3  UNL     1      16.619  -1.387  18.687  1.00  0.00    -0.312 OA
HETATM    9  C5  UNL     1      17.552  -1.628  17.590  1.00  0.00     0.392 C
ENDROOT
BRANCH   9  10
HETATM   10  O4  UNL     1      17.115  -0.769  16.630  1.00  0.00    -0.333 OA
BRANCH  10  11
HETATM   11  C6  UNL     1      17.967   0.263  16.240  1.00  0.00     0.187 C
HETATM   12  C7  UNL     1      18.865   0.745  17.333  1.00  0.00     0.217 C
HETATM   13  C8  UNL     1      19.738   1.904  16.887  1.00  0.00     0.063 C
HETATM   14  C9  UNL     1      19.835   2.034  15.414  1.00  0.00     0.120 C
HETATM   15  C13 UNL     1      19.749   0.823  14.599  1.00  0.00     0.242 C
HETATM   16  C18 UNL     1      18.851  -0.216  15.119  1.00  0.00     0.182 C
BRANCH  12  17
HETATM   17  N3  UNL     1      18.174   1.090  18.536  1.00  0.00    -0.072 N
ATOM     18  H33 UNL     1      18.348   0.395  19.262  1.00  0.00     0.274 HD
ATOM     19  H32 UNL     1      18.601   1.906  18.974  1.00  0.00     0.274 HD
ATOM     20  H31 UNL     1      17.172   1.233  18.408  1.00  0.00     0.274 HD
ENDBRANCH  12  17
BRANCH  14  21
HETATM   21  N4  UNL     1      18.975   3.119  14.909  1.00  0.00    -0.356 N
ATOM     22  H4  UNL     1      17.985   3.111  15.158  1.00  0.00     0.163 HD
BRANCH  21  23
HETATM   23  C10 UNL     1      19.459   4.179  14.091  1.00  0.00     0.173 C
HETATM   24  N5  UNL     1      19.523   5.425  14.455  1.00  0.00    -0.359 N
HETATM   25  C11 UNL     1      20.061   6.257  13.411  1.00  0.00     0.177 C
ATOM     26  H5  UNL     1      19.229   5.771  15.369  1.00  0.00     0.162 HD
HETATM   27  C12 UNL     1      20.137   5.333  12.217  1.00  0.00     0.302 C
HETATM   28  N7  UNL     1      19.943   4.035  12.774  1.00  0.00    -0.334 N
ATOM     29  H7  UNL     1      20.125   3.151  12.299  1.00  0.00     0.164 HD
BRANCH  27  30
HETATM   30  N6  UNL     1      21.428   5.451  11.544  1.00  0.00    -0.057 N
ATOM     31  H63 UNL     1      21.325   5.791  10.588  1.00  0.00     0.276 HD
ATOM     32  H62 UNL     1      21.980   6.221  11.923  1.00  0.00     0.276 HD
ATOM     33  H61 UNL     1      21.940   4.569  11.577  1.00  0.00     0.276 HD
ENDBRANCH  27  30
ENDBRANCH  21  23
ENDBRANCH  14  21
BRANCH  15  34
HETATM   34  N8  UNL     1      21.046   0.258  14.209  1.00  0.00    -0.038 N
ATOM     35  H82 UNL     1      21.803   0.688  14.741  1.00  0.00     0.281 HD
ATOM     36  H81 UNL     1      21.136  -0.704  14.538  1.00  0.00     0.281 HD
BRANCH  34  37
HETATM   37  C14 UNL     1      21.300   0.340  12.806  1.00  0.00     0.350 C
BRANCH  37  38
HETATM   38  O5  UNL     1      20.410   1.225  12.169  1.00  0.00    -0.368 OA
ATOM     39  H5  UNL     1      20.870   1.944  11.752  1.00  0.00     0.212 HD
ENDBRANCH  37  38
BRANCH  37  40
HETATM   40  C15 UNL     1      20.982  -1.025  12.201  1.00  0.00     0.205 C
BRANCH  40  41
HETATM   41  O6  UNL     1      19.726  -1.000  11.632  1.00  0.00    -0.389 OA
ATOM     42  H6  UNL     1      19.555  -1.828  11.198  1.00  0.00     0.210 HD
ENDBRANCH  40  41
BRANCH  40  43
HETATM   43  C16 UNL     1      22.070  -1.611  11.392  1.00  0.00     0.174 C
BRANCH  43  44
HETATM   44  O7  UNL     1      21.618  -2.797  10.763  1.00  0.00    -0.391 OA
ATOM     45  H7  UNL     1      22.041  -3.552  11.155  1.00  0.00     0.210 HD
ENDBRANCH  43  44
BRANCH  43  46
HETATM   46  C17 UNL     1      22.679  -0.698  10.382  1.00  0.00     0.198 C
BRANCH  46  47
HETATM   47  O8  UNL     1      23.051  -1.345   9.208  1.00  0.00    -0.398 OA
ATOM     48  H8  UNL     1      22.540  -2.127   9.031  1.00  0.00     0.209 HD
ENDBRANCH  46  47
ENDBRANCH  43  46
ENDBRANCH  40  43
ENDBRANCH  37  40
ENDBRANCH  34  37
ENDBRANCH  15  34
BRANCH  16  49
HETATM   49  O9  UNL     1      18.121  -0.872  14.116  1.00  0.00    -0.391 OA
ATOM     50  H9  UNL     1      17.454  -0.311  13.738  1.00  0.00     0.210 HD
ENDBRANCH  16  49
ENDBRANCH  10  11
ENDBRANCH   9  10
BRANCH   7  51
HETATM   51  O2  UNL     1      18.373  -1.754  20.162  1.00  0.00    -0.371 OA
ATOM     52  H2  UNL     1      18.915  -2.529  20.247  1.00  0.00     0.212 HD
ENDBRANCH   7  51
TORSDOF 17
ENDMDL