MODEL 4
REMARK VINA RESULT: -6.262314164      1.229      1.682
REMARK  15 active torsions:
REMARK  status: ('A' for Active; 'I' for Inactive)
REMARK    1  A    between atoms: N1_1  and  N2_4
REMARK    2  A    between atoms: C1_6  and  C2_8
REMARK    3  A    between atoms: C2_8  and  O1_9
REMARK    4  A    between atoms: O1_9  and  N4_10
REMARK    5  A    between atoms: N5_12  and  N6_14
REMARK    6  A    between atoms: N6_14  and  C3_16
REMARK    7  A    between atoms: N9_23  and  C6_24
REMARK    8  A    between atoms: C7_26  and  C8_27
REMARK    9  A    between atoms: C8_27  and  O3_28
REMARK   10  A    between atoms: C9_30  and  O4_31
REMARK   11  A    between atoms: C10_33  and  O5_34
REMARK   12  A    between atoms: C10_33  and  C11_36
REMARK   13  A    between atoms: C11_36  and  O6_37
REMARK   14  A    between atoms: N10_41  and  C13_42
REMARK   15  A    between atoms: C14_46  and  O8_47
ROOT
HETATM    1  C3  UNL     1      18.924  -4.884  12.338  1.00  0.00     0.701 A
HETATM    2  N7  UNL     1      19.929  -4.252  11.709  1.00  0.00    -0.171 N
ATOM      3  H7  UNL     1      20.524  -4.641  10.977  1.00  0.00     0.186 HD
HETATM    4  C4  UNL     1      20.008  -2.996  12.229  1.00  0.00     0.180 A
HETATM    5  C5  UNL     1      19.041  -2.831  13.199  1.00  0.00     0.175 A
HETATM    6  N8  UNL     1      18.390  -4.032  13.232  1.00  0.00    -0.171 N
ATOM      7  H8  UNL     1      17.608  -4.252  13.848  1.00  0.00     0.186 HD
HETATM    8  N9  UNL     1      19.120  -1.591  13.712  1.00  0.00    -0.250 N
HETATM    9  C12 UNL     1      20.109  -0.971  13.093  1.00  0.00     0.341 A
HETATM   10  O7  UNL     1      20.472   0.212  13.318  1.00  0.00    -0.246 OA
HETATM   11  N10 UNL     1      20.645  -1.814  12.199  1.00  0.00    -0.208 N
ENDROOT
BRANCH   1  12
HETATM   12  N6  UNL     1      18.513  -6.105  12.141  1.00  0.00    -0.116 N
ATOM     13  H6  UNL     1      18.983  -6.869  12.628  1.00  0.00     0.207 HD
BRANCH  12  14
HETATM   14  N5  UNL     1      17.453  -6.402  11.290  1.00  0.00    -0.209 N
HETATM   15  N4  UNL     1      16.461  -7.096  11.605  1.00  0.00    -0.192 N
ATOM     16  H4  UNL     1      15.725  -7.265  10.919  1.00  0.00     0.217 HD
ATOM     17  H5  UNL     1      17.488  -6.029  10.340  1.00  0.00     0.211 HD
BRANCH  15  18
HETATM   18  O1  UNL     1      16.351  -7.630  12.865  1.00  0.00    -0.257 OA
BRANCH  18  19
HETATM   19  C2  UNL     1      15.232  -7.377  13.693  1.00  0.00     0.277 C
BRANCH  19  20
HETATM   20  C1  UNL     1      15.616  -6.338  14.674  1.00  0.00     0.133 C
HETATM   21  N2  UNL     1      14.703  -5.674  15.276  1.00  0.00    -0.296 N
ATOM     22  H2  UNL     1      14.951  -4.954  15.955  1.00  0.00     0.187 HD
HETATM   23  N3  UNL     1      16.976  -6.052  14.971  1.00  0.00    -0.084 NA
BRANCH  21  24
HETATM   24  N1  UNL     1      13.366  -5.945  14.994  1.00  0.00    -0.344 N
ATOM     25  H12 UNL     1      13.058  -6.914  14.912  1.00  0.00     0.176 HD
ATOM     26  H11 UNL     1      12.716  -5.169  14.873  1.00  0.00     0.176 HD
ENDBRANCH  21  24
ENDBRANCH  19  20
ENDBRANCH  18  19
ENDBRANCH  15  18
ENDBRANCH  12  14
ENDBRANCH   1  12
BRANCH  11  27
HETATM   27  C13 UNL     1      21.747  -1.545  11.311  1.00  0.00     0.251 C
HETATM   28  N11 UNL     1      22.309  -0.400  11.165  1.00  0.00    -0.264 N
HETATM   29  N12 UNL     1      23.347  -0.460  10.233  1.00  0.00    -0.078 NA
ATOM     30  H11 UNL     1      22.032   0.446  11.665  1.00  0.00     0.186 HD
HETATM   31  C14 UNL     1      23.301  -1.802   9.651  1.00  0.00     0.386 C
HETATM   32  O9  UNL     1      22.370  -2.466  10.484  1.00  0.00    -0.272 OA
BRANCH  31  33
HETATM   33  O8  UNL     1      24.553  -2.364   9.848  1.00  0.00    -0.356 OA
ATOM     34  H8  UNL     1      24.444  -3.052  10.495  1.00  0.00     0.214 HD
ENDBRANCH  31  33
ENDBRANCH  11  27
BRANCH   8  35
HETATM   35  C6  UNL     1      18.221  -1.142  14.752  1.00  0.00     0.274 C
HETATM   36  O2  UNL     1      17.204  -2.046  15.007  1.00  0.00    -0.353 OA
HETATM   37  C7  UNL     1      16.553  -1.459  16.087  1.00  0.00     0.179 C
HETATM   38  C9  UNL     1      17.591  -0.797  16.940  1.00  0.00     0.190 C
HETATM   39  C10 UNL     1      18.865  -1.037  16.112  1.00  0.00     0.151 C
BRANCH  37  40
HETATM   40  C8  UNL     1      15.751  -2.491  16.862  1.00  0.00     0.198 C
BRANCH  40  41
HETATM   41  O3  UNL     1      16.409  -3.711  16.915  1.00  0.00    -0.398 OA
ATOM     42  H3  UNL     1      15.929  -4.343  17.438  1.00  0.00     0.209 HD
ENDBRANCH  40  41
ENDBRANCH  37  40
BRANCH  38  43
HETATM   43  O4  UNL     1      17.396   0.593  17.037  1.00  0.00    -0.390 OA
ATOM     44  H4  UNL     1      18.122   1.030  17.467  1.00  0.00     0.210 HD
ENDBRANCH  38  43
BRANCH  39  45
HETATM   45  O5  UNL     1      19.736   0.036  16.234  1.00  0.00    -0.380 OA
ATOM     46  H5  UNL     1      20.622  -0.216  16.468  1.00  0.00     0.211 HD
ENDBRANCH  39  45
BRANCH  39  47
HETATM   47  C11 UNL     1      19.446  -2.322  16.621  1.00  0.00     0.209 C
BRANCH  47  48
HETATM   48  O6  UNL     1      19.148  -2.614  17.925  1.00  0.00    -0.398 OA
ATOM     49  H6  UNL     1      19.570  -2.057  18.567  1.00  0.00     0.209 HD
ENDBRANCH  47  48
ENDBRANCH  39  47
ENDBRANCH   8  35
TORSDOF 15
ENDMDL