MODEL 4
REMARK VINA RESULT: -8.765249347      3.880      7.623
REMARK  12 active torsions:
REMARK  status: ('A' for Active; 'I' for Inactive)
REMARK    1  A    between atoms: C2_2  and  C3_3
REMARK    2  A    between atoms: C3_3  and  C4_4
REMARK    3  A    between atoms: C4_4  and  C5_5
REMARK    4  A    between atoms: C5_5  and  C6_6
REMARK    5  A    between atoms: C6_6  and  C7_7
REMARK    6  A    between atoms: C7_7  and  C8_8
REMARK    7  A    between atoms: C8_8  and  C9_9
REMARK    8  A    between atoms: C9_9  and  C10_10
REMARK    9  A    between atoms: C9_9  and  C13_13
REMARK   10  A    between atoms: C10_10  and  C11_11
REMARK   11  A    between atoms: C28_31  and  O3_32
REMARK   12  A    between atoms: O3_32  and  C29_33
ROOT
HETATM    1  C13 UNL     1      12.985 -23.283   2.525  1.00  0.00     0.096 C
HETATM    2  C14 UNL     1      11.727 -22.618   2.904  1.00  0.00     0.141 C
HETATM    3  O1  UNL     1      10.543 -22.832   2.809  1.00  0.00    -0.297 OA
HETATM    4  C15 UNL     1      12.604 -21.523   3.480  1.00  0.00     0.072 C
HETATM    5  C16 UNL     1      12.073 -20.187   3.209  1.00  0.00     0.003 C
HETATM    6  C17 UNL     1      10.710 -19.966   3.878  1.00  0.00     0.008 C
HETATM    7  C18 UNL     1      10.445 -18.489   3.849  1.00  0.00     0.026 C
HETATM    8  C19 UNL     1      10.448 -17.975   2.439  1.00  0.00     0.095 C
HETATM    9  N1  UNL     1      10.286 -16.557   2.374  1.00  0.00    -0.351 N
HETATM   10  C20 UNL     1       9.978 -15.698   3.487  1.00  0.00     0.153 C
HETATM   11  C21 UNL     1      10.445 -15.938   1.091  1.00  0.00     0.219 C
HETATM   12  O2  UNL     1      10.421 -14.701   0.948  1.00  0.00    -0.273 OA
HETATM   13  C22 UNL     1      10.638 -16.846  -0.060  1.00  0.00     0.103 C
HETATM   14  C23 UNL     1      11.516 -18.014   0.222  1.00  0.00     0.020 C
HETATM   15  C24 UNL     1      11.684 -18.350   1.673  1.00  0.00    -0.019 C
HETATM   16  C25 UNL     1      12.851 -17.614   2.287  1.00  0.00     0.018 C
HETATM   17  C26 UNL     1      11.879 -19.865   1.753  1.00  0.00     0.003 C
HETATM   18  C27 UNL     1      12.974 -20.315   0.877  1.00  0.00     0.039 C
HETATM   19  C28 UNL     1      13.907 -21.347   1.318  1.00  0.00     0.142 C
HETATM   20  C31 UNL     1      13.716 -22.036   2.640  1.00  0.00     0.008 C
HETATM   21  C32 UNL     1      15.020 -21.956   3.403  1.00  0.00     0.020 C
ENDROOT
BRANCH   1  22
HETATM   22  C9  UNL     1      13.315 -24.592   3.177  1.00  0.00    -0.068 C
BRANCH  22  23
HETATM   23  C8  UNL     1      12.440 -25.005   4.265  1.00  0.00    -0.023 C
BRANCH  23  24
HETATM   24  C7  UNL     1      12.747 -24.742   5.678  1.00  0.00     0.027 C
BRANCH  24  25
HETATM   25  C6  UNL     1      13.998 -24.027   6.035  1.00  0.00     0.004 C
BRANCH  25  26
HETATM   26  C5  UNL     1      14.195 -24.023   7.545  1.00  0.00     0.001 C
BRANCH  26  27
HETATM   27  C4  UNL     1      14.167 -22.633   8.107  1.00  0.00     0.004 C
BRANCH  27  28
HETATM   28  C3  UNL     1      13.720 -21.609   7.088  1.00  0.00     0.026 C
BRANCH  28  29
HETATM   29  C2  UNL     1      14.771 -20.586   6.850  1.00  0.00    -0.037 C
HETATM   30  C1  UNL     1      15.113 -19.701   7.788  1.00  0.00     0.007 C
ENDBRANCH  28  29
ENDBRANCH  27  28
ENDBRANCH  26  27
ENDBRANCH  25  26
ENDBRANCH  24  25
ENDBRANCH  23  24
ENDBRANCH  22  23
BRANCH  22  31
HETATM   31  C10 UNL     1      13.878 -25.548   2.189  1.00  0.00     0.061 C
BRANCH  31  32
HETATM   32  C11 UNL     1      15.229 -25.285   1.686  1.00  0.00    -0.033 C
HETATM   33  C12 UNL     1      16.259 -25.270   2.569  1.00  0.00     0.007 C
ENDBRANCH  31  32
ENDBRANCH  22  31
ENDBRANCH   1  22
BRANCH  19  34
HETATM   34  O3  UNL     1      15.261 -20.933   1.096  1.00  0.00    -0.315 OA
BRANCH  34  35
HETATM   35  C29 UNL     1      15.665 -19.659   0.832  1.00  0.00     0.255 C
HETATM   36  C30 UNL     1      15.722 -19.076  -0.544  1.00  0.00     0.126 C
HETATM   37  O4  UNL     1      16.005 -18.942   1.804  1.00  0.00    -0.266 OA
ENDBRANCH  34  35
ENDBRANCH  19  34
TORSDOF 12
ENDMDL