MODEL 1
REMARK VINA RESULT: -7.710735385      0.000      0.000
REMARK  12 active torsions:
REMARK  status: ('A' for Active; 'I' for Inactive)
REMARK    1  A    between atoms: C2_2  and  C3_3
REMARK    2  A    between atoms: C3_3  and  C4_4
REMARK    3  A    between atoms: C14_15  and  C15_16
REMARK    4  A    between atoms: C15_16  and  O3_18
REMARK    5  A    between atoms: C18_21  and  C20_23
REMARK    6  A    between atoms: C23_26  and  C24_27
REMARK    7  A    between atoms: C24_27  and  C25_28
REMARK    8  A    between atoms: C25_28  and  N1_29
REMARK    9  A    between atoms: N1_29  and  C26_30
REMARK       I    between atoms: N1_29  and  C31_35
REMARK   10  A    between atoms: C26_30  and  C27_31
REMARK   11  A    between atoms: C27_31  and  C28_32
REMARK   12  A    between atoms: C28_32  and  C29_33
ROOT
HETATM    1  C4  UNL     1      11.049 -22.159   3.633  1.00  0.00    -0.012 C
HETATM    2  C5  UNL     1      12.097 -21.781   2.641  1.00  0.00     0.026 C
HETATM    3  C6  UNL     1      11.925 -20.537   1.885  1.00  0.00     0.012 C
HETATM    4  C7  UNL     1      10.605 -20.649   1.132  1.00  0.00     0.033 C
HETATM    5  C8  UNL     1       9.516 -20.782   2.122  1.00  0.00     0.126 C
HETATM    6  O1  UNL     1       8.365 -21.389   1.602  1.00  0.00    -0.385 OA
HETATM    7  C9  UNL     1       7.216 -20.851   2.176  1.00  0.00     0.168 C
HETATM    8  C10 UNL     1       7.456 -20.735   3.658  1.00  0.00     0.027 C
HETATM    9  C11 UNL     1       8.570 -21.701   4.113  1.00  0.00     0.010 C
HETATM   10  C12 UNL     1       9.889 -21.285   3.492  1.00  0.00     0.025 C
HETATM   11  C13 UNL     1      13.163 -21.744   3.633  1.00  0.00    -0.053 C
HETATM   12  C14 UNL     1      14.404 -21.665   4.079  1.00  0.00     0.022 C
HETATM   13  C17 UNL     1      14.782 -21.800   5.539  1.00  0.00     0.058 C
HETATM   14  C18 UNL     1      13.920 -22.846   6.182  1.00  0.00    -0.022 C
HETATM   15  C19 UNL     1      14.757 -24.159   6.071  1.00  0.00     0.020 C
HETATM   16  C22 UNL     1      12.626 -23.087   5.427  1.00  0.00     0.028 C
HETATM   17  C23 UNL     1      12.095 -21.855   4.700  1.00  0.00    -0.004 C
ENDROOT
BRANCH  17  18
HETATM   18  C24 UNL     1      11.958 -20.733   5.605  1.00  0.00     0.035 C
BRANCH  18  19
HETATM   19  C25 UNL     1      12.656 -19.453   5.628  1.00  0.00     0.127 C
BRANCH  19  20
HETATM   20  N1  UNL     1      11.838 -18.512   4.834  1.00  0.00    -0.352 N
HETATM   21  C31 UNL     1      12.447 -17.710   3.882  1.00  0.00     0.215 C
HETATM   22  C32 UNL     1      11.801 -16.667   3.037  1.00  0.00     0.117 C
HETATM   23  O4  UNL     1      13.712 -17.818   3.646  1.00  0.00    -0.274 OA
BRANCH  20  24
HETATM   24  C26 UNL     1      10.419 -18.465   5.059  1.00  0.00     0.125 C
BRANCH  24  25
HETATM   25  C27 UNL     1       9.992 -17.662   6.254  1.00  0.00     0.020 C
BRANCH  25  26
HETATM   26  C28 UNL     1       9.239 -18.390   7.305  1.00  0.00     0.001 C
BRANCH  26  27
HETATM   27  C29 UNL     1       9.215 -17.572   8.615  1.00  0.00    -0.004 C
HETATM   28  C30 UNL     1       8.442 -18.381   9.612  1.00  0.00     0.005 C
ENDBRANCH  26  27
ENDBRANCH  25  26
ENDBRANCH  24  25
ENDBRANCH  20  24
ENDBRANCH  19  20
ENDBRANCH  18  19
ENDBRANCH  17  18
BRANCH   1  29
HETATM   29  C3  UNL     1      10.656 -23.624   3.595  1.00  0.00     0.038 C
BRANCH  29  30
HETATM   30  C2  UNL     1      10.979 -24.376   2.385  1.00  0.00    -0.036 C
HETATM   31  C1  UNL     1      11.732 -25.445   2.241  1.00  0.00     0.007 C
ENDBRANCH  29  30
ENDBRANCH   1  29
BRANCH  12  32
HETATM   32  C15 UNL     1      15.457 -21.516   3.068  1.00  0.00     0.289 C
HETATM   33  O2  UNL     1      15.618 -20.345   2.591  1.00  0.00    -0.260 OA
BRANCH  32  34
HETATM   34  O3  UNL     1      16.268 -22.496   2.598  1.00  0.00    -0.323 OA
HETATM   35  C16 UNL     1      15.810 -23.823   2.366  1.00  0.00     0.213 C
ENDBRANCH  32  34
ENDBRANCH  12  32
BRANCH  14  36
HETATM   36  C20 UNL     1      13.769 -22.733   7.647  1.00  0.00    -0.027 C
HETATM   37  C21 UNL     1      14.436 -21.795   8.279  1.00  0.00     0.007 C
ENDBRANCH  14  36
TORSDOF 12
ENDMDL