MODEL 1
REMARK VINA RESULT: -7.462119993      0.000      0.000
REMARK  11 active torsions:
REMARK  status: ('A' for Active; 'I' for Inactive)
REMARK    1  A    between atoms: O1_2  and  C2_3
REMARK    2  A    between atoms: C2_3  and  C3_4
REMARK    3  A    between atoms: C3_4  and  N1_5
REMARK    4  A    between atoms: N1_5  and  C4_6
REMARK    5  A    between atoms: N1_5  and  C29_34
REMARK    6  A    between atoms: C4_6  and  C5_7
REMARK    7  A    between atoms: C6_8  and  C7_9
REMARK    8  A    between atoms: C12_14  and  N2_15
REMARK    9  A    between atoms: C22_25  and  C23_26
REMARK   10  A    between atoms: C29_34  and  C30_35
REMARK   11  A    between atoms: C30_35  and  N4_36
ROOT
HETATM    1  C7  UNL     1      14.111 -22.540   4.657  1.00  0.00     0.026 C
HETATM    2  C8  UNL     1      14.139 -23.993   5.038  1.00  0.00     0.008 C
HETATM    3  C9  UNL     1      14.730 -24.263   6.408  1.00  0.00     0.007 C
HETATM    4  C10 UNL     1      13.766 -23.740   7.401  1.00  0.00     0.006 C
HETATM    5  C11 UNL     1      13.144 -22.459   7.064  1.00  0.00     0.054 C
HETATM    6  C12 UNL     1      13.445 -21.774   5.755  1.00  0.00     0.000 C
HETATM    7  C15 UNL     1      12.964 -24.802   4.692  1.00  0.00    -0.009 C
HETATM    8  C16 UNL     1      13.125 -25.198   3.208  1.00  0.00     0.005 C
HETATM    9  C17 UNL     1      13.683 -23.939   2.589  1.00  0.00     0.009 C
HETATM   10  C18 UNL     1      13.372 -22.654   3.348  1.00  0.00     0.032 C
HETATM   11  C19 UNL     1      11.912 -22.436   3.250  1.00  0.00     0.035 C
HETATM   12  C20 UNL     1      11.576 -22.695   1.750  1.00  0.00     0.037 C
HETATM   13  C21 UNL     1      10.298 -21.905   1.576  1.00  0.00     0.055 C
HETATM   14  C22 UNL     1      10.700 -20.708   2.360  1.00  0.00    -0.010 C
HETATM   15  N3  UNL     1      11.520 -21.040   3.197  1.00  0.00    -0.386 N
ATOM     16  H3  UNL     1      11.920 -20.358   3.841  1.00  0.00     0.160 HD
HETATM   17  C27 UNL     1      11.022 -23.276   4.073  1.00  0.00     0.032 C
HETATM   18  C28 UNL     1      11.576 -24.430   4.795  1.00  0.00     0.007 C
ENDROOT
BRANCH   1  19
HETATM   19  C6  UNL     1      15.382 -21.844   4.393  1.00  0.00    -0.013 C
HETATM   20  C5  UNL     1      16.029 -21.297   3.244  1.00  0.00    -0.010 C
BRANCH  20  21
HETATM   21  C4  UNL     1      16.528 -22.133   2.094  1.00  0.00     0.149 C
BRANCH  21  22
HETATM   22  N1  UNL     1      17.186 -21.333   1.128  1.00  0.00    -0.386 N
BRANCH  22  23
HETATM   23  C3  UNL     1      16.288 -20.455   0.443  1.00  0.00     0.148 C
BRANCH  23  24
HETATM   24  C2  UNL     1      16.690 -19.024   0.409  1.00  0.00     0.186 C
BRANCH  24  25
HETATM   25  O1  UNL     1      16.345 -18.392   1.581  1.00  0.00    -0.394 OA
HETATM   26  C1  UNL     1      15.220 -17.610   1.506  1.00  0.00     0.201 C
ENDBRANCH  24  25
ENDBRANCH  23  24
ENDBRANCH  22  23
BRANCH  22  27
HETATM   27  C29 UNL     1      18.179 -21.843   0.301  1.00  0.00     0.088 C
BRANCH  27  28
HETATM   28  C30 UNL     1      19.607 -21.762   0.779  1.00  0.00     0.315 C
BRANCH  28  29
HETATM   29  N4  UNL     1      19.821 -20.533   1.554  1.00  0.00     0.084 N
HETATM   30  C31 UNL     1      20.374 -19.553   0.664  1.00  0.00     0.309 C
HETATM   31  C32 UNL     1      20.684 -20.745   2.672  1.00  0.00     0.309 C
ENDBRANCH  28  29
ENDBRANCH  27  28
ENDBRANCH  22  27
ENDBRANCH  21  22
ENDBRANCH  20  21
ENDBRANCH   1  19
BRANCH   6  32
HETATM   32  N2  UNL     1      13.882 -20.473   6.135  1.00  0.00    -0.377 N
HETATM   33  C13 UNL     1      14.660 -20.089   7.172  1.00  0.00     0.120 C
HETATM   34  C14 UNL     1      13.032 -19.385   5.701  1.00  0.00     0.154 C
ENDBRANCH   6  32
BRANCH  14  35
HETATM   35  C23 UNL     1      10.199 -19.299   2.174  1.00  0.00    -0.013 C
HETATM   36  C24 UNL     1       9.570 -19.222   0.827  1.00  0.00     0.021 C
HETATM   37  C25 UNL     1       9.152 -19.005   3.221  1.00  0.00     0.021 C
HETATM   38  C26 UNL     1      11.316 -18.301   2.384  1.00  0.00     0.021 C
ENDBRANCH  14  35
TORSDOF 11
ENDMDL