MODEL 3
REMARK VINA RESULT: -7.999485110      3.786      7.808
REMARK  14 active torsions:
REMARK  status: ('A' for Active; 'I' for Inactive)
REMARK    1  A    between atoms: C3_4  and  C4_5
REMARK    2  A    between atoms: C4_5  and  C16_17
REMARK    3  A    between atoms: C5_6  and  C6_7
REMARK    4  A    between atoms: C6_7  and  C7_8
REMARK    5  A    between atoms: C7_8  and  C8_9
REMARK    6  A    between atoms: C8_9  and  C10_11
REMARK    7  A    between atoms: C10_11  and  C11_12
REMARK    8  A    between atoms: C11_12  and  C12_13
REMARK    9  A    between atoms: C16_17  and  C18_19
REMARK   10  A    between atoms: C18_19  and  N1_20
REMARK   11  A    between atoms: N2_26  and  C24_27
REMARK   12  A    between atoms: C24_27  and  O2_28
REMARK   13  A    between atoms: C24_27  and  C25_30
REMARK   14  A    between atoms: C29_34  and  N3_35
ROOT
HETATM    1  C1  UNL     1      16.985 -21.745  -1.048  1.00  0.00     0.072 C
HETATM    2  C2  UNL     1      16.659 -20.961  -0.021  1.00  0.00     0.137 C
HETATM    3  O1  UNL     1      16.052 -21.392   1.146  1.00  0.00    -0.326 OA
HETATM    4  C3  UNL     1      14.980 -20.566   1.640  1.00  0.00     0.161 C
HETATM    5  C22 UNL     1      15.313 -19.117   1.577  1.00  0.00     0.057 C
HETATM    6  C23 UNL     1      15.843 -18.689   0.229  1.00  0.00     0.136 C
HETATM    7  N2  UNL     1      16.964 -19.585  -0.162  1.00  0.00    -0.308 N
ENDROOT
BRANCH   4   8
HETATM    8  C4  UNL     1      14.532 -21.017   2.987  1.00  0.00    -0.045 C
HETATM    9  C5  UNL     1      15.399 -21.490   3.863  1.00  0.00     0.006 C
BRANCH   9  10
HETATM   10  C6  UNL     1      15.216 -21.980   5.210  1.00  0.00     0.001 C
BRANCH  10  11
HETATM   11  C7  UNL     1      14.894 -23.347   5.498  1.00  0.00     0.002 C
BRANCH  11  12
HETATM   12  C8  UNL     1      13.844 -23.871   6.041  1.00  0.00    -0.084 C
HETATM   13  C9  UNL     1      13.655 -24.133   7.467  1.00  0.00     0.043 C
BRANCH  12  14
HETATM   14  C10 UNL     1      12.652 -24.273   5.163  1.00  0.00     0.037 C
BRANCH  14  15
HETATM   15  C11 UNL     1      13.144 -25.228   4.116  1.00  0.00     0.031 C
BRANCH  15  16
HETATM   16  C12 UNL     1      12.993 -24.680   2.745  1.00  0.00    -0.024 C
HETATM   17  C13 UNL     1      14.010 -24.586   1.898  1.00  0.00    -0.091 C
HETATM   18  C14 UNL     1      13.850 -24.033   0.524  1.00  0.00     0.042 C
HETATM   19  C15 UNL     1      15.348 -25.062   2.371  1.00  0.00     0.042 C
ENDBRANCH  15  16
ENDBRANCH  14  15
ENDBRANCH  12  14
ENDBRANCH  11  12
ENDBRANCH  10  11
ENDBRANCH   9  10
BRANCH   8  20
HETATM   20  C16 UNL     1      13.099 -20.932   3.329  1.00  0.00     0.039 C
HETATM   21  C17 UNL     1      12.260 -21.198   2.093  1.00  0.00     0.016 C
BRANCH  20  22
HETATM   22  C18 UNL     1      12.857 -19.544   3.873  1.00  0.00     0.244 C
BRANCH  22  23
HETATM   23  N1  UNL     1      12.251 -19.464   5.152  1.00  0.00    -0.078 N
HETATM   24  C19 UNL     1      11.835 -20.707   5.743  1.00  0.00     0.271 C
HETATM   25  C20 UNL     1      13.273 -18.917   6.065  1.00  0.00     0.271 C
HETATM   26  C21 UNL     1      11.182 -18.478   5.161  1.00  0.00     0.271 C
ENDBRANCH  22  23
ENDBRANCH  20  22
ENDBRANCH   8  20
ENDBRANCH   4   8
BRANCH   7  27
HETATM   27  C24 UNL     1      18.197 -19.021  -0.530  1.00  0.00     0.154 C
BRANCH  27  28
HETATM   28  O2  UNL     1      18.016 -18.022  -1.371  1.00  0.00    -0.345 OA
ATOM     29  H2  UNL     1      17.573 -18.323  -2.156  1.00  0.00     0.219 HD
ENDBRANCH  27  28
BRANCH  27  30
HETATM   30  C25 UNL     1      19.537 -19.329  -0.165  1.00  0.00     0.017 A
HETATM   31  C26 UNL     1      20.546 -18.952  -1.059  1.00  0.00     0.016 A
HETATM   32  C27 UNL     1      21.875 -19.099  -0.829  1.00  0.00     0.003 A
HETATM   33  C28 UNL     1      22.296 -19.652   0.354  1.00  0.00     0.036 A
HETATM   34  C29 UNL     1      21.346 -20.039   1.268  1.00  0.00     0.103 A
HETATM   35  C30 UNL     1      19.979 -19.875   1.003  1.00  0.00     0.051 A
BRANCH  34  36
HETATM   36  N3  UNL     1      21.788 -20.609   2.490  1.00  0.00    -0.116 N
HETATM   37  O3  UNL     1      21.047 -21.338   3.172  1.00  0.00    -0.532 OA
HETATM   38  O4  UNL     1      23.057 -20.373   2.959  1.00  0.00    -0.532 OA
ENDBRANCH  34  36
ENDBRANCH  27  30
ENDBRANCH   7  27
TORSDOF 14
ENDMDL