MODEL 1
REMARK VINA RESULT: -8.569615768      0.000      0.000
REMARK  11 active torsions:
REMARK  status: ('A' for Active; 'I' for Inactive)
REMARK    1  A    between atoms: C2_2  and  C3_3
REMARK    2  A    between atoms: C3_3  and  C4_4
REMARK    3  A    between atoms: C4_4  and  C5_5
REMARK    4  A    between atoms: C5_5  and  C6_6
REMARK    5  A    between atoms: C6_6  and  C7_7
REMARK    6  A    between atoms: C7_7  and  C8_8
REMARK    7  A    between atoms: C8_8  and  C9_9
REMARK    8  A    between atoms: C16_18  and  C17_19
REMARK    9  A    between atoms: C17_19  and  C18_20
REMARK   10  A    between atoms: C24_27  and  C26_29
REMARK   11  A    between atoms: C26_29  and  N1_30
ROOT
HETATM    1  C8  UNL     1      13.505 -22.839   6.093  1.00  0.00    -0.036 C
HETATM    2  C11 UNL     1      12.561 -23.697   5.341  1.00  0.00     0.039 C
HETATM    3  C12 UNL     1      11.844 -22.959   4.246  1.00  0.00     0.007 C
HETATM    4  C13 UNL     1      11.463 -21.712   4.434  1.00  0.00     0.055 C
HETATM    5  O1  UNL     1      10.811 -21.175   3.318  1.00  0.00    -0.341 OA
HETATM    6  C14 UNL     1      10.453 -19.872   3.313  1.00  0.00     0.216 C
HETATM    7  C15 UNL     1       9.554 -19.797   4.559  1.00  0.00     0.174 C
HETATM    8  O2  UNL     1       8.534 -20.378   4.673  1.00  0.00    -0.294 OA
HETATM    9  C16 UNL     1      10.193 -18.886   5.554  1.00  0.00     0.094 C
HETATM   10  C22 UNL     1      10.368 -17.641   4.700  1.00  0.00     0.105 C
HETATM   11  C23 UNL     1       9.663 -17.728   3.358  1.00  0.00     0.141 C
HETATM   12  O3  UNL     1       8.962 -16.847   2.921  1.00  0.00    -0.297 OA
HETATM   13  C24 UNL     1       9.808 -18.983   2.453  1.00  0.00     0.074 C
HETATM   14  C25 UNL     1       8.373 -19.362   2.174  1.00  0.00     0.028 C
HETATM   15  C30 UNL     1      11.493 -19.630   5.791  1.00  0.00     0.154 C
HETATM   16  O4  UNL     1      12.436 -18.929   6.019  1.00  0.00    -0.296 OA
HETATM   17  C31 UNL     1      11.793 -21.116   5.786  1.00  0.00     0.114 C
HETATM   18  C32 UNL     1      13.230 -21.343   6.012  1.00  0.00     0.028 C
ENDROOT
BRANCH   1  19
HETATM   19  C7  UNL     1      14.904 -22.999   5.481  1.00  0.00     0.010 C
BRANCH  19  20
HETATM   20  C6  UNL     1      15.199 -22.067   4.365  1.00  0.00     0.001 C
BRANCH  20  21
HETATM   21  C5  UNL     1      15.616 -22.798   3.100  1.00  0.00     0.000 C
BRANCH  21  22
HETATM   22  C4  UNL     1      15.641 -24.272   3.379  1.00  0.00     0.000 C
BRANCH  22  23
HETATM   23  C3  UNL     1      15.264 -25.150   2.234  1.00  0.00    -0.000 C
BRANCH  23  24
HETATM   24  C2  UNL     1      13.862 -24.785   1.708  1.00  0.00    -0.005 C
HETATM   25  C1  UNL     1      12.904 -25.853   2.167  1.00  0.00     0.005 C
ENDBRANCH  23  24
ENDBRANCH  22  23
ENDBRANCH  21  22
ENDBRANCH  20  21
ENDBRANCH  19  20
ENDBRANCH   1  19
BRANCH   1  26
HETATM   26  C9  UNL     1      13.644 -23.185   7.548  1.00  0.00     0.005 C
HETATM   27  C10 UNL     1      14.360 -22.151   8.374  1.00  0.00     0.006 C
ENDBRANCH   1  26
BRANCH   9  28
HETATM   28  C17 UNL     1       9.409 -18.712   6.791  1.00  0.00     0.053 C
BRANCH  28  29
HETATM   29  C18 UNL     1       9.797 -17.456   7.467  1.00  0.00    -0.023 C
HETATM   30  C19 UNL     1       9.420 -17.189   8.704  1.00  0.00    -0.091 C
HETATM   31  C20 UNL     1       9.799 -15.932   9.401  1.00  0.00     0.042 C
HETATM   32  C21 UNL     1       8.599 -18.186   9.437  1.00  0.00     0.042 C
ENDBRANCH  28  29
ENDBRANCH   9  28
BRANCH  13  33
HETATM   33  C26 UNL     1      10.518 -18.418   1.270  1.00  0.00     0.256 C
BRANCH  33  34
HETATM   34  N1  UNL     1      11.871 -18.602   1.038  1.00  0.00    -0.077 N
HETATM   35  C27 UNL     1      12.120 -19.848   0.261  1.00  0.00     0.271 C
HETATM   36  C28 UNL     1      12.320 -17.561   0.081  1.00  0.00     0.271 C
HETATM   37  C29 UNL     1      12.818 -18.587   2.085  1.00  0.00     0.271 C
ENDBRANCH  33  34
ENDBRANCH  13  33
TORSDOF 11
ENDMDL