MODEL 5
REMARK VINA RESULT: -7.705177522      2.572      4.079
REMARK  12 active torsions:
REMARK  status: ('A' for Active; 'I' for Inactive)
REMARK    1  A    between atoms: C4_4  and  C5_5
REMARK    2  A    between atoms: C6_6  and  C7_7
REMARK    3  A    between atoms: C7_7  and  C8_8
REMARK    4  A    between atoms: C8_8  and  C9_9
REMARK    5  A    between atoms: C10_10  and  C11_11
REMARK    6  A    between atoms: C12_12  and  C13_13
REMARK    7  A    between atoms: C13_13  and  C14_14
REMARK    8  A    between atoms: C14_14  and  C15_15
REMARK    9  A    between atoms: C16_16  and  C17_17
REMARK   10  A    between atoms: C18_18  and  C19_19
REMARK   11  A    between atoms: C23_24  and  C24_25
REMARK   12  A    between atoms: C27_28  and  S1_29
ROOT
HETATM    1  C1  UNL     1       8.930 -16.832  11.212  1.00  0.00     0.017 C
HETATM    2  C2  UNL     1       8.817 -17.464  10.209  1.00  0.00    -0.089 C
HETATM    3  C3  UNL     1       8.666 -18.239   9.029  1.00  0.00     0.063 C
HETATM    4  C4  UNL     1       9.333 -18.011   7.915  1.00  0.00     0.009 C
ENDROOT
BRANCH   4   5
HETATM    5  C5  UNL     1       9.128 -18.855   6.735  1.00  0.00    -0.003 C
HETATM    6  C6  UNL     1       9.938 -18.860   5.709  1.00  0.00    -0.026 C
BRANCH   6   7
HETATM    7  C7  UNL     1       9.663 -19.745   4.523  1.00  0.00     0.031 C
BRANCH   7   8
HETATM    8  C8  UNL     1      11.056 -20.443   4.296  1.00  0.00     0.031 C
BRANCH   8   9
HETATM    9  C9  UNL     1      10.797 -21.877   4.527  1.00  0.00    -0.026 C
HETATM   10  C10 UNL     1      11.382 -22.799   3.756  1.00  0.00    -0.003 C
BRANCH  10  11
HETATM   11  C11 UNL     1      11.068 -24.170   4.058  1.00  0.00     0.008 C
HETATM   12  C12 UNL     1      11.769 -24.933   4.901  1.00  0.00     0.055 C
BRANCH  12  13
HETATM   13  C13 UNL     1      12.895 -24.496   5.603  1.00  0.00    -0.128 C
BRANCH  13  14
HETATM   14  C14 UNL     1      13.791 -24.188   6.385  1.00  0.00     0.055 C
BRANCH  14  15
HETATM   15  C15 UNL     1      13.807 -22.815   6.967  1.00  0.00     0.008 C
HETATM   16  C16 UNL     1      14.545 -21.879   6.454  1.00  0.00     0.001 C
BRANCH  16  17
HETATM   17  C17 UNL     1      15.418 -21.990   5.310  1.00  0.00     0.000 C
HETATM   18  C18 UNL     1      14.949 -21.708   4.101  1.00  0.00     0.002 C
BRANCH  18  19
HETATM   19  C19 UNL     1      15.746 -21.790   2.901  1.00  0.00     0.033 C
HETATM   20  C20 UNL     1      15.916 -22.900   2.230  1.00  0.00     0.081 C
HETATM   21  C21 UNL     1      15.401 -24.255   2.469  1.00  0.00     0.206 C
HETATM   22  N1  UNL     1      16.706 -23.002   1.024  1.00  0.00    -0.378 N
HETATM   23  O1  UNL     1      14.682 -24.631   3.396  1.00  0.00    -0.285 OA
HETATM   24  C22 UNL     1      15.897 -25.147   1.388  1.00  0.00     0.013 C
HETATM   25  C23 UNL     1      15.957 -26.458   1.494  1.00  0.00     0.024 C
HETATM   26  C31 UNL     1      16.274 -24.211   0.309  1.00  0.00     0.165 C
HETATM   27  C32 UNL     1      17.752 -22.120   0.560  1.00  0.00     0.150 C
BRANCH  25  28
HETATM   28  C24 UNL     1      16.447 -27.303   0.401  1.00  0.00    -0.035 A
HETATM   29  C25 UNL     1      17.786 -27.382   0.120  1.00  0.00     0.013 A
HETATM   30  C26 UNL     1      18.268 -28.192  -0.899  1.00  0.00     0.024 A
HETATM   31  C27 UNL     1      17.390 -28.942  -1.656  1.00  0.00     0.058 A
HETATM   32  C29 UNL     1      16.047 -28.848  -1.355  1.00  0.00     0.024 A
HETATM   33  C30 UNL     1      15.558 -28.051  -0.352  1.00  0.00     0.013 A
BRANCH  31  34
HETATM   34  S1  UNL     1      17.927 -29.995  -2.969  1.00  0.00     0.171 S
HETATM   35  C28 UNL     1      18.150 -28.946  -4.395  1.00  0.00     0.167 C
HETATM   36  O2  UNL     1      16.899 -31.063  -3.213  1.00  0.00    -0.223 OA
HETATM   37  O3  UNL     1      19.260 -30.545  -2.575  1.00  0.00    -0.223 OA
ENDBRANCH  31  34
ENDBRANCH  25  28
ENDBRANCH  18  19
ENDBRANCH  16  17
ENDBRANCH  14  15
ENDBRANCH  13  14
ENDBRANCH  12  13
ENDBRANCH  10  11
ENDBRANCH   8   9
ENDBRANCH   7   8
ENDBRANCH   6   7
ENDBRANCH   4   5
TORSDOF 12
ENDMDL