MODEL 4
REMARK VINA RESULT: -8.260991146      4.528      7.949
REMARK  12 active torsions:
REMARK  status: ('A' for Active; 'I' for Inactive)
REMARK    1  A    between atoms: C2_2  and  C3_3
REMARK    2  A    between atoms: C4_4  and  C5_5
REMARK    3  A    between atoms: C6_6  and  C7_7
REMARK    4  A    between atoms: C10_11  and  C11_12
REMARK    5  A    between atoms: C11_12  and  O3_14
REMARK    6  A    between atoms: O3_14  and  C12_15
REMARK    7  A    between atoms: C12_15  and  C13_16
REMARK    8  A    between atoms: C13_16  and  C15_18
REMARK    9  A    between atoms: C18_23  and  C19_24
REMARK   10  A    between atoms: C19_24  and  C20_25
REMARK   11  A    between atoms: C21_26  and  C22_27
REMARK   12  A    between atoms: C22_27  and  C23_28
ROOT
HETATM    1  C15 UNL     1       9.537 -17.578   2.436  1.00  0.00     0.030 C
HETATM    2  C16 UNL     1       9.190 -16.161   2.806  1.00  0.00     0.118 C
HETATM    3  C17 UNL     1      10.489 -15.407   2.942  1.00  0.00     0.259 C
HETATM    4  O4  UNL     1      10.640 -14.289   3.477  1.00  0.00    -0.265 OA
HETATM    5  O5  UNL     1      11.446 -16.190   2.366  1.00  0.00    -0.315 OA
HETATM    6  C18 UNL     1      11.049 -17.561   2.395  1.00  0.00     0.140 C
ENDROOT
BRANCH   1   7
HETATM    7  C13 UNL     1       8.895 -18.084   1.236  1.00  0.00     0.013 C
HETATM    8  C14 UNL     1       9.885 -18.509   0.138  1.00  0.00     0.012 C
BRANCH   7   9
HETATM    9  C12 UNL     1       7.860 -19.111   1.293  1.00  0.00     0.183 C
BRANCH   9  10
HETATM   10  O3  UNL     1       7.740 -20.102   2.193  1.00  0.00    -0.320 OA
BRANCH  10  11
HETATM   11  C11 UNL     1       8.137 -21.390   2.123  1.00  0.00     0.271 C
HETATM   12  O2  UNL     1       7.456 -22.226   1.443  1.00  0.00    -0.264 OA
BRANCH  11  13
HETATM   13  C10 UNL     1       9.360 -21.906   2.818  1.00  0.00     0.164 C
HETATM   14  C3  UNL     1      10.410 -22.299   1.809  1.00  0.00     0.043 C
HETATM   15  C4  UNL     1      10.691 -23.522   2.677  1.00  0.00     0.087 C
HETATM   16  C9  UNL     1       9.310 -23.311   3.240  1.00  0.00     0.149 C
HETATM   17  O1  UNL     1       8.536 -24.029   3.792  1.00  0.00    -0.296 OA
BRANCH  14  18
HETATM   18  C2  UNL     1      11.544 -21.366   1.681  1.00  0.00    -0.030 C
HETATM   19  C1  UNL     1      12.498 -21.604   0.811  1.00  0.00     0.007 C
ENDBRANCH  14  18
BRANCH  15  20
HETATM   20  C5  UNL     1      10.804 -24.733   1.831  1.00  0.00    -0.018 C
HETATM   21  C6  UNL     1      11.766 -25.616   1.864  1.00  0.00    -0.030 C
BRANCH  21  22
HETATM   22  C7  UNL     1      12.908 -25.532   2.774  1.00  0.00     0.022 C
HETATM   23  C8  UNL     1      14.179 -25.161   2.010  1.00  0.00     0.009 C
ENDBRANCH  21  22
ENDBRANCH  15  20
ENDBRANCH  11  13
ENDBRANCH  10  11
ENDBRANCH   9  10
ENDBRANCH   7   9
ENDBRANCH   1   7
BRANCH   6  24
HETATM   24  C19 UNL     1      11.688 -18.135   3.642  1.00  0.00     0.059 C
BRANCH  24  25
HETATM   25  C20 UNL     1      10.801 -19.054   4.391  1.00  0.00    -0.028 C
HETATM   26  C21 UNL     1      11.138 -19.827   5.391  1.00  0.00    -0.030 C
BRANCH  26  27
HETATM   27  C22 UNL     1      12.453 -19.988   6.027  1.00  0.00     0.032 C
BRANCH  27  28
HETATM   28  C23 UNL     1      12.662 -21.438   6.332  1.00  0.00    -0.003 C
HETATM   29  C24 UNL     1      12.579 -22.349   5.143  1.00  0.00    -0.009 C
HETATM   30  C25 UNL     1      12.522 -23.774   5.718  1.00  0.00     0.010 C
HETATM   31  C29 UNL     1      13.785 -22.247   4.255  1.00  0.00     0.010 C
HETATM   32  C26 UNL     1      13.731 -24.042   6.562  1.00  0.00    -0.013 C
HETATM   33  C27 UNL     1      14.957 -23.941   5.676  1.00  0.00     0.009 C
HETATM   34  C32 UNL     1      13.868 -23.044   7.680  1.00  0.00     0.010 C
HETATM   35  C28 UNL     1      15.006 -22.581   5.058  1.00  0.00    -0.013 C
HETATM   36  C30 UNL     1      15.142 -21.562   6.167  1.00  0.00     0.010 C
HETATM   37  C31 UNL     1      13.961 -21.647   7.080  1.00  0.00    -0.009 C
ENDBRANCH  27  28
ENDBRANCH  26  27
ENDBRANCH  24  25
ENDBRANCH   6  24
TORSDOF 12
ENDMDL