MODEL 1
REMARK VINA RESULT: -7.492199854      0.000      0.000
REMARK  13 active torsions:
REMARK  status: ('A' for Active; 'I' for Inactive)
REMARK    1  A    between atoms: C2_2  and  C3_3
REMARK    2  A    between atoms: C4_4  and  N1_5
REMARK    3  A    between atoms: N1_5  and  C5_6
REMARK    4  A    between atoms: N1_5  and  C7_8
REMARK    5  A    between atoms: C7_8  and  O1_9
REMARK    6  A    between atoms: C8_11  and  C10_13
REMARK    7  A    between atoms: C10_13  and  C11_14
REMARK    8  A    between atoms: N2_17  and  C14_18
REMARK    9  A    between atoms: C14_18  and  C15_19
REMARK   10  A    between atoms: C15_19  and  C16_20
REMARK   11  A    between atoms: C16_20  and  O2_21
REMARK   12  A    between atoms: O2_21  and  C17_22
REMARK   13  A    between atoms: C17_22  and  C18_24
ROOT
HETATM    1  C11 UNL     1      11.667 -21.033   5.187  1.00  0.00    -0.024 A
HETATM    2  C12 UNL     1      12.579 -21.902   5.779  1.00  0.00    -0.026 A
HETATM    3  C13 UNL     1      12.418 -23.113   5.121  1.00  0.00     0.022 A
HETATM    4  N2  UNL     1      11.479 -23.023   4.187  1.00  0.00    -0.353 N
HETATM    5  C25 UNL     1      11.002 -21.772   4.199  1.00  0.00     0.015 A
HETATM    6  C26 UNL     1       9.952 -21.192   3.325  1.00  0.00     0.069 C
HETATM    7  C27 UNL     1      13.292 -24.230   5.533  1.00  0.00     0.037 C
HETATM    8  C28 UNL     1      13.093 -24.659   6.939  1.00  0.00     0.011 C
HETATM    9  C29 UNL     1      14.163 -23.997   7.792  1.00  0.00     0.005 C
HETATM   10  C30 UNL     1      14.605 -22.851   6.874  1.00  0.00    -0.010 C
HETATM   11  C31 UNL     1      13.595 -21.761   6.847  1.00  0.00     0.045 C
HETATM   12  C32 UNL     1      14.698 -23.599   5.566  1.00  0.00     0.015 C
ENDROOT
BRANCH   1  13
HETATM   13  C10 UNL     1      11.415 -19.632   5.508  1.00  0.00     0.079 C
BRANCH  13  14
HETATM   14  C8  UNL     1      12.326 -18.570   5.038  1.00  0.00    -0.029 C
HETATM   15  C7  UNL     1      12.493 -18.359   3.627  1.00  0.00     0.144 C
HETATM   16  C9  UNL     1      13.563 -18.375   5.903  1.00  0.00     0.048 C
BRANCH  15  17
HETATM   17  N1  UNL     1      13.446 -18.784   2.683  1.00  0.00    -0.339 N
BRANCH  17  18
HETATM   18  C4  UNL     1      13.595 -20.034   2.044  1.00  0.00     0.089 C
HETATM   19  C3  UNL     1      14.240 -21.233   2.517  1.00  0.00    -0.010 C
BRANCH  19  20
HETATM   20  C2  UNL     1      15.635 -21.317   2.996  1.00  0.00     0.024 C
HETATM   21  C1  UNL     1      16.671 -20.706   2.102  1.00  0.00     0.009 C
ENDBRANCH  19  20
ENDBRANCH  17  18
BRANCH  17  22
HETATM   22  C5  UNL     1      14.293 -17.679   2.157  1.00  0.00     0.126 C
HETATM   23  C6  UNL     1      14.755 -17.787   0.776  1.00  0.00     0.027 C
ENDBRANCH  17  22
ENDBRANCH  15  17
BRANCH  15  24
HETATM   24  O1  UNL     1      11.554 -17.603   3.086  1.00  0.00    -0.346 OA
ATOM     25  H1  UNL     1      10.752 -17.604   3.596  1.00  0.00     0.219 HD
ENDBRANCH  15  24
ENDBRANCH  13  14
ENDBRANCH   1  13
BRANCH   4  26
HETATM   26  C14 UNL     1      11.074 -24.093   3.335  1.00  0.00     0.131 C
BRANCH  26  27
HETATM   27  C15 UNL     1      12.046 -24.403   2.253  1.00  0.00     0.047 C
BRANCH  27  28
HETATM   28  C16 UNL     1      12.323 -25.879   2.150  1.00  0.00     0.180 C
BRANCH  28  29
HETATM   29  O2  UNL     1      13.608 -26.246   1.804  1.00  0.00    -0.321 OA
BRANCH  29  30
HETATM   30  C17 UNL     1      14.127 -26.450   0.536  1.00  0.00     0.264 C
HETATM   31  O3  UNL     1      13.568 -27.350  -0.146  1.00  0.00    -0.265 OA
BRANCH  30  32
HETATM   32  C18 UNL     1      15.268 -25.664   0.002  1.00  0.00     0.102 A
HETATM   33  C19 UNL     1      16.288 -25.045   0.897  1.00  0.00    -0.027 A
HETATM   34  C20 UNL     1      15.958 -24.980   2.345  1.00  0.00     0.016 C
HETATM   35  C21 UNL     1      17.002 -23.773   0.406  1.00  0.00     0.016 C
HETATM   36  C22 UNL     1      16.642 -26.258   0.168  1.00  0.00    -0.027 A
HETATM   37  C23 UNL     1      17.509 -26.134  -1.086  1.00  0.00     0.016 C
HETATM   38  C24 UNL     1      16.782 -27.604   0.839  1.00  0.00     0.016 C
ENDBRANCH  30  32
ENDBRANCH  29  30
ENDBRANCH  28  29
ENDBRANCH  27  28
ENDBRANCH  26  27
ENDBRANCH   4  26
TORSDOF 13
ENDMDL