MODEL 4
REMARK VINA RESULT: -6.465693866      3.716      6.624
REMARK  14 active torsions:
REMARK  status: ('A' for Active; 'I' for Inactive)
REMARK    1  A    between atoms: C2_2  and  N1_3
REMARK    2  A    between atoms: N1_3  and  C3_4
REMARK    3  A    between atoms: N1_3  and  C5_6
REMARK    4  A    between atoms: N1_3  and  C7_8
REMARK    5  A    between atoms: C7_8  and  C8_9
REMARK    6  A    between atoms: C8_9  and  C9_10
REMARK    7  A    between atoms: C9_10  and  C10_11
REMARK    8  A    between atoms: C10_11  and  C11_12
REMARK    9  A    between atoms: C11_12  and  O1_13
REMARK   10  A    between atoms: C11_12  and  C12_15
REMARK   11  A    between atoms: C17_20  and  C18_21
REMARK   12  A    between atoms: C18_21  and  O3_23
REMARK   13  A    between atoms: O3_23  and  C19_24
REMARK   14  A    between atoms: C19_24  and  C20_26
ROOT
HETATM    1  C12 UNL     1      12.230 -24.045   0.195  1.00  0.00    -0.025 C
HETATM    2  C13 UNL     1      13.189 -23.514   0.910  1.00  0.00    -0.060 C
HETATM    3  C14 UNL     1      14.477 -22.918   0.536  1.00  0.00     0.040 C
HETATM    4  C15 UNL     1      15.020 -22.266   1.799  1.00  0.00     0.000 C
HETATM    5  C16 UNL     1      16.509 -22.434   1.799  1.00  0.00     0.011 C
HETATM    6  C17 UNL     1      14.312 -22.906   2.943  1.00  0.00     0.103 C
HETATM    7  C24 UNL     1      13.056 -23.460   2.402  1.00  0.00     0.004 C
HETATM    8  C25 UNL     1      11.873 -22.516   2.684  1.00  0.00     0.016 C
HETATM    9  C26 UNL     1      10.691 -23.395   2.990  1.00  0.00     0.007 C
HETATM   10  C27 UNL     1      11.117 -24.706   2.347  1.00  0.00    -0.001 C
HETATM   11  C28 UNL     1      11.014 -24.575   0.891  1.00  0.00     0.046 C
HETATM   12  C29 UNL     1      12.570 -24.760   2.859  1.00  0.00    -0.031 C
HETATM   13  C30 UNL     1      12.425 -24.983   4.329  1.00  0.00     0.016 C
HETATM   14  C31 UNL     1      13.186 -25.954   2.155  1.00  0.00     0.016 C
ENDROOT
BRANCH   1  15
HETATM   15  C11 UNL     1      12.220 -24.176  -1.245  1.00  0.00     0.050 C
BRANCH  15  16
HETATM   16  C10 UNL     1      12.295 -25.369  -2.081  1.00  0.00     0.065 C
BRANCH  16  17
HETATM   17  C9  UNL     1      13.279 -26.390  -1.569  1.00  0.00     0.008 C
BRANCH  17  18
HETATM   18  C8  UNL     1      14.721 -26.040  -1.775  1.00  0.00     0.028 C
BRANCH  18  19
HETATM   19  C7  UNL     1      15.481 -27.206  -2.280  1.00  0.00     0.237 C
BRANCH  19  20
HETATM   20  N1  UNL     1      16.424 -27.783  -1.336  1.00  0.00    -0.068 N
BRANCH  20  21
HETATM   21  C2  UNL     1      16.865 -26.832  -0.327  1.00  0.00     0.233 C
HETATM   22  C1  UNL     1      16.509 -27.189   1.073  1.00  0.00     0.035 C
ENDBRANCH  20  21
BRANCH  20  23
HETATM   23  C3  UNL     1      17.623 -28.110  -2.094  1.00  0.00     0.233 C
HETATM   24  C4  UNL     1      18.823 -28.405  -1.264  1.00  0.00     0.035 C
ENDBRANCH  20  23
BRANCH  20  25
HETATM   25  C5  UNL     1      15.877 -28.913  -0.659  1.00  0.00     0.233 C
HETATM   26  C6  UNL     1      15.441 -29.994  -1.618  1.00  0.00     0.035 C
ENDBRANCH  20  25
ENDBRANCH  19  20
ENDBRANCH  18  19
ENDBRANCH  17  18
ENDBRANCH  16  17
ENDBRANCH  15  16
BRANCH  15  27
HETATM   27  O1  UNL     1      12.130 -23.034  -1.869  1.00  0.00    -0.364 OA
ATOM     28  H1  UNL     1      12.793 -22.385  -1.661  1.00  0.00     0.217 HD
ENDBRANCH  15  27
ENDBRANCH   1  15
BRANCH   6  29
HETATM   29  C18 UNL     1      15.154 -23.764   3.777  1.00  0.00     0.272 C
HETATM   30  O2  UNL     1      15.849 -24.734   3.376  1.00  0.00    -0.264 OA
BRANCH  29  31
HETATM   31  O3  UNL     1      15.256 -23.557   5.175  1.00  0.00    -0.244 OA
BRANCH  31  32
HETATM   32  C19 UNL     1      14.968 -22.370   5.792  1.00  0.00     0.274 C
HETATM   33  O4  UNL     1      15.501 -21.326   5.379  1.00  0.00    -0.264 OA
BRANCH  32  34
HETATM   34  C20 UNL     1      14.026 -22.375   6.934  1.00  0.00     0.037 C
HETATM   35  C21 UNL     1      13.899 -23.784   7.503  1.00  0.00     0.025 C
HETATM   36  C22 UNL     1      14.510 -21.506   8.087  1.00  0.00     0.025 C
HETATM   37  C23 UNL     1      12.682 -21.897   6.434  1.00  0.00     0.025 C
ENDBRANCH  32  34
ENDBRANCH  31  32
ENDBRANCH  29  31
ENDBRANCH   6  29
TORSDOF 14
ENDMDL