MODEL 5
REMARK VINA RESULT: -7.691964123      4.481      8.298
REMARK  11 active torsions:
REMARK  status: ('A' for Active; 'I' for Inactive)
REMARK    1  A    between atoms: C2_2  and  C3_3
REMARK    2  A    between atoms: C3_3  and  C4_4
REMARK    3  A    between atoms: C8_8  and  C9_9
REMARK       I    between atoms: C9_9  and  N1_11
REMARK    4  A    between atoms: N1_11  and  C10_12
REMARK    5  A    between atoms: N1_11  and  C27_33
REMARK    6  A    between atoms: C10_12  and  C11_13
REMARK    7  A    between atoms: C15_17  and  O2_18
REMARK    8  A    between atoms: C18_21  and  C19_22
REMARK    9  A    between atoms: C19_22  and  C20_23
REMARK   10  A    between atoms: C20_23  and  N2_25
REMARK   11  A    between atoms: C24_30  and  C25_31
ROOT
HETATM    1  C11 UNL     1      14.805 -22.925   0.780  1.00  0.00    -0.008 A
HETATM    2  C12 UNL     1      14.053 -24.108   1.118  1.00  0.00    -0.047 A
HETATM    3  C13 UNL     1      12.577 -24.058   1.245  1.00  0.00     0.049 C
HETATM    4  C14 UNL     1      14.663 -25.301   1.330  1.00  0.00     0.044 A
HETATM    5  C15 UNL     1      16.030 -25.442   1.233  1.00  0.00     0.069 A
HETATM    6  C17 UNL     1      16.761 -24.360   0.918  1.00  0.00     0.044 A
HETATM    7  C18 UNL     1      16.144 -23.098   0.690  1.00  0.00    -0.041 A
ENDROOT
BRANCH   1   8
HETATM    8  C10 UNL     1      13.954 -21.770   0.677  1.00  0.00     0.107 C
BRANCH   8   9
HETATM    9  N1  UNL     1      14.095 -20.511   1.219  1.00  0.00    -0.322 N
HETATM   10  C9  UNL     1      14.092 -20.302   2.632  1.00  0.00     0.228 C
HETATM   11  O1  UNL     1      14.289 -19.107   3.046  1.00  0.00    -0.273 OA
BRANCH  10  12
HETATM   12  C8  UNL     1      13.882 -21.299   3.675  1.00  0.00     0.078 C
HETATM   13  C7  UNL     1      15.065 -22.072   4.103  1.00  0.00     0.015 C
HETATM   14  C6  UNL     1      15.170 -22.339   5.586  1.00  0.00     0.010 C
HETATM   15  C4  UNL     1      13.886 -22.615   6.280  1.00  0.00    -0.041 C
HETATM   16  C5  UNL     1      14.066 -22.081   7.714  1.00  0.00     0.015 C
HETATM   17  C31 UNL     1      12.710 -21.849   5.725  1.00  0.00     0.010 C
HETATM   18  C30 UNL     1      13.252 -20.683   4.924  1.00  0.00     0.015 C
BRANCH  15  19
HETATM   19  C3  UNL     1      13.537 -24.064   6.440  1.00  0.00     0.035 C
BRANCH  19  20
HETATM   20  C2  UNL     1      12.427 -24.543   5.614  1.00  0.00    -0.036 C
HETATM   21  C1  UNL     1      12.642 -25.160   4.454  1.00  0.00     0.007 C
ENDBRANCH  19  20
ENDBRANCH  15  19
ENDBRANCH  10  12
BRANCH   9  22
HETATM   22  C27 UNL     1      14.160 -19.268   0.435  1.00  0.00     0.092 A
HETATM   23  C28 UNL     1      14.568 -19.667  -1.037  1.00  0.00     0.028 A
HETATM   24  C29 UNL     1      15.341 -18.746  -0.208  1.00  0.00     0.028 A
ENDBRANCH   9  22
ENDBRANCH   8   9
ENDBRANCH   1   8
BRANCH   7  25
HETATM   25  C19 UNL     1      17.075 -22.062   0.238  1.00  0.00     0.064 C
BRANCH  25  26
HETATM   26  C20 UNL     1      18.205 -21.818   1.215  1.00  0.00     0.090 C
HETATM   27  C21 UNL     1      17.855 -20.667   2.163  1.00  0.00     0.033 C
BRANCH  26  28
HETATM   28  N2  UNL     1      19.426 -21.456   0.588  1.00  0.00    -0.313 N
HETATM   29  C22 UNL     1      20.751 -21.645   1.075  1.00  0.00     0.363 C
HETATM   30  O3  UNL     1      21.147 -21.809   2.245  1.00  0.00    -0.238 OA
HETATM   31  O4  UNL     1      21.611 -21.618  -0.036  1.00  0.00    -0.302 OA
HETATM   32  C23 UNL     1      20.844 -21.534  -1.229  1.00  0.00     0.210 C
HETATM   33  C24 UNL     1      19.592 -20.824  -0.698  1.00  0.00     0.136 C
BRANCH  33  34
HETATM   34  C25 UNL     1      19.877 -19.361  -0.559  1.00  0.00    -0.010 C
HETATM   35  C26 UNL     1      19.011 -18.447  -0.960  1.00  0.00     0.009 C
ENDBRANCH  33  34
ENDBRANCH  26  28
ENDBRANCH  25  26
ENDBRANCH   7  25
BRANCH   5  36
HETATM   36  O2  UNL     1      16.656 -26.670   1.453  1.00  0.00    -0.356 OA
HETATM   37  C16 UNL     1      17.145 -27.414   0.355  1.00  0.00     0.210 C
ENDBRANCH   5  36
TORSDOF 11
ENDMDL