MODEL 4
REMARK VINA RESULT: -6.820333369      2.711      3.690
REMARK  4 active torsions:
REMARK  status: ('A' for Active; 'I' for Inactive)
REMARK    1  A    between atoms: C3_3  and  N1_4
REMARK       I    between atoms: N1_4  and  C4_6
REMARK    2  A    between atoms: C4_6  and  C5_8
REMARK    3  A    between atoms: C8_11  and  N2_12
REMARK       I    between atoms: N2_12  and  C9_14
REMARK       I    between atoms: C9_14  and  N3_16
REMARK    4  A    between atoms: N4_21  and  C13_22
ROOT
HETATM    1  C1  UNL     1      10.622 -24.752 -17.592  1.00  0.00     0.014 C
HETATM    2  C2  UNL     1      11.027 -23.960 -18.399  1.00  0.00    -0.098 C
HETATM    3  C3  UNL     1      11.511 -22.988 -19.393  1.00  0.00     0.216 C
ENDROOT
BRANCH   3   4
HETATM    4  N1  UNL     1      11.821 -21.740 -18.736  1.00  0.00    -0.350 N
HETATM    5  C4  UNL     1      12.988 -21.642 -17.964  1.00  0.00     0.223 C
HETATM    6  O1  UNL     1      13.744 -22.642 -17.858  1.00  0.00    -0.273 OA
ATOM      7  H1  UNL     1      11.198 -20.938 -18.833  1.00  0.00     0.163 HD
BRANCH   5   8
HETATM    8  C5  UNL     1      13.392 -20.400 -17.251  1.00  0.00     0.095 C
HETATM    9  C6  UNL     1      14.481 -20.678 -16.279  1.00  0.00     0.042 C
HETATM   10  C7  UNL     1      14.913 -19.320 -15.704  1.00  0.00     0.104 C
HETATM   11  C8  UNL     1      15.558 -18.502 -16.799  1.00  0.00     0.115 C
HETATM   12  N4  UNL     1      13.687 -18.640 -15.469  1.00  0.00    -0.396 N
HETATM   13  C11 UNL     1      14.333 -18.119 -17.596  1.00  0.00     0.043 C
HETATM   14  C12 UNL     1      13.470 -17.612 -16.422  1.00  0.00     0.126 C
HETATM   15  C16 UNL     1      13.622 -19.278 -18.203  1.00  0.00     0.078 C
HETATM   16 BR1  UNL     1      14.410 -19.815 -19.879  1.00  0.00    -0.090 Br
BRANCH  11  17
HETATM   17  N2  UNL     1      16.567 -19.197 -17.537  1.00  0.00    -0.336 N
HETATM   18  C9  UNL     1      17.765 -19.562 -16.864  1.00  0.00     0.316 C
HETATM   19  O2  UNL     1      17.935 -19.273 -15.624  1.00  0.00    -0.247 OA
HETATM   20  N3  UNL     1      18.781 -20.246 -17.558  1.00  0.00    -0.347 N
HETATM   21  C10 UNL     1      20.014 -20.632 -16.897  1.00  0.00     0.151 C
ATOM     22  H3  UNL     1      18.647 -20.474 -18.544  1.00  0.00     0.163 HD
ATOM     23  H2  UNL     1      16.431 -19.425 -18.522  1.00  0.00     0.164 HD
ENDBRANCH  11  17
BRANCH  12  24
HETATM   24  C13 UNL     1      13.396 -18.329 -14.116  1.00  0.00     0.211 C
HETATM   25  C14 UNL     1      13.954 -17.020 -13.779  1.00  0.00    -0.098 C
HETATM   26  C15 UNL     1      14.409 -15.935 -13.504  1.00  0.00     0.014 C
ENDBRANCH  12  24
ENDBRANCH   5   8
ENDBRANCH   3   4
TORSDOF 4
ENDMDL