MODEL 1
REMARK VINA RESULT: -8.016791236      0.000      0.000
REMARK  7 active torsions:
REMARK  status: ('A' for Active; 'I' for Inactive)
REMARK    1  A    between atoms: C2_2  and  C16_25
REMARK    2  A    between atoms: N1_3  and  N2_5
REMARK    3  A    between atoms: C3_7  and  N3_8
REMARK    4  A    between atoms: C3_7  and  C8_14
REMARK    5  A    between atoms: N3_8  and  C4_10
REMARK    6  A    between atoms: C8_14  and  C9_16
REMARK       I    between atoms: C9_16  and  N4_18
REMARK    7  A    between atoms: C16_25  and  C17_27
ROOT
HETATM    1  N2  UNL     1      13.585 -21.877 -15.540  1.00  0.00    -0.282 N
ATOM      2  H2  UNL     1      13.448 -22.603 -14.836  1.00  0.00     0.188 HD
HETATM    3  C3  UNL     1      13.960 -22.266 -16.710  1.00  0.00     0.173 C
ENDROOT
BRANCH   3   4
HETATM    4  N3  UNL     1      14.182 -23.611 -17.048  1.00  0.00    -0.364 N
ATOM      5  H3  UNL     1      15.129 -23.855 -17.340  1.00  0.00     0.162 HD
BRANCH   4   6
HETATM    6  C4  UNL     1      13.236 -24.670 -17.030  1.00  0.00     0.021 C
HETATM    7  C5  UNL     1      13.580 -25.664 -18.144  1.00  0.00     0.037 C
HETATM    8  C6  UNL     1      13.322 -25.493 -15.733  1.00  0.00     0.037 C
HETATM    9  C7  UNL     1      11.802 -24.294 -17.191  1.00  0.00     0.037 C
ENDBRANCH   4   6
ENDBRANCH   3   4
BRANCH   3  10
HETATM   10  C8  UNL     1      14.165 -21.242 -17.734  1.00  0.00     0.283 C
HETATM   11  O1  UNL     1      15.346 -20.779 -17.941  1.00  0.00    -0.278 OA
BRANCH  10  12
HETATM   12  C9  UNL     1      13.094 -20.709 -18.550  1.00  0.00     0.298 C
HETATM   13  O2  UNL     1      12.535 -19.614 -18.201  1.00  0.00    -0.264 OA
HETATM   14  N4  UNL     1      12.598 -21.290 -19.713  1.00  0.00    -0.336 N
HETATM   15  C10 UNL     1      12.905 -22.484 -20.471  1.00  0.00     0.088 C
HETATM   16  C13 UNL     1      11.497 -20.776 -20.578  1.00  0.00     0.088 C
HETATM   17  C11 UNL     1      11.549 -23.166 -20.484  1.00  0.00     0.027 C
HETATM   18  C15 UNL     1      13.114 -21.882 -21.852  1.00  0.00     0.027 C
HETATM   19  C12 UNL     1      10.614 -21.979 -20.616  1.00  0.00     0.027 C
HETATM   20  C14 UNL     1      12.228 -20.651 -21.874  1.00  0.00     0.027 C
ENDBRANCH  10  12
ENDBRANCH   3  10
BRANCH   1  21
HETATM   21  N1  UNL     1      13.350 -20.568 -15.146  1.00  0.00    -0.305 N
HETATM   22  C2  UNL     1      13.982 -20.035 -14.120  1.00  0.00     0.034 C
HETATM   23  C1  UNL     1      14.970 -20.839 -13.360  1.00  0.00     0.068 C
ATOM     24  H1  UNL     1      12.673 -20.006 -15.661  1.00  0.00     0.186 HD
BRANCH  22  25
HETATM   25  C16 UNL     1      13.707 -18.656 -13.737  1.00  0.00     0.224 C
HETATM   26  F1  UNL     1      14.205 -18.427 -12.442  1.00  0.00    -0.242 F
BRANCH  25  27
HETATM   27  C17 UNL     1      14.197 -17.571 -14.613  1.00  0.00    -0.015 C
HETATM   28  C18 UNL     1      14.320 -16.284 -13.758  1.00  0.00     0.018 C
HETATM   29  C19 UNL     1      13.245 -17.178 -15.719  1.00  0.00     0.018 C
HETATM   30  C20 UNL     1      15.542 -17.808 -15.226  1.00  0.00     0.018 C
ENDBRANCH  25  27
ENDBRANCH  22  25
ENDBRANCH   1  21
TORSDOF 7
ENDMDL