MODEL 1
REMARK VINA RESULT: -6.321362645      0.000      0.000
REMARK  4 active torsions:
REMARK  status: ('A' for Active; 'I' for Inactive)
REMARK    1  A    between atoms: C4_5  and  N2_6
REMARK       I    between atoms: N2_6  and  C5_8
REMARK    2  A    between atoms: C5_8  and  C6_10
REMARK       I    between atoms: N3_14  and  C9_15
REMARK    3  A    between atoms: C11_20  and  C12_21
REMARK    4  A    between atoms: C12_21  and  N6_22
REMARK       I    between atoms: N6_22  and  C13_24
ROOT
HETATM    1  C1  UNL     1      13.103 -17.142 -15.271  1.00  0.00     0.221 C
HETATM    2  N1  UNL     1      13.828 -17.777 -15.900  1.00  0.00    -0.464 NA
HETATM    3  C2  UNL     1      14.726 -18.530 -16.668  1.00  0.00     0.187 C
HETATM    4  C3  UNL     1      14.140 -18.778 -18.035  1.00  0.00     0.068 C
HETATM    5  C4  UNL     1      13.841 -20.229 -18.311  1.00  0.00     0.105 C
HETATM    6  C8  UNL     1      15.084 -21.092 -18.159  1.00  0.00     0.151 C
HETATM    7  N3  UNL     1      15.856 -20.606 -16.992  1.00  0.00    -0.344 N
HETATM    8  C9  UNL     1      17.221 -20.887 -16.861  1.00  0.00     0.186 C
HETATM    9  N4  UNL     1      17.676 -21.739 -15.828  1.00  0.00    -0.064 NA
HETATM   10  N5  UNL     1      18.062 -20.375 -17.683  1.00  0.00    -0.369 N
ATOM     11  H5  UNL     1      17.730 -19.764 -18.429  1.00  0.00     0.161 HD
HETATM   12  C10 UNL     1      19.479 -20.654 -17.562  1.00  0.00     0.148 C
HETATM   13  C11 UNL     1      15.070 -19.843 -16.049  1.00  0.00     0.140 C
ENDROOT
BRANCH  13  14
HETATM   14  C12 UNL     1      15.651 -19.736 -14.679  1.00  0.00     0.151 C
BRANCH  14  15
HETATM   15  N6  UNL     1      14.726 -19.913 -13.601  1.00  0.00    -0.359 N
HETATM   16  C13 UNL     1      14.791 -21.097 -12.832  1.00  0.00     0.213 C
HETATM   17  C14 UNL     1      13.848 -21.311 -11.710  1.00  0.00     0.117 C
HETATM   18  O2  UNL     1      15.643 -21.981 -13.087  1.00  0.00    -0.274 OA
ATOM     19  H6  UNL     1      14.031 -19.197 -13.392  1.00  0.00     0.162 HD
ENDBRANCH  14  15
ENDBRANCH  13  14
BRANCH   5  20
HETATM   20  N2  UNL     1      13.405 -20.310 -19.686  1.00  0.00    -0.354 N
HETATM   21  C5  UNL     1      12.146 -20.886 -19.976  1.00  0.00     0.232 C
HETATM   22  O1  UNL     1      11.440 -21.313 -19.032  1.00  0.00    -0.272 OA
ATOM     23  H2  UNL     1      13.997 -19.955 -20.437  1.00  0.00     0.163 HD
BRANCH  21  24
HETATM   24  C6  UNL     1      11.617 -21.011 -21.358  1.00  0.00     0.145 C
HETATM   25  C7  UNL     1      10.276 -21.699 -21.363  1.00  0.00     0.032 C
HETATM   26 BR1  UNL     1      12.845 -22.048 -22.422  1.00  0.00    -0.082 Br
ENDBRANCH  21  24
ENDBRANCH   5  20
TORSDOF 4
ENDMDL