MODEL 2
REMARK VINA RESULT: -5.890620825      1.374      1.718
REMARK  7 active torsions:
REMARK  status: ('A' for Active; 'I' for Inactive)
REMARK    1  A    between atoms: N1_2  and  C2_4
REMARK    2  A    between atoms: C2_4  and  N2_6
REMARK       I    between atoms: N3_9  and  C5_10
REMARK       I    between atoms: C5_10  and  N4_12
REMARK    3  A    between atoms: N4_12  and  C6_14
REMARK    4  A    between atoms: C6_14  and  N5_16
REMARK    5  A    between atoms: N5_16  and  C10_19
REMARK    6  A    between atoms: C10_19  and  C11_20
REMARK    7  A    between atoms: C14_24  and  C15_25
ROOT
HETATM    1  N2  UNL     1      14.380 -19.107 -15.477  1.00  0.00    -0.342 N
HETATM    2  C3  UNL     1      13.576 -18.540 -16.528  1.00  0.00     0.146 C
HETATM    3  C4  UNL     1      13.844 -19.132 -17.906  1.00  0.00     0.147 C
HETATM    4  N3  UNL     1      14.088 -20.549 -17.825  1.00  0.00    -0.330 N
HETATM    5  C5  UNL     1      13.394 -21.514 -18.571  1.00  0.00     0.320 C
HETATM    6  O1  UNL     1      13.693 -22.725 -18.407  1.00  0.00    -0.247 OA
HETATM    7  N4  UNL     1      12.395 -21.195 -19.483  1.00  0.00    -0.315 N
ATOM      8  H4  UNL     1      12.162 -20.210 -19.608  1.00  0.00     0.166 HD
HETATM    9  C13 UNL     1      15.146 -20.936 -16.885  1.00  0.00     0.162 C
HETATM   10  C14 UNL     1      15.528 -19.895 -15.921  1.00  0.00     0.194 C
ENDROOT
BRANCH   7  11
HETATM   11  C6  UNL     1      11.657 -22.171 -20.270  1.00  0.00     0.287 C
HETATM   12  C7  UNL     1      10.191 -21.840 -20.108  1.00  0.00     0.064 C
BRANCH  11  13
HETATM   13  N5  UNL     1      12.005 -22.139 -21.656  1.00  0.00    -0.051 N
HETATM   14  C8  UNL     1      13.174 -22.988 -21.908  1.00  0.00     0.274 C
HETATM   15  C9  UNL     1      12.253 -20.777 -22.103  1.00  0.00     0.274 C
BRANCH  13  16
HETATM   16  C10 UNL     1      10.935 -22.675 -22.458  1.00  0.00     0.268 C
BRANCH  16  17
HETATM   17  C11 UNL     1      11.347 -23.728 -23.397  1.00  0.00     0.030 C
HETATM   18  C12 UNL     1      10.660 -24.067 -24.479  1.00  0.00     0.186 C
HETATM   19  F1  UNL     1      11.062 -25.044 -25.329  1.00  0.00    -0.220 F
ENDBRANCH  16  17
ENDBRANCH  13  16
ENDBRANCH  11  13
ENDBRANCH   7  11
BRANCH  10  20
HETATM   20  C15 UNL     1      16.638 -19.043 -16.423  1.00  0.00     0.255 C
HETATM   21  N6  UNL     1      17.398 -19.459 -17.519  1.00  0.00    -0.060 NA
HETATM   22  O2  UNL     1      16.900 -17.949 -15.872  1.00  0.00    -0.275 OA
ENDBRANCH  10  20
BRANCH   1  23
HETATM   23  C2  UNL     1      14.176 -18.947 -14.104  1.00  0.00     0.170 C
HETATM   24  S1  UNL     1      14.093 -20.352 -13.187  1.00  0.00    -0.041 SA
BRANCH  23  25
HETATM   25  N1  UNL     1      14.038 -17.735 -13.421  1.00  0.00    -0.371 N
HETATM   26  C1  UNL     1      14.360 -16.402 -13.801  1.00  0.00     0.148 C
ATOM     27  H1  UNL     1      13.636 -17.821 -12.487  1.00  0.00     0.161 HD
ENDBRANCH  23  25
ENDBRANCH   1  23
TORSDOF 7
ENDMDL