MODEL 3
REMARK VINA RESULT: -6.059079323      3.191      4.463
REMARK  5 active torsions:
REMARK  status: ('A' for Active; 'I' for Inactive)
REMARK    1  A    between atoms: C5_5  and  C6_6
REMARK    2  A    between atoms: C5_5  and  C8_13
REMARK       I    between atoms: C6_6  and  N1_8
REMARK    3  A    between atoms: C8_13  and  O2_14
REMARK    4  A    between atoms: C8_13  and  C9_16
REMARK    5  A    between atoms: C15_23  and  C16_24
ROOT
HETATM    1  C8  UNL     1      13.576 -20.024 -15.540  1.00  0.00     0.166 C
ENDROOT
BRANCH   1   2
HETATM    2  C5  UNL     1      14.213 -18.725 -15.947  1.00  0.00     0.078 A
HETATM    3  C2  UNL     1      14.279 -17.545 -15.101  1.00  0.00    -0.027 A
HETATM    4  C1  UNL     1      15.371 -16.527 -15.347  1.00  0.00     0.016 C
HETATM    5  C3  UNL     1      13.664 -17.394 -13.723  1.00  0.00     0.016 C
HETATM    6  C4  UNL     1      13.205 -17.534 -16.199  1.00  0.00     0.033 A
BRANCH   2   7
HETATM    7  C6  UNL     1      15.181 -18.836 -17.091  1.00  0.00     0.236 C
HETATM    8  O1  UNL     1      14.782 -18.525 -18.248  1.00  0.00    -0.272 OA
HETATM    9  N1  UNL     1      16.512 -19.266 -16.986  1.00  0.00    -0.303 N
HETATM   10  C7  UNL     1      17.061 -19.941 -17.926  1.00  0.00     0.203 C
ATOM     11  H1  UNL     1      17.050 -19.037 -16.150  1.00  0.00     0.171 HD
HETATM   12  N2  UNL     1      18.404 -20.348 -17.769  1.00  0.00    -0.066 NA
HETATM   13  N3  UNL     1      16.321 -20.274 -19.114  1.00  0.00    -0.066 NA
ENDBRANCH   2   7
ENDBRANCH   1   2
BRANCH   1  14
HETATM   14  O2  UNL     1      13.705 -20.897 -16.621  1.00  0.00    -0.390 OA
ATOM     15  H2  UNL     1      13.748 -21.776 -16.263  1.00  0.00     0.210 HD
ENDBRANCH   1  14
BRANCH   1  16
HETATM   16  C9  UNL     1      13.883 -20.608 -14.241  1.00  0.00    -0.040 C
HETATM   17  C10 UNL     1      13.122 -21.952 -14.053  1.00  0.00     0.066 C
HETATM   18  C11 UNL     1      12.993 -22.117 -12.585  1.00  0.00     0.246 C
HETATM   19  N4  UNL     1      14.180 -22.043 -11.827  1.00  0.00    -0.054 N
HETATM   20  C12 UNL     1      13.741 -21.677 -10.457  1.00  0.00     0.277 C
HETATM   21  C13 UNL     1      14.647 -23.436 -11.666  1.00  0.00     0.277 C
HETATM   22  C14 UNL     1      15.209 -21.173 -12.232  1.00  0.00     0.209 C
HETATM   23  C15 UNL     1      15.217 -20.711 -13.672  1.00  0.00    -0.020 C
BRANCH  23  24
HETATM   24  C16 UNL     1      16.356 -21.338 -14.382  1.00  0.00     0.125 C
HETATM   25 BR1  UNL     1      16.198 -23.072 -15.098  1.00  0.00    -0.091 Br
ENDBRANCH  23  24
ENDBRANCH   1  16
TORSDOF 5
ENDMDL