MODEL 3
REMARK VINA RESULT: -6.756246140      1.161      1.958
REMARK  4 active torsions:
REMARK  status: ('A' for Active; 'I' for Inactive)
REMARK       I    between atoms: N1_3  and  C3_5
REMARK       I    between atoms: C3_5  and  N3_9
REMARK    1  A    between atoms: N3_9  and  C6_12
REMARK    2  A    between atoms: C6_12  and  C7_13
REMARK    3  A    between atoms: C7_13  and  N4_14
REMARK       I    between atoms: N4_14  and  C8_16
REMARK    4  A    between atoms: C8_16  and  C9_18
ROOT
HETATM    1  N4  UNL     1      14.002 -20.306 -18.940  1.00  0.00    -0.359 N
ATOM      2  H4  UNL     1      14.823 -20.793 -19.298  1.00  0.00     0.162 HD
HETATM    3  C8  UNL     1      12.731 -20.877 -19.119  1.00  0.00     0.224 C
HETATM    4  O1  UNL     1      11.736 -20.243 -18.659  1.00  0.00    -0.273 OA
ENDROOT
BRANCH   1   5
HETATM    5  C7  UNL     1      14.166 -19.061 -18.267  1.00  0.00     0.151 C
BRANCH   5   6
HETATM    6  C6  UNL     1      15.329 -18.946 -17.357  1.00  0.00     0.266 C
BRANCH   6   7
HETATM    7  N3  UNL     1      15.126 -19.214 -15.988  1.00  0.00    -0.013 N
HETATM    8  C3  UNL     1      14.414 -18.089 -15.442  1.00  0.00     0.276 C
HETATM    9  N1  UNL     1      15.054 -17.015 -14.766  1.00  0.00    -0.336 N
HETATM   10  N2  UNL     1      13.137 -18.026 -15.556  1.00  0.00    -0.365 N
HETATM   11  C2  UNL     1      14.555 -16.371 -13.788  1.00  0.00     0.059 C
ATOM     12  H1  UNL     1      15.981 -16.739 -15.089  1.00  0.00     0.167 HD
HETATM   13  C1  UNL     1      13.238 -16.622 -13.186  1.00  0.00     0.055 C
ATOM     14  H22 UNL     1      12.632 -17.229 -15.169  1.00  0.00     0.159 HD
ATOM     15  H21 UNL     1      12.678 -18.797 -16.041  1.00  0.00     0.159 HD
HETATM   16  C4  UNL     1      16.421 -19.176 -15.295  1.00  0.00     0.283 C
HETATM   17  C5  UNL     1      14.371 -20.372 -15.669  1.00  0.00     0.283 C
ENDBRANCH   6   7
ENDBRANCH   5   6
ENDBRANCH   1   5
BRANCH   3  18
HETATM   18  C9  UNL     1      12.518 -22.167 -19.816  1.00  0.00     0.105 C
HETATM   19  C10 UNL     1      11.701 -23.107 -18.888  1.00  0.00     0.137 C
HETATM   20  N5  UNL     1      11.953 -24.439 -19.414  1.00  0.00    -0.359 N
HETATM   21  C11 UNL     1      12.083 -24.549 -20.830  1.00  0.00     0.232 C
ATOM     22  H5  UNL     1      12.033 -25.251 -18.803  1.00  0.00     0.162 HD
HETATM   23  O2  UNL     1      12.514 -25.622 -21.309  1.00  0.00    -0.272 OA
HETATM   24  C12 UNL     1      11.734 -23.458 -21.754  1.00  0.00     0.158 C
HETATM   25 BR1  UNL     1      12.998 -23.498 -23.235  1.00  0.00    -0.080 Br
HETATM   26  C13 UNL     1      11.770 -22.080 -21.101  1.00  0.00    -0.012 C
HETATM   27  C14 UNL     1      10.298 -21.698 -20.871  1.00  0.00     0.017 C
HETATM   28  C15 UNL     1      12.361 -21.081 -22.061  1.00  0.00     0.017 C
ENDBRANCH   3  18
TORSDOF 4
ENDMDL