MODEL 2
REMARK VINA RESULT: -6.651441388      1.348      1.348
REMARK  8 active torsions:
REMARK  status: ('A' for Active; 'I' for Inactive)
REMARK    1  A    between atoms: C7_7  and  C8_8
REMARK    2  A    between atoms: C9_9  and  C10_10
REMARK    3  A    between atoms: C10_10  and  C11_11
REMARK    4  A    between atoms: C11_11  and  C12_12
REMARK    5  A    between atoms: C11_11  and  N1_15
REMARK    6  A    between atoms: C12_12  and  O1_13
REMARK    7  A    between atoms: N1_15  and  N2_16
REMARK       I    between atoms: N1_15  and  C13_21
REMARK    8  A    between atoms: C13_21  and  C14_23
ROOT
HETATM    1  C1  UNL     1      11.675 -24.090 -17.478  1.00  0.00     0.012 C
HETATM    2  C2  UNL     1      11.528 -23.325 -18.404  1.00  0.00    -0.110 C
HETATM    3  C3  UNL     1      11.352 -22.388 -19.498  1.00  0.00     0.090 C
HETATM    4  C4  UNL     1      11.456 -23.027 -20.894  1.00  0.00     0.012 C
HETATM    5  C5  UNL     1      12.577 -23.990 -20.679  1.00  0.00     0.008 C
HETATM    6  C6  UNL     1      13.569 -23.048 -19.963  1.00  0.00     0.025 C
HETATM    7  C7  UNL     1      12.721 -21.815 -19.895  1.00  0.00     0.045 C
HETATM    8  C15 UNL     1      12.147 -21.710 -21.273  1.00  0.00    -0.023 C
HETATM    9  C16 UNL     1      13.095 -21.811 -22.414  1.00  0.00     0.017 C
HETATM   10  C17 UNL     1      11.138 -20.617 -21.494  1.00  0.00     0.017 C
ENDROOT
BRANCH   7  11
HETATM   11  C8  UNL     1      13.176 -20.674 -19.231  1.00  0.00    -0.094 C
HETATM   12  C9  UNL     1      13.586 -19.698 -18.654  1.00  0.00    -0.103 C
BRANCH  12  13
HETATM   13  C10 UNL     1      14.079 -18.533 -17.926  1.00  0.00     0.123 C
BRANCH  13  14
HETATM   14  C11 UNL     1      14.004 -18.775 -16.456  1.00  0.00     0.147 C
BRANCH  14  15
HETATM   15  C12 UNL     1      13.994 -17.505 -15.649  1.00  0.00     0.192 C
BRANCH  15  16
HETATM   16  O1  UNL     1      15.172 -16.823 -15.944  1.00  0.00    -0.399 OA
ATOM     17  H1  UNL     1      15.523 -16.502 -15.122  1.00  0.00     0.209 HD
ENDBRANCH  15  16
ENDBRANCH  14  15
BRANCH  14  18
HETATM   18  N1  UNL     1      15.001 -19.734 -16.042  1.00  0.00    -0.239 N
HETATM   19  C13 UNL     1      14.598 -21.019 -15.573  1.00  0.00     0.249 C
HETATM   20  O2  UNL     1      13.372 -21.307 -15.517  1.00  0.00    -0.271 OA
BRANCH  18  21
HETATM   21  N2  UNL     1      16.362 -19.448 -16.067  1.00  0.00    -0.244 N
HETATM   22  N3  UNL     1      17.013 -19.007 -15.084  1.00  0.00    -0.331 N
ATOM     23  H32 UNL     1      16.494 -18.854 -14.219  1.00  0.00     0.178 HD
ATOM     24  H31 UNL     1      18.012 -18.797 -15.102  1.00  0.00     0.178 HD
ATOM     25  H2  UNL     1      16.866 -19.607 -16.939  1.00  0.00     0.208 HD
ENDBRANCH  18  21
BRANCH  19  26
HETATM   26  C14 UNL     1      15.575 -22.034 -15.145  1.00  0.00     0.189 C
HETATM   27 BR1  UNL     1      15.779 -23.408 -16.528  1.00  0.00    -0.087 Br
ENDBRANCH  19  26
ENDBRANCH  14  18
ENDBRANCH  13  14
ENDBRANCH  12  13
ENDBRANCH   7  11
TORSDOF 8
ENDMDL