MODEL 4
REMARK VINA RESULT: -5.340457422      3.384      7.110
REMARK  6 active torsions:
REMARK  status: ('A' for Active; 'I' for Inactive)
REMARK       I    between atoms: N1_2  and  C2_4
REMARK       I    between atoms: C2_4  and  N2_6
REMARK    1  A    between atoms: N2_6  and  C3_8
REMARK    2  A    between atoms: C3_8  and  C4_9
REMARK    3  A    between atoms: C4_9  and  C5_10
REMARK       I    between atoms: C5_10  and  N3_12
REMARK       I    between atoms: C6_14  and  N4_15
REMARK       I    between atoms: C6_14  and  N5_21
REMARK    4  A    between atoms: N4_15  and  C7_17
REMARK    5  A    between atoms: C8_18  and  C9_19
REMARK    6  A    between atoms: N5_21  and  N6_23
ROOT
HETATM    1  C5  UNL     1      13.606 -20.968 -19.675  1.00  0.00     0.237 C
HETATM    2  O2  UNL     1      14.692 -21.391 -19.241  1.00  0.00    -0.273 OA
HETATM    3  N3  UNL     1      12.940 -21.635 -20.699  1.00  0.00    -0.158 N
ATOM      4  H3  UNL     1      13.406 -21.646 -21.606  1.00  0.00     0.187 HD
HETATM    5  C6  UNL     1      11.817 -22.233 -20.636  1.00  0.00     0.712 C
HETATM    6  N4  UNL     1      11.104 -22.271 -19.426  1.00  0.00    -0.147 N
ATOM      7  H4  UNL     1      10.348 -21.605 -19.262  1.00  0.00     0.195 HD
HETATM    8  N5  UNL     1      11.287 -22.860 -21.778  1.00  0.00    -0.048 N
ATOM      9  H5  UNL     1      10.334 -22.619 -22.052  1.00  0.00     0.213 HD
ENDROOT
BRANCH   1  10
HETATM   10  C4  UNL     1      13.024 -19.739 -19.086  1.00  0.00     0.123 C
BRANCH  10  11
HETATM   11  C3  UNL     1      13.991 -19.185 -18.078  1.00  0.00     0.133 C
BRANCH  11  12
HETATM   12  N2  UNL     1      13.397 -19.004 -16.800  1.00  0.00    -0.343 N
HETATM   13  C2  UNL     1      13.718 -17.940 -15.957  1.00  0.00     0.315 C
HETATM   14  N1  UNL     1      13.096 -17.817 -14.674  1.00  0.00    -0.347 N
HETATM   15  O1  UNL     1      14.553 -17.076 -16.304  1.00  0.00    -0.247 OA
HETATM   16  C1  UNL     1      13.445 -16.706 -13.818  1.00  0.00     0.151 C
ATOM     17  H1  UNL     1      12.412 -18.508 -14.366  1.00  0.00     0.163 HD
ATOM     18  H2  UNL     1      12.704 -19.682 -16.484  1.00  0.00     0.164 HD
ENDBRANCH  11  12
ENDBRANCH  10  11
ENDBRANCH   1  10
BRANCH   6  19
HETATM   19  C7  UNL     1      11.426 -23.228 -18.431  1.00  0.00     0.026 C
HETATM   20  C8  UNL     1      11.697 -24.028 -17.568  1.00  0.00    -0.072 C
BRANCH  20  21
HETATM   21  C9  UNL     1      12.013 -24.990 -16.502  1.00  0.00     0.180 C
HETATM   22 BR1  UNL     1      13.704 -25.809 -16.947  1.00  0.00    -0.083 Br
ENDBRANCH  20  21
ENDBRANCH   6  19
BRANCH   8  23
HETATM   23  N6  UNL     1      11.973 -23.786 -22.561  1.00  0.00     0.014 N
HETATM   24  C10 UNL     1      12.375 -24.900 -21.738  1.00  0.00     0.302 C
HETATM   25  C11 UNL     1      11.061 -24.248 -23.604  1.00  0.00     0.302 C
HETATM   26  C12 UNL     1      13.132 -23.185 -23.161  1.00  0.00     0.302 C
ENDBRANCH   8  23
TORSDOF 6
ENDMDL