MODEL 1
REMARK VINA RESULT: -6.257850601      0.000      0.000
REMARK  6 active torsions:
REMARK  status: ('A' for Active; 'I' for Inactive)
REMARK    1  A    between atoms: C2_2  and  C3_3
REMARK    2  A    between atoms: N1_6  and  C6_7
REMARK    3  A    between atoms: C6_7  and  O1_8
REMARK    4  A    between atoms: C6_7  and  N2_10
REMARK    5  A    between atoms: C13_21  and  N4_22
REMARK       I    between atoms: N4_22  and  C14_24
REMARK    6  A    between atoms: C14_24  and  C15_26
ROOT
HETATM    1  C3  UNL     1      12.462 -23.072 -18.234  1.00  0.00     0.039 A
HETATM    2  C4  UNL     1      13.190 -23.355 -19.533  1.00  0.00     0.044 A
HETATM    3  C5  UNL     1      13.520 -22.183 -18.702  1.00  0.00     0.054 A
HETATM    4  N1  UNL     1      13.144 -20.831 -19.039  1.00  0.00    -0.306 N
HETATM    5  C8  UNL     1      14.131 -19.806 -18.599  1.00  0.00     0.312 C
HETATM    6  N3  UNL     1      15.306 -20.067 -19.406  1.00  0.00    -0.051 N
ATOM      7  H31 UNL     1      16.008 -19.329 -19.341  1.00  0.00     0.279 HD
ATOM      8  H32 UNL     1      15.129 -19.989 -20.408  1.00  0.00     0.279 HD
HETATM    9  C9  UNL     1      15.801 -21.349 -19.023  1.00  0.00     0.246 C
HETATM   10  C10 UNL     1      14.877 -22.099 -18.069  1.00  0.00     0.008 C
HETATM   11  C11 UNL     1      15.556 -23.399 -17.755  1.00  0.00     0.020 C
HETATM   12  C12 UNL     1      14.726 -21.327 -16.776  1.00  0.00     0.042 C
HETATM   13  C13 UNL     1      14.497 -19.893 -17.167  1.00  0.00     0.135 C
ENDROOT
BRANCH   4  14
HETATM   14  C6  UNL     1      11.993 -20.430 -19.721  1.00  0.00     0.217 C
BRANCH  14  15
HETATM   15  O1  UNL     1      11.145 -19.784 -18.958  1.00  0.00    -0.333 OA
ATOM     16  H1  UNL     1      10.240 -19.906 -19.222  1.00  0.00     0.220 HD
ENDBRANCH  14  15
BRANCH  14  17
HETATM   17  N2  UNL     1      11.566 -20.576 -21.028  1.00  0.00    -0.361 N
HETATM   18  C7  UNL     1      10.603 -21.647 -21.363  1.00  0.00     0.150 C
ATOM     19  H2  UNL     1      11.914 -19.950 -21.754  1.00  0.00     0.162 HD
ENDBRANCH  14  17
ENDBRANCH   4  14
BRANCH   1  20
HETATM   20  C2  UNL     1      12.638 -24.129 -17.194  1.00  0.00    -0.030 C
HETATM   21  C1  UNL     1      11.589 -24.783 -16.688  1.00  0.00     0.007 C
ENDBRANCH   1  20
BRANCH  13  22
HETATM   22  N4  UNL     1      13.595 -19.212 -16.275  1.00  0.00    -0.352 N
HETATM   23  C14 UNL     1      13.906 -17.917 -15.783  1.00  0.00     0.228 C
HETATM   24  O2  UNL     1      14.995 -17.348 -16.135  1.00  0.00    -0.273 OA
ATOM     25  H4  UNL     1      12.725 -19.665 -15.993  1.00  0.00     0.163 HD
BRANCH  23  26
HETATM   26  C15 UNL     1      13.035 -17.166 -14.872  1.00  0.00     0.187 C
HETATM   27 BR1  UNL     1      14.123 -16.288 -13.552  1.00  0.00    -0.087 Br
ENDBRANCH  23  26
ENDBRANCH  13  22
TORSDOF 6
ENDMDL