MODEL 3
REMARK VINA RESULT: -6.186673106      3.723      6.032
REMARK  8 active torsions:
REMARK  status: ('A' for Active; 'I' for Inactive)
REMARK    1  A    between atoms: C4_7  and  N2_8
REMARK    2  A    between atoms: N2_8  and  C5_10
REMARK    3  A    between atoms: C5_10  and  C6_14
REMARK    4  A    between atoms: C6_14  and  C7_16
REMARK    5  A    between atoms: C8_17  and  C9_18
REMARK    6  A    between atoms: C10_19  and  C11_20
REMARK    7  A    between atoms: C11_20  and  C12_21
REMARK    8  A    between atoms: C12_21  and  N4_22
ROOT
HETATM    1  C5  UNL     1      16.616 -18.515 -15.969  1.00  0.00     0.098 C
HETATM    2  N3  UNL     1      16.834 -18.935 -14.783  1.00  0.00    -0.387 N
ATOM      3  H31 UNL     1      16.217 -18.670 -14.015  1.00  0.00     0.157 HD
ATOM      4  H32 UNL     1      17.636 -19.542 -14.612  1.00  0.00     0.157 HD
ENDROOT
BRANCH   1   5
HETATM    5  N2  UNL     1      17.479 -18.885 -17.041  1.00  0.00    -0.359 N
ATOM      6  H2  UNL     1      17.977 -18.167 -17.568  1.00  0.00     0.162 HD
BRANCH   5   7
HETATM    7  C4  UNL     1      17.645 -20.272 -17.377  1.00  0.00     0.247 C
HETATM    8  C3  UNL     1      17.453 -20.523 -18.830  1.00  0.00     0.248 C
HETATM    9  N1  UNL     1      18.547 -21.310 -19.321  1.00  0.00    -0.348 N
HETATM   10  O1  UNL     1      16.463 -20.084 -19.471  1.00  0.00    -0.271 OA
HETATM   11  C2  UNL     1      19.268 -21.797 -18.181  1.00  0.00     0.152 C
ATOM     12  H1  UNL     1      18.770 -21.489 -20.300  1.00  0.00     0.163 HD
HETATM   13  C1  UNL     1      20.736 -22.005 -18.458  1.00  0.00     0.040 C
HETATM   14  C16 UNL     1      19.020 -20.763 -17.160  1.00  0.00     0.180 C
HETATM   15  O2  UNL     1      19.788 -20.391 -16.314  1.00  0.00    -0.293 OA
ENDBRANCH   5   7
ENDBRANCH   1   5
BRANCH   1  16
HETATM   16  C6  UNL     1      15.451 -17.633 -16.216  1.00  0.00     0.204 C
HETATM   17 BR1  UNL     1      14.521 -17.180 -14.583  1.00  0.00    -0.069 Br
BRANCH  16  18
HETATM   18  C7  UNL     1      14.514 -18.311 -17.106  1.00  0.00    -0.069 C
HETATM   19  C8  UNL     1      13.735 -18.894 -17.842  1.00  0.00    -0.013 C
BRANCH  19  20
HETATM   20  C9  UNL     1      12.842 -19.588 -18.690  1.00  0.00    -0.015 C
HETATM   21  C10 UNL     1      12.080 -20.205 -19.415  1.00  0.00    -0.091 C
BRANCH  21  22
HETATM   22  C11 UNL     1      11.175 -20.966 -20.283  1.00  0.00     0.122 C
BRANCH  22  23
HETATM   23  C12 UNL     1      11.865 -21.169 -21.592  1.00  0.00     0.248 C
BRANCH  23  24
HETATM   24  N4  UNL     1      12.027 -22.538 -21.975  1.00  0.00    -0.078 N
HETATM   25  C13 UNL     1      13.184 -22.665 -22.851  1.00  0.00     0.271 C
HETATM   26  C14 UNL     1      10.871 -22.947 -22.757  1.00  0.00     0.271 C
HETATM   27  C15 UNL     1      12.156 -23.448 -20.876  1.00  0.00     0.271 C
ENDBRANCH  23  24
ENDBRANCH  22  23
ENDBRANCH  21  22
ENDBRANCH  19  20
ENDBRANCH  16  18
ENDBRANCH   1  16
TORSDOF 8
ENDMDL