MODEL 5
REMARK VINA RESULT: -6.851731096      2.100      2.944
REMARK  6 active torsions:
REMARK  status: ('A' for Active; 'I' for Inactive)
REMARK    1  A    between atoms: C2_2  and  C3_3
REMARK    2  A    between atoms: C3_3  and  C4_4
REMARK    3  A    between atoms: C4_4  and  C5_5
REMARK    4  A    between atoms: C5_5  and  C6_6
REMARK    5  A    between atoms: C10_10  and  C11_11
REMARK    6  A    between atoms: C11_11  and  C12_12
ROOT
HETATM    1  C6  UNL     1     -28.473 -13.019 -29.542  1.00  0.00     0.186 C
HETATM    2  C7  UNL     1     -28.768 -11.620 -29.925  1.00  0.00     0.033 C
HETATM    3  C8  UNL     1     -27.510 -10.782 -30.054  1.00  0.00     0.004 C
HETATM    4  C9  UNL     1     -26.406 -11.602 -30.730  1.00  0.00     0.033 C
HETATM    5  C10 UNL     1     -27.051 -12.706 -31.486  1.00  0.00     0.187 C
HETATM    6  N3  UNL     1     -27.643 -13.662 -30.587  1.00  0.00    -0.067 N
ATOM      7  H31 UNL     1     -28.176 -14.366 -31.099  1.00  0.00     0.278 HD
ATOM      8  H32 UNL     1     -26.932 -14.266 -30.172  1.00  0.00     0.278 HD
ENDROOT
BRANCH   5   9
HETATM    9  C11 UNL     1     -26.082 -13.475 -32.356  1.00  0.00     0.046 C
BRANCH   9  10
HETATM   10  C12 UNL     1     -26.533 -13.699 -33.748  1.00  0.00     0.066 C
HETATM   11  C13 UNL     1     -25.270 -13.674 -34.623  1.00  0.00     0.188 C
HETATM   12  O1  UNL     1     -25.411 -14.695 -35.563  1.00  0.00    -0.333 OA
HETATM   13  C14 UNL     1     -26.339 -15.601 -35.128  1.00  0.00     0.168 A
HETATM   14  N1  UNL     1     -26.655 -16.847 -35.558  1.00  0.00    -0.301 N
HETATM   15  C17 UNL     1     -27.032 -15.056 -34.049  1.00  0.00     0.067 A
HETATM   16  C15 UNL     1     -27.616 -17.576 -34.976  1.00  0.00     0.262 A
ATOM     17  H1  UNL     1     -26.145 -17.242 -36.348  1.00  0.00     0.171 HD
HETATM   18  O2  UNL     1     -27.932 -18.733 -35.352  1.00  0.00    -0.267 OA
HETATM   19  C16 UNL     1     -28.304 -17.045 -33.912  1.00  0.00     0.163 A
HETATM   20  N2  UNL     1     -27.979 -15.810 -33.498  1.00  0.00    -0.360 N
ATOM     21  H2  UNL     1     -28.494 -15.423 -32.706  1.00  0.00     0.165 HD
ENDBRANCH   9  10
ENDBRANCH   5   9
BRANCH   1  22
HETATM   22  C5  UNL     1     -27.896 -13.345 -28.236  1.00  0.00     0.033 C
BRANCH  22  23
HETATM   23  C4  UNL     1     -26.858 -14.341 -28.010  1.00  0.00     0.002 C
BRANCH  23  24
HETATM   24  C3  UNL     1     -26.073 -14.309 -26.758  1.00  0.00    -0.000 C
BRANCH  24  25
HETATM   25  C2  UNL     1     -26.047 -12.834 -26.244  1.00  0.00    -0.005 C
HETATM   26  C1  UNL     1     -25.172 -12.843 -25.010  1.00  0.00     0.005 C
ENDBRANCH  24  25
ENDBRANCH  23  24
ENDBRANCH  22  23
ENDBRANCH   1  22
TORSDOF 6
ENDMDL