MODEL 2
REMARK VINA RESULT: -6.374936451      3.503      7.121
REMARK  8 active torsions:
REMARK  status: ('A' for Active; 'I' for Inactive)
REMARK    1  A    between atoms: C2_2  and  C3_3
REMARK    2  A    between atoms: C3_3  and  C4_4
REMARK    3  A    between atoms: C4_4  and  C5_5
REMARK    4  A    between atoms: C10_12  and  C11_13
REMARK    5  A    between atoms: C11_13  and  N2_14
REMARK    6  A    between atoms: C14_17  and  C15_18
REMARK    7  A    between atoms: C15_18  and  O1_19
REMARK    8  A    between atoms: C18_23  and  O2_24
ROOT
HETATM    1  C5  UNL     1     -29.302 -10.896 -31.252  1.00  0.00    -0.015 A
HETATM    2  C6  UNL     1     -30.371 -11.718 -31.516  1.00  0.00    -0.031 A
HETATM    3  C7  UNL     1     -31.556 -11.199 -32.231  1.00  0.00     0.051 C
HETATM    4  C8  UNL     1     -30.315 -13.028 -31.081  1.00  0.00     0.012 A
HETATM    5  C9  UNL     1     -31.415 -13.925 -31.561  1.00  0.00     0.068 C
HETATM    6  N1  UNL     1     -29.276 -13.570 -30.393  1.00  0.00    -0.356 N
ATOM      7  H1  UNL     1     -29.298 -14.543 -30.088  1.00  0.00     0.166 HD
HETATM    8  C10 UNL     1     -28.262 -12.815 -30.137  1.00  0.00     0.082 A
HETATM    9  C18 UNL     1     -28.253 -11.468 -30.565  1.00  0.00     0.100 A
ENDROOT
BRANCH   8  10
HETATM   10  C11 UNL     1     -26.995 -13.191 -29.429  1.00  0.00     0.122 C
BRANCH  10  11
HETATM   11  N2  UNL     1     -27.179 -13.683 -28.137  1.00  0.00    -0.368 N
HETATM   12  C12 UNL     1     -27.681 -12.584 -27.312  1.00  0.00     0.128 C
HETATM   13  C13 UNL     1     -26.420 -11.980 -26.727  1.00  0.00     0.027 C
HETATM   14  C14 UNL     1     -25.971 -13.003 -25.697  1.00  0.00     0.015 C
HETATM   15  C16 UNL     1     -25.790 -14.354 -26.261  1.00  0.00     0.051 C
HETATM   16  C17 UNL     1     -26.561 -14.716 -27.503  1.00  0.00     0.064 C
BRANCH  14  17
HETATM   17  C15 UNL     1     -24.676 -12.472 -25.116  1.00  0.00     0.169 C
BRANCH  17  18
HETATM   18  O1  UNL     1     -24.770 -12.462 -23.708  1.00  0.00    -0.400 OA
ATOM     19  H1  UNL     1     -23.907 -12.320 -23.339  1.00  0.00     0.209 HD
ENDBRANCH  17  18
ENDBRANCH  14  17
ENDBRANCH  10  11
ENDBRANCH   8  10
BRANCH   9  20
HETATM   20  O2  UNL     1     -27.111 -10.776 -30.234  1.00  0.00    -0.358 OA
ATOM     21  H2  UNL     1     -27.048 -10.223 -29.464  1.00  0.00     0.217 HD
ENDBRANCH   9  20
BRANCH   1  22
HETATM   22  C4  UNL     1     -29.219  -9.448 -31.488  1.00  0.00     0.046 C
BRANCH  22  23
HETATM   23  C3  UNL     1     -30.011  -8.563 -30.586  1.00  0.00     0.031 C
BRANCH  23  24
HETATM   24  C2  UNL     1     -29.092  -8.036 -29.514  1.00  0.00    -0.037 C
HETATM   25  C1  UNL     1     -29.101  -8.583 -28.327  1.00  0.00     0.007 C
ENDBRANCH  23  24
ENDBRANCH  22  23
ENDBRANCH   1  22
TORSDOF 8
ENDMDL