MODEL 5
REMARK VINA RESULT: -6.222983879      6.008      7.912
REMARK  7 active torsions:
REMARK  status: ('A' for Active; 'I' for Inactive)
REMARK    1  A    between atoms: N1_2  and  C2_3
REMARK    2  A    between atoms: N1_2  and  C11_16
REMARK    3  A    between atoms: C2_3  and  C3_4
REMARK    4  A    between atoms: N2_8  and  C7_9
REMARK    5  A    between atoms: C7_9  and  C8_10
REMARK    6  A    between atoms: C8_10  and  O1_11
REMARK    7  A    between atoms: C8_10  and  C9_13
ROOT
HETATM    1  C3  UNL     1     -29.729 -10.038 -29.203  1.00  0.00     0.042 C
HETATM    2  C4  UNL     1     -28.556  -9.218 -29.673  1.00  0.00     0.016 C
HETATM    3  C5  UNL     1     -28.889  -7.945 -30.362  1.00  0.00     0.045 C
HETATM    4  C6  UNL     1     -29.976  -7.267 -29.543  1.00  0.00     0.063 C
HETATM    5  N2  UNL     1     -31.117  -8.048 -29.588  1.00  0.00    -0.367 N
HETATM    6  C10 UNL     1     -30.899  -9.264 -28.773  1.00  0.00     0.137 C
ENDROOT
BRANCH   1   7
HETATM    7  C2  UNL     1     -29.213 -10.923 -28.094  1.00  0.00     0.064 C
BRANCH   7   8
HETATM    8  N1  UNL     1     -28.468 -12.032 -28.460  1.00  0.00    -0.393 N
HETATM    9  C1  UNL     1     -28.909 -12.993 -29.382  1.00  0.00     0.149 C
BRANCH   8  10
HETATM   10  C11 UNL     1     -27.453 -12.522 -27.611  1.00  0.00     0.083 C
HETATM   11  C12 UNL     1     -26.805 -13.788 -28.190  1.00  0.00     0.025 C
HETATM   12  C13 UNL     1     -26.233 -14.558 -27.047  1.00  0.00     0.002 C
HETATM   13  C14 UNL     1     -25.719 -13.669 -25.939  1.00  0.00     0.000 C
HETATM   14  C15 UNL     1     -25.314 -12.314 -26.418  1.00  0.00     0.002 C
HETATM   15  C16 UNL     1     -26.359 -11.593 -27.231  1.00  0.00     0.025 C
ENDBRANCH   8  10
ENDBRANCH   7   8
ENDBRANCH   1   7
BRANCH   5  16
HETATM   16  C7  UNL     1     -31.961  -8.261 -30.657  1.00  0.00     0.122 C
BRANCH  16  17
HETATM   17  C8  UNL     1     -33.393  -8.616 -30.505  1.00  0.00     0.068 C
BRANCH  17  18
HETATM   18  O1  UNL     1     -33.654  -9.972 -30.801  1.00  0.00    -0.363 OA
ATOM     19  H1  UNL     1     -34.542 -10.117 -31.108  1.00  0.00     0.217 HD
ENDBRANCH  17  18
BRANCH  17  20
HETATM   20  C9  UNL     1     -34.249  -7.980 -29.506  1.00  0.00     0.151 C
HETATM   21  S1  UNL     1     -34.409  -6.230 -29.403  1.00  0.00    -0.091 SA
ENDBRANCH  17  20
ENDBRANCH  16  17
ENDBRANCH   5  16
TORSDOF 7
ENDMDL