MODEL 3
REMARK VINA RESULT: -7.216762008      2.451      3.894
REMARK  7 active torsions:
REMARK  status: ('A' for Active; 'I' for Inactive)
REMARK    1  A    between atoms: O1_1  and  C1_3
REMARK    2  A    between atoms: C1_3  and  C2_4
REMARK    3  A    between atoms: C2_4  and  N1_5
REMARK    4  A    between atoms: N4_17  and  C9_18
REMARK    5  A    between atoms: C9_18  and  C10_19
REMARK    6  A    between atoms: C10_19  and  C11_20
REMARK    7  A    between atoms: C11_20  and  C12_21
ROOT
HETATM    1  N1  UNL     1     -26.010 -19.345 -34.563  1.00  0.00    -0.372 N
ATOM      2  H1  UNL     1     -25.195 -19.957 -34.603  1.00  0.00     0.161 HD
HETATM    3  C3  UNL     1     -25.821 -18.135 -34.170  1.00  0.00     0.130 A
HETATM    4  N2  UNL     1     -24.568 -17.775 -33.844  1.00  0.00    -0.351 N
ATOM      5  H2  UNL     1     -23.818 -18.463 -33.917  1.00  0.00     0.166 HD
HETATM    6  C4  UNL     1     -24.275 -16.520 -33.420  1.00  0.00     0.092 A
HETATM    7  C5  UNL     1     -25.252 -15.554 -33.305  1.00  0.00     0.049 A
HETATM    8  C6  UNL     1     -26.545 -15.889 -33.631  1.00  0.00     0.067 A
HETATM    9  C7  UNL     1     -26.804 -17.178 -34.059  1.00  0.00     0.104 A
HETATM   10  N3  UNL     1     -28.109 -17.230 -34.304  1.00  0.00    -0.347 N
ATOM     11  H3  UNL     1     -28.623 -18.047 -34.636  1.00  0.00     0.167 HD
HETATM   12  C8  UNL     1     -28.638 -16.016 -34.036  1.00  0.00     0.184 A
HETATM   13  N4  UNL     1     -27.681 -15.168 -33.617  1.00  0.00    -0.341 N
ENDROOT
BRANCH  13  14
HETATM   14  C9  UNL     1     -27.842 -13.759 -33.227  1.00  0.00     0.130 C
BRANCH  14  15
HETATM   15  C10 UNL     1     -28.280 -13.673 -31.789  1.00  0.00     0.021 C
BRANCH  15  16
HETATM   16  C11 UNL     1     -27.129 -13.318 -30.888  1.00  0.00     0.006 C
BRANCH  16  17
HETATM   17  C12 UNL     1     -27.545 -12.679 -29.599  1.00  0.00    -0.014 C
HETATM   18  C13 UNL     1     -27.936 -13.759 -28.616  1.00  0.00     0.004 C
HETATM   19  C14 UNL     1     -26.824 -14.068 -27.634  1.00  0.00     0.000 C
HETATM   20  C15 UNL     1     -26.470 -12.845 -26.806  1.00  0.00     0.000 C
HETATM   21  C16 UNL     1     -26.822 -11.570 -27.552  1.00  0.00     0.000 C
HETATM   22  C17 UNL     1     -26.483 -11.804 -29.006  1.00  0.00     0.004 C
ENDBRANCH  16  17
ENDBRANCH  15  16
ENDBRANCH  14  15
ENDBRANCH  13  14
BRANCH   1  23
HETATM   23  C2  UNL     1     -27.270 -19.902 -34.949  1.00  0.00     0.147 C
BRANCH  23  24
HETATM   24  C1  UNL     1     -27.397 -21.260 -34.253  1.00  0.00     0.183 C
BRANCH  24  25
HETATM   25  O1  UNL     1     -26.657 -21.175 -33.078  1.00  0.00    -0.399 OA
ATOM     26  H1  UNL     1     -27.274 -21.276 -32.362  1.00  0.00     0.209 HD
ENDBRANCH  24  25
ENDBRANCH  23  24
ENDBRANCH   1  23
TORSDOF 7
ENDMDL