MODEL 4
REMARK VINA RESULT: -5.818837915      5.345      7.959
REMARK  6 active torsions:
REMARK  status: ('A' for Active; 'I' for Inactive)
REMARK    1  A    between atoms: C2_2  and  O1_3
REMARK    2  A    between atoms: O1_3  and  C3_4
REMARK    3  A    between atoms: C5_6  and  C6_7
REMARK    4  A    between atoms: C6_7  and  C7_8
REMARK    5  A    between atoms: C13_18  and  O3_19
REMARK    6  A    between atoms: O3_19  and  C14_20
ROOT
HETATM    1  C3  UNL     1     -29.716  -7.587 -29.595  1.00  0.00     0.103 A
HETATM    2  C4  UNL     1     -28.943  -8.540 -28.978  1.00  0.00     0.047 A
HETATM    3  C5  UNL     1     -29.506  -9.720 -28.478  1.00  0.00    -0.052 A
HETATM    4  C11 UNL     1     -30.860  -9.931 -28.605  1.00  0.00     0.029 A
HETATM    5  C12 UNL     1     -31.668  -8.992 -29.222  1.00  0.00     0.048 A
HETATM    6  S1  UNL     1     -33.400  -9.375 -29.365  1.00  0.00    -0.050 SA
HETATM    7  C13 UNL     1     -31.111  -7.840 -29.708  1.00  0.00     0.119 A
ENDROOT
BRANCH   3   8
HETATM    8  C6  UNL     1     -28.635 -10.686 -27.837  1.00  0.00     0.063 C
BRANCH   8   9
HETATM    9  C7  UNL     1     -27.441 -11.157 -28.569  1.00  0.00     0.089 C
HETATM   10  C8  UNL     1     -26.632 -12.164 -27.816  1.00  0.00     0.034 C
HETATM   11  C9  UNL     1     -27.399 -13.472 -27.996  1.00  0.00     0.105 C
HETATM   12  C10 UNL     1     -28.286 -13.214 -29.156  1.00  0.00     0.217 C
HETATM   13  O2  UNL     1     -29.195 -13.988 -29.569  1.00  0.00    -0.274 OA
HETATM   14  N1  UNL     1     -27.915 -11.957 -29.694  1.00  0.00    -0.356 N
ATOM     15  H1  UNL     1     -27.969 -11.670 -30.670  1.00  0.00     0.162 HD
ENDBRANCH   8   9
ENDBRANCH   3   8
BRANCH   1  16
HETATM   16  O1  UNL     1     -29.227  -6.404 -30.107  1.00  0.00    -0.349 OA
BRANCH  16  17
HETATM   17  C2  UNL     1     -28.509  -6.323 -31.296  1.00  0.00     0.171 C
HETATM   18  C1  UNL     1     -29.119  -5.475 -32.364  1.00  0.00     0.034 C
ENDBRANCH  16  17
ENDBRANCH   1  16
BRANCH   7  19
HETATM   19  O3  UNL     1     -31.864  -6.891 -30.321  1.00  0.00    -0.347 OA
BRANCH  19  20
HETATM   20  C14 UNL     1     -32.441  -5.751 -29.764  1.00  0.00     0.171 C
HETATM   21  C15 UNL     1     -33.942  -5.710 -29.798  1.00  0.00     0.034 C
ENDBRANCH  19  20
ENDBRANCH   7  19
TORSDOF 6
ENDMDL