MODEL 1
REMARK VINA RESULT: -7.939270551      0.000      0.000
REMARK  6 active torsions:
REMARK  status: ('A' for Active; 'I' for Inactive)
REMARK    1  A    between atoms: C6_9  and  C7_10
REMARK    2  A    between atoms: C7_10  and  N2_11
REMARK    3  A    between atoms: N2_11  and  C8_14
REMARK    4  A    between atoms: C8_14  and  C9_15
REMARK    5  A    between atoms: C9_15  and  C10_16
REMARK    6  A    between atoms: C10_16  and  C11_17
ROOT
HETATM    1  C1  UNL     1     -26.594 -20.154 -35.272  1.00  0.00     0.089 C
HETATM    2  C2  UNL     1     -26.289 -18.818 -34.651  1.00  0.00     0.081 A
HETATM    3  N1  UNL     1     -25.036 -18.477 -34.320  1.00  0.00    -0.312 N
ATOM      4  H1  UNL     1     -24.280 -19.139 -34.495  1.00  0.00     0.170 HD
HETATM    5  C3  UNL     1     -24.744 -17.284 -33.762  1.00  0.00     0.260 A
HETATM    6  O1  UNL     1     -23.567 -16.951 -33.446  1.00  0.00    -0.267 OA
HETATM    7  C4  UNL     1     -25.744 -16.386 -33.523  1.00  0.00     0.077 A
HETATM    8  C5  UNL     1     -25.518 -15.130 -32.948  1.00  0.00     0.031 A
HETATM    9  C6  UNL     1     -26.541 -14.251 -32.720  1.00  0.00    -0.016 A
HETATM   10  C16 UNL     1     -27.816 -14.638 -33.074  1.00  0.00     0.098 A
HETATM   11  N3  UNL     1     -28.044 -15.847 -33.629  1.00  0.00    -0.351 N
ATOM     12  H3  UNL     1     -28.999 -16.104 -33.879  1.00  0.00     0.166 HD
HETATM   13  C17 UNL     1     -27.045 -16.728 -33.861  1.00  0.00     0.122 A
HETATM   14  N4  UNL     1     -27.274 -17.932 -34.414  1.00  0.00    -0.332 N
ATOM     15  H4  UNL     1     -28.230 -18.183 -34.665  1.00  0.00     0.168 HD
ENDROOT
BRANCH   9  16
HETATM   16  C7  UNL     1     -26.224 -12.942 -32.108  1.00  0.00     0.272 C
BRANCH  16  17
HETATM   17  N2  UNL     1     -27.321 -12.003 -32.226  1.00  0.00    -0.071 N
ATOM     18  H22 UNL     1     -27.388 -11.561 -33.143  1.00  0.00     0.277 HD
ATOM     19  H21 UNL     1     -28.240 -12.442 -32.239  1.00  0.00     0.277 HD
BRANCH  17  20
HETATM   20  C8  UNL     1     -27.130 -11.042 -31.110  1.00  0.00     0.232 C
BRANCH  20  21
HETATM   21  C9  UNL     1     -26.689 -11.754 -29.887  1.00  0.00     0.028 C
BRANCH  21  22
HETATM   22  C10 UNL     1     -27.309 -11.344 -28.616  1.00  0.00     0.006 C
BRANCH  22  23
HETATM   23  C11 UNL     1     -27.162 -12.276 -27.488  1.00  0.00    -0.014 C
HETATM   24  C12 UNL     1     -27.132 -13.733 -27.745  1.00  0.00     0.004 C
HETATM   25  C13 UNL     1     -26.064 -14.347 -26.813  1.00  0.00     0.000 C
HETATM   26  C14 UNL     1     -25.837 -13.217 -25.796  1.00  0.00     0.000 C
HETATM   27  C15 UNL     1     -25.823 -12.039 -26.746  1.00  0.00     0.004 C
ENDBRANCH  22  23
ENDBRANCH  21  22
ENDBRANCH  20  21
ENDBRANCH  17  20
ENDBRANCH  16  17
ENDBRANCH   9  16
TORSDOF 6
ENDMDL