MODEL 4
REMARK VINA RESULT: -6.420406259      2.702      3.818
REMARK  8 active torsions:
REMARK  status: ('A' for Active; 'I' for Inactive)
REMARK    1  A    between atoms: O1_1  and  C1_3
REMARK    2  A    between atoms: C1_3  and  C2_4
REMARK    3  A    between atoms: C2_4  and  N1_5
REMARK    4  A    between atoms: N1_5  and  C3_8
REMARK    5  A    between atoms: C3_8  and  C4_9
REMARK    6  A    between atoms: C6_11  and  O2_12
REMARK    7  A    between atoms: O2_12  and  C7_13
REMARK    8  A    between atoms: C7_13  and  C8_14
ROOT
HETATM    1  C4  UNL     1     -28.503 -12.076 -31.027  1.00  0.00     0.040 A
HETATM    2  C5  UNL     1     -27.358 -12.432 -30.353  1.00  0.00     0.065 A
HETATM    3  C6  UNL     1     -27.119 -11.562 -29.310  1.00  0.00     0.093 A
HETATM    4  C11 UNL     1     -28.197 -10.641 -29.384  1.00  0.00     0.045 A
HETATM    5  N2  UNL     1     -28.966 -10.992 -30.400  1.00  0.00    -0.350 N
HETATM    6  C12 UNL     1     -30.144 -10.148 -30.636  1.00  0.00     0.129 C
HETATM    7  C13 UNL     1     -30.876 -10.023 -29.326  1.00  0.00     0.021 C
HETATM    8  C14 UNL     1     -30.010  -9.592 -28.187  1.00  0.00     0.008 C
HETATM    9  C15 UNL     1     -28.550  -9.464 -28.569  1.00  0.00     0.060 C
ENDROOT
BRANCH   1  10
HETATM   10  C3  UNL     1     -29.074 -12.762 -32.189  1.00  0.00     0.289 C
BRANCH  10  11
HETATM   11  N1  UNL     1     -29.616 -14.061 -31.901  1.00  0.00    -0.067 N
ATOM     12  H12 UNL     1     -29.025 -14.610 -31.277  1.00  0.00     0.277 HD
ATOM     13  H11 UNL     1     -29.586 -14.692 -32.702  1.00  0.00     0.277 HD
BRANCH  11  14
HETATM   14  C2  UNL     1     -30.957 -13.866 -31.384  1.00  0.00     0.270 C
BRANCH  14  15
HETATM   15  C1  UNL     1     -31.821 -15.090 -31.599  1.00  0.00     0.082 A
HETATM   16  C16 UNL     1     -33.284 -14.725 -31.323  1.00  0.00     0.039 A
HETATM   17  C17 UNL     1     -33.650 -14.984 -32.780  1.00  0.00     0.006 A
HETATM   18  C18 UNL     1     -32.215 -15.300 -33.043  1.00  0.00     0.039 A
BRANCH  15  19
HETATM   19  O1  UNL     1     -31.423 -16.215 -30.919  1.00  0.00    -0.388 OA
ATOM     20  H1  UNL     1     -31.610 -17.038 -31.354  1.00  0.00     0.210 HD
ENDBRANCH  15  19
ENDBRANCH  14  15
ENDBRANCH  11  14
ENDBRANCH  10  11
ENDBRANCH   1  10
BRANCH   3  21
HETATM   21  O2  UNL     1     -26.178 -11.465 -28.378  1.00  0.00    -0.349 OA
BRANCH  21  22
HETATM   22  C7  UNL     1     -25.874 -11.735 -27.133  1.00  0.00     0.180 C
BRANCH  22  23
HETATM   23  C8  UNL     1     -26.424 -12.997 -26.534  1.00  0.00     0.010 A
HETATM   24  C9  UNL     1     -26.230 -14.361 -26.991  1.00  0.00     0.007 A
HETATM   25  C10 UNL     1     -25.509 -13.887 -25.755  1.00  0.00     0.007 A
ENDBRANCH  22  23
ENDBRANCH  21  22
ENDBRANCH   3  21
TORSDOF 8
ENDMDL