MODEL 2
REMARK VINA RESULT: -7.151008378      6.385      8.778
REMARK  6 active torsions:
REMARK  status: ('A' for Active; 'I' for Inactive)
REMARK    1  A    between atoms: C3_5  and  C4_6
REMARK    2  A    between atoms: C11_18  and  O1_19
REMARK    3  A    between atoms: O1_19  and  C12_20
REMARK    4  A    between atoms: C12_20  and  C13_21
REMARK    5  A    between atoms: C13_21  and  C14_22
REMARK    6  A    between atoms: C14_22  and  C15_23
ROOT
HETATM    1  C1  UNL     1     -24.836 -11.172 -33.887  1.00  0.00     0.124 A
HETATM    2  N1  UNL     1     -24.645 -11.657 -35.127  1.00  0.00    -0.372 N
ATOM      3  H1  UNL     1     -24.388 -11.004 -35.867  1.00  0.00     0.164 HD
HETATM    4  C2  UNL     1     -24.777 -12.966 -35.444  1.00  0.00     0.095 A
HETATM    5  C3  UNL     1     -25.121 -13.835 -34.447  1.00  0.00    -0.034 A
HETATM    6  C10 UNL     1     -25.321 -13.352 -33.160  1.00  0.00     0.047 A
HETATM    7  C11 UNL     1     -25.185 -12.019 -32.848  1.00  0.00     0.084 A
ENDROOT
BRANCH   5   8
HETATM    8  C4  UNL     1     -25.294 -15.288 -34.671  1.00  0.00     0.054 C
HETATM    9  C5  UNL     1     -26.606 -15.470 -35.447  1.00  0.00     0.046 C
HETATM   10  C6  UNL     1     -27.018 -16.852 -34.918  1.00  0.00     0.204 C
HETATM   11  C7  UNL     1     -25.980 -17.827 -35.411  1.00  0.00     0.147 C
HETATM   12  N3  UNL     1     -26.894 -16.610 -33.488  1.00  0.00    -0.063 N
HETATM   13  N2  UNL     1     -25.089 -18.299 -34.405  1.00  0.00    -0.417 N
HETATM   14  C8  UNL     1     -24.628 -17.299 -33.478  1.00  0.00     0.147 C
ATOM     15  H2  UNL     1     -24.798 -19.275 -34.346  1.00  0.00     0.153 HD
HETATM   16  C9  UNL     1     -25.522 -16.085 -33.430  1.00  0.00     0.212 C
ATOM     17  H32 UNL     1     -27.613 -16.017 -33.074  1.00  0.00     0.278 HD
ATOM     18  H31 UNL     1     -27.088 -17.410 -32.885  1.00  0.00     0.278 HD
ENDBRANCH   5   8
BRANCH   7  19
HETATM   19  O1  UNL     1     -25.375 -11.497 -31.577  1.00  0.00    -0.350 OA
BRANCH  19  20
HETATM   20  C12 UNL     1     -26.695 -11.568 -31.049  1.00  0.00     0.175 C
BRANCH  20  21
HETATM   21  C13 UNL     1     -26.645 -11.866 -29.561  1.00  0.00     0.027 C
BRANCH  21  22
HETATM   22  C14 UNL     1     -27.336 -13.220 -29.354  1.00  0.00     0.007 C
BRANCH  22  23
HETATM   23  C15 UNL     1     -27.353 -13.465 -27.861  1.00  0.00    -0.014 C
HETATM   24  C16 UNL     1     -26.463 -12.529 -27.071  1.00  0.00     0.005 C
HETATM   25  C17 UNL     1     -25.994 -13.734 -26.281  1.00  0.00     0.001 C
HETATM   26  C18 UNL     1     -26.386 -14.590 -27.474  1.00  0.00     0.005 C
ENDBRANCH  22  23
ENDBRANCH  21  22
ENDBRANCH  20  21
ENDBRANCH  19  20
ENDBRANCH   7  19
TORSDOF 6
ENDMDL