MODEL 3
REMARK VINA RESULT: -6.912408823      2.194      2.970
REMARK  7 active torsions:
REMARK  status: ('A' for Active; 'I' for Inactive)
REMARK    1  A    between atoms: C2_2  and  C3_3
REMARK    2  A    between atoms: C3_3  and  C4_4
REMARK    3  A    between atoms: C4_4  and  C5_5
REMARK    4  A    between atoms: C5_5  and  C6_6
REMARK    5  A    between atoms: C6_6  and  C7_7
REMARK    6  A    between atoms: C7_7  and  C8_8
REMARK    7  A    between atoms: C14_14  and  O1_15
ROOT
HETATM    1  C8  UNL     1     -27.564 -11.711 -28.834  1.00  0.00     0.098 C
HETATM    2  C9  UNL     1     -26.856 -12.483 -29.942  1.00  0.00     0.068 C
HETATM    3  C10 UNL     1     -27.273 -12.060 -31.308  1.00  0.00     0.109 C
HETATM    4  C11 UNL     1     -26.391 -12.830 -32.294  1.00  0.00     0.042 C
HETATM    5  C12 UNL     1     -25.258 -11.889 -32.636  1.00  0.00     0.006 C
HETATM    6  C13 UNL     1     -25.758 -10.505 -32.383  1.00  0.00     0.035 C
HETATM    7  C14 UNL     1     -27.038 -10.614 -31.591  1.00  0.00     0.154 C
HETATM    8  O2  UNL     1     -28.579 -12.379 -31.622  1.00  0.00    -0.245 OA
HETATM    9  S1  UNL     1     -29.559 -12.584 -30.300  1.00  0.00     0.358 S
HETATM   10  O3  UNL     1     -29.544 -14.019 -29.860  1.00  0.00    -0.176 OA
HETATM   11  O4  UNL     1     -30.978 -12.189 -30.594  1.00  0.00    -0.176 OA
HETATM   12  N1  UNL     1     -28.969 -11.586 -29.030  1.00  0.00    -0.292 N
ATOM     13  H1  UNL     1     -29.562 -10.969 -28.475  1.00  0.00     0.174 HD
ENDROOT
BRANCH   1  14
HETATM   14  C7  UNL     1     -27.293 -12.395 -27.528  1.00  0.00     0.026 C
BRANCH  14  15
HETATM   15  C6  UNL     1     -26.871 -13.845 -27.840  1.00  0.00     0.002 C
BRANCH  15  16
HETATM   16  C5  UNL     1     -26.021 -14.351 -26.759  1.00  0.00     0.000 C
BRANCH  16  17
HETATM   17  C4  UNL     1     -25.701 -13.440 -25.659  1.00  0.00     0.000 C
BRANCH  17  18
HETATM   18  C3  UNL     1     -24.455 -13.585 -24.900  1.00  0.00    -0.000 C
BRANCH  18  19
HETATM   19  C2  UNL     1     -24.254 -12.740 -23.704  1.00  0.00    -0.005 C
HETATM   20  C1  UNL     1     -23.034 -13.242 -22.889  1.00  0.00     0.005 C
ENDBRANCH  18  19
ENDBRANCH  17  18
ENDBRANCH  16  17
ENDBRANCH  15  16
ENDBRANCH  14  15
ENDBRANCH   1  14
BRANCH   7  21
HETATM   21  O1  UNL     1     -28.094 -10.045 -32.337  1.00  0.00    -0.392 OA
ATOM     22  H1  UNL     1     -27.782  -9.628 -33.131  1.00  0.00     0.210 HD
ENDBRANCH   7  21
TORSDOF 7
ENDMDL