MODEL 5
REMARK VINA RESULT: -8.097418668      2.046      3.751
REMARK  6 active torsions:
REMARK  status: ('A' for Active; 'I' for Inactive)
REMARK       I    between atoms: N2_3  and  C2_5
REMARK       I    between atoms: C2_5  and  N3_7
REMARK    1  A    between atoms: N3_7  and  C3_9
REMARK    2  A    between atoms: C3_9  and  C4_10
REMARK    3  A    between atoms: C4_10  and  C5_11
REMARK    4  A    between atoms: C5_11  and  C6_12
REMARK    5  A    between atoms: C6_12  and  N4_13
REMARK    6  A    between atoms: C10_19  and  C11_20
ROOT
HETATM    1  N1  UNL     1     -22.291 -13.411 -21.950  1.00  0.00    -0.172 NA
HETATM    2  C1  UNL     1     -22.759 -13.620 -22.983  1.00  0.00     0.185 C
HETATM    3  N2  UNL     1     -23.353 -13.862 -24.251  1.00  0.00    -0.245 N
ATOM      4  H2  UNL     1     -22.889 -14.439 -24.952  1.00  0.00     0.183 HD
HETATM    5  C2  UNL     1     -24.612 -13.270 -24.504  1.00  0.00     0.329 C
HETATM    6  O1  UNL     1     -25.199 -12.560 -23.664  1.00  0.00    -0.246 OA
HETATM    7  N3  UNL     1     -25.229 -13.498 -25.772  1.00  0.00    -0.342 N
ATOM      8  H3  UNL     1     -24.764 -14.076 -26.472  1.00  0.00     0.164 HD
ENDROOT
BRANCH   7   9
HETATM    9  C3  UNL     1     -26.509 -12.907 -26.056  1.00  0.00     0.124 C
BRANCH   9  10
HETATM   10  C4  UNL     1     -26.523 -12.412 -27.481  1.00  0.00     0.021 C
BRANCH  10  11
HETATM   11  C5  UNL     1     -27.944 -12.249 -27.965  1.00  0.00     0.021 C
BRANCH  11  12
HETATM   12  C6  UNL     1     -28.365 -13.344 -28.895  1.00  0.00     0.124 C
BRANCH  12  13
HETATM   13  N4  UNL     1     -28.979 -12.959 -30.113  1.00  0.00    -0.371 N
HETATM   14  C7  UNL     1     -30.293 -12.383 -30.260  1.00  0.00     0.125 C
HETATM   15  C8  UNL     1     -31.054 -13.274 -31.213  1.00  0.00     0.039 C
HETATM   16  C9  UNL     1     -30.334 -13.233 -32.539  1.00  0.00     0.122 C
HETATM   17  N5  UNL     1     -28.915 -13.268 -32.430  1.00  0.00    -0.379 N
HETATM   18  C10 UNL     1     -28.238 -13.146 -31.328  1.00  0.00     0.079 C
ATOM     19  H5  UNL     1     -28.385 -13.401 -33.291  1.00  0.00     0.160 HD
BRANCH  18  20
HETATM   20  C11 UNL     1     -26.752 -13.203 -31.376  1.00  0.00     0.053 C
HETATM   21  C12 UNL     1     -26.157 -11.853 -31.306  1.00  0.00     0.012 C
HETATM   22  C13 UNL     1     -25.488 -11.292 -32.482  1.00  0.00     0.001 C
HETATM   23  C14 UNL     1     -25.301 -12.170 -33.667  1.00  0.00     0.000 C
HETATM   24  C15 UNL     1     -25.024 -13.581 -33.145  1.00  0.00     0.001 C
HETATM   25  C16 UNL     1     -26.358 -14.022 -32.572  1.00  0.00     0.012 C
ENDBRANCH  18  20
ENDBRANCH  12  13
ENDBRANCH  11  12
ENDBRANCH  10  11
ENDBRANCH   9  10
ENDBRANCH   7   9
TORSDOF 6
ENDMDL