MODEL 4
REMARK VINA RESULT: -6.827380513      2.872      3.902
REMARK  8 active torsions:
REMARK  status: ('A' for Active; 'I' for Inactive)
REMARK    1  A    between atoms: C8_10  and  O1_11
REMARK    2  A    between atoms: O1_11  and  C9_12
REMARK    3  A    between atoms: C9_12  and  C10_13
REMARK    4  A    between atoms: C10_13  and  C11_14
REMARK    5  A    between atoms: C11_14  and  C12_15
REMARK    6  A    between atoms: C12_15  and  C13_16
REMARK    7  A    between atoms: C13_16  and  O2_17
REMARK    8  A    between atoms: C18_23  and  O3_24
ROOT
HETATM    1  C1  UNL     1     -14.791  -6.088  -1.920  1.00  0.00     0.016 C
HETATM    2  C2  UNL     1     -14.300  -5.074  -0.948  1.00  0.00     0.032 C
HETATM    3  C3  UNL     1     -14.691  -5.440   0.492  1.00  0.00     0.011 C
HETATM    4  C4  UNL     1     -16.173  -5.490   0.692  1.00  0.00     0.005 C
HETATM    5  C5  UNL     1     -16.972  -4.703  -0.292  1.00  0.00     0.041 C
HETATM    6  C6  UNL     1     -16.230  -3.548  -0.818  1.00  0.00    -0.028 A
HETATM    7  C7  UNL     1     -14.899  -3.728  -1.149  1.00  0.00     0.022 A
HETATM    8  N1  UNL     1     -14.245  -2.665  -1.628  1.00  0.00    -0.339 N
ATOM      9  H1  UNL     1     -13.263  -2.786  -1.874  1.00  0.00     0.168 HD
HETATM   10  C8  UNL     1     -14.788  -1.448  -1.807  1.00  0.00     0.152 A
HETATM   11  C14 UNL     1     -16.137  -1.282  -1.467  1.00  0.00     0.028 A
HETATM   12  C15 UNL     1     -16.871  -2.336  -0.968  1.00  0.00    -0.037 A
HETATM   13  C16 UNL     1     -18.258  -1.849  -0.705  1.00  0.00     0.043 C
HETATM   14  C17 UNL     1     -18.373  -0.737  -1.723  1.00  0.00     0.041 C
HETATM   15  C18 UNL     1     -17.002  -0.067  -1.554  1.00  0.00     0.156 C
ENDROOT
BRANCH  10  16
HETATM   16  O1  UNL     1     -14.119  -0.368  -2.295  1.00  0.00    -0.335 OA
BRANCH  16  17
HETATM   17  C9  UNL     1     -13.124  -0.333  -3.282  1.00  0.00     0.177 C
BRANCH  17  18
HETATM   18  C10 UNL     1     -13.666  -0.320  -4.649  1.00  0.00     0.027 C
BRANCH  18  19
HETATM   19  C11 UNL     1     -15.028   0.105  -4.949  1.00  0.00     0.004 C
BRANCH  19  20
HETATM   20  C12 UNL     1     -15.638  -0.316  -6.226  1.00  0.00     0.026 C
BRANCH  20  21
HETATM   21  C13 UNL     1     -14.940   0.124  -7.457  1.00  0.00     0.164 C
BRANCH  21  22
HETATM   22  O2  UNL     1     -15.778   1.132  -8.037  1.00  0.00    -0.401 OA
ATOM     23  H2  UNL     1     -15.612   1.922  -7.536  1.00  0.00     0.209 HD
ENDBRANCH  21  22
ENDBRANCH  20  21
ENDBRANCH  19  20
ENDBRANCH  18  19
ENDBRANCH  17  18
ENDBRANCH  16  17
ENDBRANCH  10  16
BRANCH  15  24
HETATM   24  O3  UNL     1     -16.995   0.575  -0.319  1.00  0.00    -0.391 OA
ATOM     25  H3  UNL     1     -16.384   1.302  -0.357  1.00  0.00     0.210 HD
ENDBRANCH  15  24
TORSDOF 8
ENDMDL