MODEL 3
REMARK VINA RESULT: -6.843993048      1.213      1.406
REMARK  7 active torsions:
REMARK  status: ('A' for Active; 'I' for Inactive)
REMARK    1  A    between atoms: C2_2  and  N1_3
REMARK    2  A    between atoms: N1_3  and  C3_5
REMARK    3  A    between atoms: C5_10  and  C6_11
REMARK    4  A    between atoms: N4_15  and  C9_16
REMARK    5  A    between atoms: C9_16  and  C10_17
REMARK    6  A    between atoms: C10_17  and  C11_18
REMARK    7  A    between atoms: C11_18  and  C12_19
ROOT
HETATM    1  C3  UNL     1     -15.473   0.259   0.950  1.00  0.00     0.684 A
HETATM    2  N2  UNL     1     -16.191   1.365   1.215  1.00  0.00    -0.155 N
ATOM      3  H2  UNL     1     -15.757   2.143   1.712  1.00  0.00     0.187 HD
HETATM    4  C4  UNL     1     -17.478   1.457   0.832  1.00  0.00     0.269 A
HETATM    5  O1  UNL     1     -18.168   2.503   1.079  1.00  0.00    -0.267 OA
HETATM    6  C5  UNL     1     -18.020   0.381   0.162  1.00  0.00     0.052 A
HETATM    7  C8  UNL     1     -17.261  -0.755  -0.104  1.00  0.00     0.146 A
HETATM    8  N3  UNL     1     -17.842  -1.858  -0.797  1.00  0.00    -0.081 NA
HETATM    9  N4  UNL     1     -15.982  -0.799   0.301  1.00  0.00    -0.170 N
ENDROOT
BRANCH   9  10
HETATM   10  C9  UNL     1     -15.162  -1.948   0.050  1.00  0.00     0.149 C
BRANCH  10  11
HETATM   11  C10 UNL     1     -14.873  -2.114  -1.446  1.00  0.00     0.021 C
BRANCH  11  12
HETATM   12  C11 UNL     1     -13.847  -1.105  -1.874  1.00  0.00     0.006 C
BRANCH  12  13
HETATM   13  C12 UNL     1     -14.293  -0.313  -3.085  1.00  0.00    -0.014 C
HETATM   14  C13 UNL     1     -15.633  -0.915  -3.505  1.00  0.00     0.004 C
HETATM   15  C14 UNL     1     -15.918  -0.720  -4.962  1.00  0.00     0.000 C
HETATM   16  C15 UNL     1     -15.120   0.447  -5.506  1.00  0.00     0.000 C
HETATM   17  C16 UNL     1     -13.674   0.031  -5.501  1.00  0.00     0.000 C
HETATM   18  C17 UNL     1     -13.252  -0.469  -4.143  1.00  0.00     0.004 C
ENDBRANCH  12  13
ENDBRANCH  11  12
ENDBRANCH  10  11
ENDBRANCH   9  10
BRANCH   1  19
HETATM   19  N1  UNL     1     -14.259   0.226   1.336  1.00  0.00    -0.226 N
ATOM     20  H1  UNL     1     -13.743  -0.631   1.138  1.00  0.00     0.177 HD
BRANCH  19  21
HETATM   21  C2  UNL     1     -13.540   1.257   2.017  1.00  0.00     0.133 C
HETATM   22  C1  UNL     1     -12.073   1.124   1.683  1.00  0.00     0.027 C
ENDBRANCH  19  21
ENDBRANCH   1  19
BRANCH   6  23
HETATM   23  C6  UNL     1     -19.411   0.406  -0.286  1.00  0.00     0.043 C
HETATM   24  C7  UNL     1     -20.398   0.030   0.793  1.00  0.00     0.010 C
ENDBRANCH   6  23
TORSDOF 7
ENDMDL