MODEL 1
REMARK VINA RESULT: -6.628344756      0.000      0.000
REMARK  8 active torsions:
REMARK  status: ('A' for Active; 'I' for Inactive)
REMARK    1  A    between atoms: O1_2  and  C2_3
REMARK    2  A    between atoms: C9_11  and  C10_12
REMARK    3  A    between atoms: C10_12  and  C11_13
REMARK    4  A    between atoms: C11_13  and  C12_14
REMARK    5  A    between atoms: C12_14  and  C13_15
REMARK    6  A    between atoms: C13_15  and  N1_16
REMARK    7  A    between atoms: C16_22  and  C17_23
REMARK    8  A    between atoms: C17_23  and  O3_24
ROOT
HETATM    1  C2  UNL     1     -14.503  -0.834  -1.252  1.00  0.00     0.075 A
HETATM    2  C3  UNL     1     -15.045  -0.415  -0.050  1.00  0.00     0.052 A
HETATM    3  C4  UNL     1     -16.274   0.211   0.023  1.00  0.00     0.009 A
HETATM    4  C5  UNL     1     -17.048   0.727   1.063  1.00  0.00    -0.015 A
HETATM    5  C6  UNL     1     -18.205   1.244   0.528  1.00  0.00     0.061 A
HETATM    6  O2  UNL     1     -18.137   1.051  -0.771  1.00  0.00    -0.314 OA
HETATM    7  C7  UNL     1     -17.017   0.446  -1.111  1.00  0.00     0.087 A
HETATM    8  C8  UNL     1     -16.489   0.032  -2.326  1.00  0.00     0.048 A
HETATM    9  C9  UNL     1     -15.255  -0.595  -2.383  1.00  0.00    -0.022 A
HETATM   10  C14 UNL     1     -19.240   1.873   1.416  1.00  0.00     0.066 C
HETATM   11  C15 UNL     1     -19.142   1.386   2.815  1.00  0.00     0.013 C
HETATM   12  C16 UNL     1     -17.772   1.323   3.383  1.00  0.00     0.014 C
HETATM   13  C18 UNL     1     -16.721   0.736   2.507  1.00  0.00     0.049 C
ENDROOT
BRANCH   9  14
HETATM   14  C10 UNL     1     -14.684  -1.046  -3.693  1.00  0.00     0.041 C
BRANCH  14  15
HETATM   15  C11 UNL     1     -15.437  -0.343  -4.786  1.00  0.00     0.006 C
BRANCH  15  16
HETATM   16  C12 UNL     1     -14.484   0.032  -5.875  1.00  0.00     0.027 C
BRANCH  16  17
HETATM   17  C13 UNL     1     -15.169   0.403  -7.171  1.00  0.00     0.229 C
BRANCH  17  18
HETATM   18  N1  UNL     1     -14.418  -0.185  -8.273  1.00  0.00    -0.079 N
ATOM     19  H13 UNL     1     -13.434  -0.326  -8.046  1.00  0.00     0.274 HD
ATOM     20  H12 UNL     1     -14.665  -1.161  -8.438  1.00  0.00     0.274 HD
ATOM     21  H11 UNL     1     -14.551   0.397  -9.101  1.00  0.00     0.274 HD
ENDBRANCH  17  18
ENDBRANCH  16  17
ENDBRANCH  15  16
ENDBRANCH  14  15
ENDBRANCH   9  14
BRANCH   1  22
HETATM   22  O1  UNL     1     -13.294  -1.456  -1.376  1.00  0.00    -0.355 OA
HETATM   23  C1  UNL     1     -13.001  -2.774  -1.003  1.00  0.00     0.210 C
ENDBRANCH   1  22
BRANCH  12  24
HETATM   24  C17 UNL     1     -17.305   2.657   3.947  1.00  0.00     0.169 C
BRANCH  24  25
HETATM   25  O3  UNL     1     -16.674   3.407   2.956  1.00  0.00    -0.400 OA
ATOM     26  H3  UNL     1     -16.685   4.329   3.184  1.00  0.00     0.209 HD
ENDBRANCH  24  25
ENDBRANCH  12  24
TORSDOF 8
ENDMDL