MODEL 5
REMARK VINA RESULT: -6.061909794      2.600      5.207
REMARK  7 active torsions:
REMARK  status: ('A' for Active; 'I' for Inactive)
REMARK    1  A    between atoms: C1_2  and  C2_3
REMARK       I    between atoms: C1_2  and  N2_19
REMARK    2  A    between atoms: C2_3  and  C3_4
REMARK    3  A    between atoms: C3_4  and  C4_5
REMARK    4  A    between atoms: C3_4  and  C11_12
REMARK    5  A    between atoms: C4_5  and  C5_6
REMARK    6  A    between atoms: C11_12  and  O2_13
REMARK    7  A    between atoms: N1_15  and  O3_17
ROOT
HETATM    1  C3  UNL     1     -17.308  -0.257  -0.459  1.00  0.00     0.071 C
ENDROOT
BRANCH   1   2
HETATM    2  C2  UNL     1     -16.782  -0.327   0.962  1.00  0.00     0.115 C
BRANCH   2   3
HETATM    3  C1  UNL     1     -15.472  -0.903   1.156  1.00  0.00     0.220 C
HETATM    4  O1  UNL     1     -15.202  -2.114   1.042  1.00  0.00    -0.273 OA
HETATM    5  N2  UNL     1     -14.390  -0.052   1.500  1.00  0.00    -0.348 N
HETATM    6  C12 UNL     1     -14.617   1.367   1.649  1.00  0.00     0.152 C
HETATM    7  C15 UNL     1     -13.045  -0.540   1.713  1.00  0.00     0.152 C
HETATM    8  C13 UNL     1     -13.646   1.839   2.735  1.00  0.00     0.187 C
HETATM    9  O4  UNL     1     -12.345   1.695   2.319  1.00  0.00    -0.388 OA
HETATM   10  C14 UNL     1     -12.108   0.639   1.474  1.00  0.00     0.187 C
ENDBRANCH   2   3
ENDBRANCH   1   2
BRANCH   1  11
HETATM   11  C4  UNL     1     -16.267   0.062  -1.448  1.00  0.00     0.018 C
BRANCH  11  12
HETATM   12  C5  UNL     1     -15.966  -0.843  -2.562  1.00  0.00    -0.014 C
HETATM   13  C6  UNL     1     -15.015  -1.957  -2.390  1.00  0.00     0.005 C
HETATM   14  C7  UNL     1     -13.571  -1.505  -2.287  1.00  0.00     0.000 C
HETATM   15  C8  UNL     1     -13.267  -0.411  -3.288  1.00  0.00     0.000 C
HETATM   16  C9  UNL     1     -14.311  -0.449  -4.388  1.00  0.00     0.000 C
HETATM   17  C10 UNL     1     -15.620   0.010  -3.779  1.00  0.00     0.005 C
ENDBRANCH  11  12
ENDBRANCH   1  11
BRANCH   1  18
HETATM   18  C11 UNL     1     -18.164  -1.415  -0.651  1.00  0.00     0.140 C
HETATM   19  N1  UNL     1     -19.447  -1.232  -0.922  1.00  0.00    -0.251 N
ATOM     20  H1  UNL     1     -20.056  -2.038  -1.059  1.00  0.00     0.196 HD
BRANCH  18  21
HETATM   21  O2  UNL     1     -17.808  -2.750  -0.585  1.00  0.00    -0.348 OA
ATOM     22  H2  UNL     1     -16.957  -3.134  -0.762  1.00  0.00     0.219 HD
ENDBRANCH  18  21
BRANCH  19  23
HETATM   23  O3  UNL     1     -19.964   0.037  -1.019  1.00  0.00    -0.288 OA
ATOM     24  H3  UNL     1     -19.473   0.783  -0.694  1.00  0.00     0.244 HD
ENDBRANCH  19  23
ENDBRANCH   1  18
TORSDOF 7
ENDMDL