MODEL 1
REMARK VINA RESULT: -6.250425237      0.000      0.000
REMARK  7 active torsions:
REMARK  status: ('A' for Active; 'I' for Inactive)
REMARK    1  A    between atoms: C2_2  and  C3_3
REMARK    2  A    between atoms: C3_3  and  C4_4
REMARK    3  A    between atoms: N3_12  and  C9_13
REMARK    4  A    between atoms: C9_13  and  C10_14
REMARK    5  A    between atoms: C10_14  and  C11_15
REMARK    6  A    between atoms: C11_15  and  C12_16
REMARK    7  A    between atoms: C12_16  and  O1_17
ROOT
HETATM    1  C4  UNL     1     -14.878  -0.403  -3.383  1.00  0.00    -0.016 A
HETATM    2  C5  UNL     1     -13.591  -0.501  -2.954  1.00  0.00     0.099 A
HETATM    3  N1  UNL     1     -13.257  -0.605  -1.655  1.00  0.00    -0.350 N
ATOM      4  H1  UNL     1     -12.274  -0.675  -1.388  1.00  0.00     0.166 HD
HETATM    5  C6  UNL     1     -14.207  -0.618  -0.708  1.00  0.00     0.131 A
HETATM    6  C7  UNL     1     -15.557  -0.519  -1.102  1.00  0.00     0.108 A
HETATM    7  C8  UNL     1     -15.896  -0.413  -2.422  1.00  0.00     0.085 A
HETATM    8  N2  UNL     1     -17.235  -0.300  -2.827  1.00  0.00    -0.099 NA
HETATM    9  N3  UNL     1     -16.605  -0.529  -0.110  1.00  0.00    -0.314 N
HETATM   10  C14 UNL     1     -16.114  -0.651   1.247  1.00  0.00     0.102 C
HETATM   11  S1  UNL     1     -17.009  -0.039   2.492  1.00  0.00    -0.063 SA
HETATM   12  C15 UNL     1     -14.821  -1.314   1.544  1.00  0.00     0.191 C
HETATM   13  N4  UNL     1     -13.816  -0.736   0.654  1.00  0.00    -0.368 N
ATOM     14  H4  UNL     1     -12.899  -0.438   0.986  1.00  0.00     0.161 HD
ENDROOT
BRANCH   9  15
HETATM   15  C9  UNL     1     -17.992  -0.469  -0.336  1.00  0.00     0.071 C
BRANCH  15  16
HETATM   16  C10 UNL     1     -18.669  -1.829  -0.241  1.00  0.00     0.047 C
BRANCH  16  17
HETATM   17  C11 UNL     1     -20.132  -1.761  -0.058  1.00  0.00     0.031 C
BRANCH  17  18
HETATM   18  C12 UNL     1     -20.742  -0.446   0.227  1.00  0.00     0.167 C
BRANCH  18  19
HETATM   19  O1  UNL     1     -22.080  -0.383  -0.103  1.00  0.00    -0.396 OA
HETATM   20  C13 UNL     1     -22.877  -0.408   1.067  1.00  0.00     0.201 C
ENDBRANCH  18  19
ENDBRANCH  17  18
ENDBRANCH  16  17
ENDBRANCH  15  16
ENDBRANCH   9  15
BRANCH   1  21
HETATM   21  C3  UNL     1     -15.304  -0.298  -4.790  1.00  0.00     0.042 C
BRANCH  21  22
HETATM   22  C2  UNL     1     -14.181   0.097  -5.739  1.00  0.00     0.000 C
HETATM   23  C1  UNL     1     -14.799   0.077  -7.127  1.00  0.00     0.005 C
ENDBRANCH  21  22
ENDBRANCH   1  21
TORSDOF 7
ENDMDL