MODEL 5
REMARK VINA RESULT: -6.009743823      4.609      7.501
REMARK  7 active torsions:
REMARK  status: ('A' for Active; 'I' for Inactive)
REMARK    1  A    between atoms: C3_3  and  O1_4
REMARK    2  A    between atoms: N2_9  and  C5_11
REMARK    3  A    between atoms: C5_11  and  C6_12
REMARK    4  A    between atoms: C6_12  and  C7_13
REMARK    5  A    between atoms: C7_13  and  C8_14
REMARK    6  A    between atoms: C8_14  and  C9_15
REMARK    7  A    between atoms: C9_15  and  N3_16
ROOT
HETATM    1  C1  UNL     1     -15.807  -0.421  -4.648  1.00  0.00     0.053 C
HETATM    2  C2  UNL     1     -15.082  -0.459  -3.361  1.00  0.00    -0.004 A
HETATM    3  C3  UNL     1     -13.709  -0.527  -3.354  1.00  0.00     0.148 A
HETATM    4  N1  UNL     1     -13.051  -0.560  -2.202  1.00  0.00    -0.323 N
ATOM      5  H1  UNL     1     -12.032  -0.609  -2.218  1.00  0.00     0.169 HD
HETATM    6  C4  UNL     1     -13.706  -0.529  -0.968  1.00  0.00     0.109 A
HETATM    7  N2  UNL     1     -12.984  -0.567   0.027  1.00  0.00    -0.376 N
ATOM      8  H2  UNL     1     -12.002  -0.617  -0.242  1.00  0.00     0.161 HD
HETATM    9  C14 UNL     1     -15.077  -0.460  -1.003  1.00  0.00    -0.012 A
HETATM   10  C15 UNL     1     -15.856  -0.424   0.249  1.00  0.00     0.052 C
HETATM   11  C16 UNL     1     -15.789  -0.426  -2.188  1.00  0.00    -0.042 A
HETATM   12  C17 UNL     1     -17.264  -0.358  -2.186  1.00  0.00     0.049 C
ENDROOT
BRANCH   7  13
HETATM   13  C5  UNL     1     -13.114  -0.563   1.392  1.00  0.00     0.121 C
BRANCH  13  14
HETATM   14  C6  UNL     1     -12.302  -1.682   2.082  1.00  0.00     0.020 C
BRANCH  14  15
HETATM   15  C7  UNL     1     -12.622  -2.987   1.397  1.00  0.00     0.003 C
BRANCH  15  16
HETATM   16  C8  UNL     1     -11.359  -3.809   1.224  1.00  0.00     0.030 C
BRANCH  16  17
HETATM   17  C9  UNL     1     -11.383  -4.392  -0.171  1.00  0.00     0.272 C
BRANCH  17  18
HETATM   18  N3  UNL     1     -10.201  -5.171  -0.378  1.00  0.00     0.092 N
HETATM   19  C10 UNL     1      -9.108  -4.606   0.353  1.00  0.00     0.298 C
HETATM   20  C11 UNL     1      -7.782  -5.229  -0.036  1.00  0.00     0.198 C
HETATM   21  O2  UNL     1      -7.631  -5.279  -1.434  1.00  0.00    -0.388 OA
HETATM   22  C12 UNL     1      -8.643  -6.067  -1.935  1.00  0.00     0.198 C
HETATM   23  C13 UNL     1      -9.951  -5.304  -1.781  1.00  0.00     0.298 C
ENDBRANCH  17  18
ENDBRANCH  16  17
ENDBRANCH  15  16
ENDBRANCH  14  15
ENDBRANCH  13  14
ENDBRANCH   7  13
BRANCH   3  24
HETATM   24  O1  UNL     1     -12.960  -0.563  -4.545  1.00  0.00    -0.346 OA
ATOM     25  H1  UNL     1     -12.334   0.116  -4.764  1.00  0.00     0.219 HD
ENDBRANCH   3  24
TORSDOF 7
ENDMDL