MODEL 1
REMARK VINA RESULT: -6.357417062      0.000      0.000
REMARK  10 active torsions:
REMARK  status: ('A' for Active; 'I' for Inactive)
REMARK    1  A    between atoms: C2_2  and  C3_3
REMARK    2  A    between atoms: C3_3  and  C4_4
REMARK    3  A    between atoms: C4_4  and  C5_5
REMARK    4  A    between atoms: C5_5  and  C6_6
REMARK    5  A    between atoms: C6_6  and  C7_7
REMARK    6  A    between atoms: C8_8  and  C9_9
REMARK    7  A    between atoms: C9_9  and  O1_10
REMARK    8  A    between atoms: C12_14  and  C13_15
REMARK    9  A    between atoms: C13_15  and  O2_17
REMARK   10  A    between atoms: C15_20  and  O4_21
ROOT
HETATM    1  C9  UNL     1     -17.429  -0.409  -0.900  1.00  0.00     0.125 C
HETATM    2  C10 UNL     1     -17.984  -1.593  -0.174  1.00  0.00     0.054 C
HETATM    3  C11 UNL     1     -18.939  -1.281   0.919  1.00  0.00     0.038 C
HETATM    4  C12 UNL     1     -20.030  -0.336   0.575  1.00  0.00     0.153 C
HETATM    5  O3  UNL     1     -19.677   0.664  -0.309  1.00  0.00    -0.353 OA
HETATM    6  C15 UNL     1     -18.631   1.447   0.172  1.00  0.00     0.263 C
HETATM    7  C17 UNL     1     -17.301   0.736   0.053  1.00  0.00     0.112 C
ENDROOT
BRANCH   1   8
HETATM    8  C8  UNL     1     -16.076  -0.724  -1.385  1.00  0.00    -0.068 C
HETATM    9  C7  UNL     1     -14.961  -0.984  -1.762  1.00  0.00    -0.103 C
BRANCH   9  10
HETATM   10  C6  UNL     1     -13.575  -1.318  -2.207  1.00  0.00     0.094 C
BRANCH  10  11
HETATM   11  C5  UNL     1     -13.239  -0.428  -3.370  1.00  0.00     0.012 C
BRANCH  11  12
HETATM   12  C4  UNL     1     -14.390  -0.371  -4.327  1.00  0.00     0.001 C
BRANCH  12  13
HETATM   13  C3  UNL     1     -13.909   0.103  -5.673  1.00  0.00    -0.000 C
BRANCH  13  14
HETATM   14  C2  UNL     1     -15.151   0.065  -6.580  1.00  0.00    -0.005 C
HETATM   15  C1  UNL     1     -16.170  -0.799  -5.890  1.00  0.00     0.005 C
ENDBRANCH  13  14
ENDBRANCH  12  13
ENDBRANCH  11  12
ENDBRANCH  10  11
ENDBRANCH   9  10
ENDBRANCH   1   8
BRANCH   1  16
HETATM   16  O1  UNL     1     -18.176  -0.079  -2.036  1.00  0.00    -0.377 OA
ATOM     17  H1  UNL     1     -18.863   0.503  -1.735  1.00  0.00     0.211 HD
ENDBRANCH   1  16
BRANCH   6  18
HETATM   18  O4  UNL     1     -18.875   1.886   1.465  1.00  0.00    -0.366 OA
HETATM   19  C16 UNL     1     -17.667   2.226   2.061  1.00  0.00     0.204 C
ENDBRANCH   6  18
BRANCH   4  20
HETATM   20  C13 UNL     1     -21.283  -1.018   0.072  1.00  0.00     0.143 C
HETATM   21  C14 UNL     1     -22.528  -0.357   0.627  1.00  0.00     0.042 C
BRANCH  20  22
HETATM   22  O2  UNL     1     -21.334  -2.360   0.445  1.00  0.00    -0.393 OA
ATOM     23  H2  UNL     1     -21.989  -2.519   1.115  1.00  0.00     0.210 HD
ENDBRANCH  20  22
ENDBRANCH   4  20
TORSDOF 10
ENDMDL