MODEL 3
REMARK VINA RESULT: -6.580707175      4.785      6.664
REMARK  6 active torsions:
REMARK  status: ('A' for Active; 'I' for Inactive)
REMARK    1  A    between atoms: C2_2  and  C3_3
REMARK    2  A    between atoms: C3_3  and  C4_4
REMARK    3  A    between atoms: C4_4  and  C5_5
REMARK    4  A    between atoms: C5_5  and  C6_6
REMARK    5  A    between atoms: C6_6  and  C7_7
REMARK    6  A    between atoms: C8_10  and  C9_11
ROOT
HETATM    1  C7  UNL     1     -15.442  -0.549  -0.674  1.00  0.00     0.084 A
HETATM    2  N1  UNL     1     -14.634  -0.036   0.230  1.00  0.00    -0.343 N
ATOM      3  H1  UNL     1     -13.657  -0.305   0.348  1.00  0.00     0.167 HD
HETATM    4  C8  UNL     1     -15.280   0.913   0.995  1.00  0.00     0.072 A
HETATM    5  C14 UNL     1     -16.545   0.903   0.452  1.00  0.00     0.132 A
HETATM    6  N3  UNL     1     -16.653   0.018  -0.563  1.00  0.00    -0.329 N
HETATM    7  C15 UNL     1     -17.854  -0.196  -1.325  1.00  0.00     0.150 C
HETATM    8  C16 UNL     1     -19.091   0.181  -0.573  1.00  0.00     0.143 C
HETATM    9  N4  UNL     1     -18.908   1.442   0.132  1.00  0.00    -0.354 N
ATOM     10  H4  UNL     1     -19.638   2.154   0.109  1.00  0.00     0.162 HD
HETATM   11  C17 UNL     1     -17.704   1.673   0.851  1.00  0.00     0.270 C
HETATM   12  O1  UNL     1     -17.693   2.498   1.764  1.00  0.00    -0.266 OA
ENDROOT
BRANCH   4  13
HETATM   13  C9  UNL     1     -14.570   1.648   1.989  1.00  0.00    -0.029 C
HETATM   14  C10 UNL     1     -13.104   1.220   1.852  1.00  0.00     0.068 C
HETATM   15  C11 UNL     1     -12.129   2.056   2.571  1.00  0.00     0.237 C
HETATM   16  N2  UNL     1     -12.452   1.838   4.003  1.00  0.00    -0.072 N
HETATM   17  C12 UNL     1     -13.711   2.467   4.134  1.00  0.00     0.260 C
ATOM     18  H22 UNL     1     -12.426   0.863   4.304  1.00  0.00     0.277 HD
ATOM     19  H21 UNL     1     -11.740   2.163   4.657  1.00  0.00     0.277 HD
HETATM   20  C13 UNL     1     -14.858   1.843   3.354  1.00  0.00     0.010 C
ENDBRANCH   4  13
BRANCH   1  21
HETATM   21  C6  UNL     1     -15.075  -1.567  -1.670  1.00  0.00     0.076 C
BRANCH  21  22
HETATM   22  C5  UNL     1     -13.655  -1.551  -2.113  1.00  0.00     0.007 C
BRANCH  22  23
HETATM   23  C4  UNL     1     -13.351  -0.485  -3.167  1.00  0.00     0.000 C
BRANCH  23  24
HETATM   24  C3  UNL     1     -14.441  -0.391  -4.177  1.00  0.00    -0.000 C
BRANCH  24  25
HETATM   25  C2  UNL     1     -13.963  -0.003  -5.542  1.00  0.00    -0.005 C
HETATM   26  C1  UNL     1     -15.058   0.035  -6.566  1.00  0.00     0.005 C
ENDBRANCH  24  25
ENDBRANCH  23  24
ENDBRANCH  22  23
ENDBRANCH  21  22
ENDBRANCH   1  21
TORSDOF 6
ENDMDL