MODEL 5
REMARK VINA RESULT: -7.160804943      1.949      2.574
REMARK  7 active torsions:
REMARK  status: ('A' for Active; 'I' for Inactive)
REMARK    1  A    between atoms: N1_1  and  C1_5
REMARK    2  A    between atoms: C1_5  and  C2_6
REMARK    3  A    between atoms: C2_6  and  C3_7
REMARK    4  A    between atoms: C3_7  and  C4_8
REMARK    5  A    between atoms: C4_8  and  C5_9
REMARK    6  A    between atoms: C12_21  and  O2_22
REMARK    7  A    between atoms: O2_22  and  C13_23
ROOT
HETATM    1  C5  UNL     1     -14.510  -0.749  -1.215  1.00  0.00    -0.024 A
HETATM    2  C6  UNL     1     -13.660  -0.630  -2.321  1.00  0.00     0.025 A
HETATM    3  C7  UNL     1     -14.124  -0.421  -3.593  1.00  0.00     0.007 A
HETATM    4  C8  UNL     1     -13.291  -0.303  -4.680  1.00  0.00     0.106 A
HETATM    5  N2  UNL     1     -13.784  -0.099  -5.915  1.00  0.00    -0.318 N
ATOM      6  H2  UNL     1     -13.148  -0.016  -6.709  1.00  0.00     0.170 HD
HETATM    7  C9  UNL     1     -15.112  -0.004  -6.105  1.00  0.00     0.324 A
HETATM    8  O1  UNL     1     -15.595   0.185  -7.243  1.00  0.00    -0.247 OA
HETATM    9  N3  UNL     1     -15.969  -0.112  -5.077  1.00  0.00    -0.308 N
ATOM     10  H3  UNL     1     -16.974  -0.040  -5.233  1.00  0.00     0.170 HD
HETATM   11  C10 UNL     1     -15.480  -0.318  -3.826  1.00  0.00     0.050 A
HETATM   12  C11 UNL     1     -16.319  -0.430  -2.777  1.00  0.00     0.067 A
HETATM   13  C12 UNL     1     -15.859  -0.646  -1.451  1.00  0.00     0.077 A
ENDROOT
BRANCH   1  14
HETATM   14  C4  UNL     1     -13.876  -1.012   0.097  1.00  0.00     0.041 C
BRANCH  14  15
HETATM   15  C3  UNL     1     -13.430   0.202   0.839  1.00  0.00     0.006 C
BRANCH  15  16
HETATM   16  C2  UNL     1     -14.515   0.514   1.862  1.00  0.00     0.027 C
BRANCH  16  17
HETATM   17  C1  UNL     1     -15.156   1.845   1.619  1.00  0.00     0.229 C
BRANCH  17  18
HETATM   18  N1  UNL     1     -16.590   1.790   1.560  1.00  0.00    -0.079 N
ATOM     19  H13 UNL     1     -16.953   2.508   0.932  1.00  0.00     0.274 HD
ATOM     20  H12 UNL     1     -16.899   0.956   1.062  1.00  0.00     0.274 HD
ATOM     21  H11 UNL     1     -17.038   1.851   2.475  1.00  0.00     0.274 HD
ENDBRANCH  17  18
ENDBRANCH  16  17
ENDBRANCH  15  16
ENDBRANCH  14  15
ENDBRANCH   1  14
BRANCH  13  22
HETATM   22  O2  UNL     1     -16.776  -0.731  -0.525  1.00  0.00    -0.345 OA
BRANCH  22  23
HETATM   23  C13 UNL     1     -17.559  -1.360   0.331  1.00  0.00     0.129 C
HETATM   24  C14 UNL     1     -18.981  -1.464  -0.210  1.00  0.00     0.032 C
HETATM   25  C15 UNL     1     -19.395  -2.891  -0.188  1.00  0.00     0.002 C
HETATM   26  C16 UNL     1     -18.092  -3.660  -0.184  1.00  0.00     0.002 C
HETATM   27  C17 UNL     1     -17.177  -2.798   0.657  1.00  0.00     0.032 C
ENDBRANCH  22  23
ENDBRANCH  13  22
TORSDOF 7
ENDMDL