MODEL 1
REMARK VINA RESULT: -7.985750442      0.000      0.000
REMARK  8 active torsions:
REMARK  status: ('A' for Active; 'I' for Inactive)
REMARK    1  A    between atoms: N2_4  and  C1_6
REMARK    2  A    between atoms: C1_6  and  C2_7
REMARK    3  A    between atoms: C2_7  and  C3_8
REMARK    4  A    between atoms: C3_8  and  N3_9
REMARK       I    between atoms: N3_9  and  C4_11
REMARK    5  A    between atoms: C4_11  and  C5_13
REMARK    6  A    between atoms: C5_13  and  C6_15
REMARK    7  A    between atoms: C6_15  and  N4_16
REMARK    8  A    between atoms: N4_16  and  C7_18
ROOT
HETATM    1  N3  UNL     1     -19.693   7.569  -0.445  1.00  0.00    -0.360 N
ATOM      2  H3  UNL     1     -20.496   7.433   0.168  1.00  0.00     0.162 HD
HETATM    3  C4  UNL     1     -19.223   6.496  -1.234  1.00  0.00     0.237 C
HETATM    4  O1  UNL     1     -18.242   6.663  -1.981  1.00  0.00    -0.272 OA
ENDROOT
BRANCH   3   5
HETATM    5  C5  UNL     1     -19.906   5.194  -1.155  1.00  0.00     0.191 C
HETATM    6 CL1  UNL     1     -20.826   4.883  -2.643  1.00  0.00    -0.113 Cl
BRANCH   5   7
HETATM    7  C6  UNL     1     -20.811   5.105   0.082  1.00  0.00     0.144 C
BRANCH   7   8
HETATM    8  N4  UNL     1     -20.152   4.263   1.019  1.00  0.00    -0.415 N
ATOM      9  H4  UNL     1     -19.708   3.388   0.737  1.00  0.00     0.153 HD
BRANCH   8  10
HETATM   10  C7  UNL     1     -20.145   4.704   2.365  1.00  0.00     0.076 C
HETATM   11  C8  UNL     1     -20.146   6.179   2.575  1.00  0.00     0.026 C
HETATM   12  C9  UNL     1     -20.984   6.550   3.793  1.00  0.00     0.022 C
HETATM   13  C10 UNL     1     -20.619   5.677   4.965  1.00  0.00     0.082 C
HETATM   14 CL2  UNL     1     -18.952   6.056   5.488  1.00  0.00    -0.125 Cl
HETATM   15  C11 UNL     1     -20.796   4.219   4.656  1.00  0.00     0.022 C
HETATM   16  C12 UNL     1     -21.265   4.072   3.202  1.00  0.00     0.026 C
ENDBRANCH   8  10
ENDBRANCH   7   8
ENDBRANCH   5   7
ENDBRANCH   3   5
BRANCH   1  17
HETATM   17  C3  UNL     1     -19.042   8.867  -0.500  1.00  0.00     0.124 C
BRANCH  17  18
HETATM   18  C2  UNL     1     -19.712   9.739  -1.546  1.00  0.00     0.041 C
BRANCH  18  19
HETATM   19  C1  UNL     1     -19.363  11.183  -1.207  1.00  0.00     0.140 C
BRANCH  19  20
HETATM   20  N2  UNL     1     -19.742  12.028  -2.279  1.00  0.00    -0.343 N
HETATM   21  N1  UNL     1     -20.158  13.186  -2.148  1.00  0.00    -0.349 N
ATOM     22  H12 UNL     1     -20.227  13.542  -1.195  1.00  0.00     0.176 HD
ATOM     23  H11 UNL     1     -20.431  13.794  -2.920  1.00  0.00     0.176 HD
ATOM     24  H2  UNL     1     -19.666  11.656  -3.225  1.00  0.00     0.179 HD
ENDBRANCH  19  20
ENDBRANCH  18  19
ENDBRANCH  17  18
ENDBRANCH   1  17
TORSDOF 8
ENDMDL