MODEL 4
REMARK VINA RESULT: -7.840133174      5.252      7.848
REMARK  10 active torsions:
REMARK  status: ('A' for Active; 'I' for Inactive)
REMARK    1  A    between atoms: C2_2  and  C3_4
REMARK    2  A    between atoms: C7_9  and  C8_10
REMARK    3  A    between atoms: C8_10  and  C9_12
REMARK    4  A    between atoms: C9_12  and  O1_13
REMARK    5  A    between atoms: O1_13  and  C10_14
REMARK    6  A    between atoms: C10_14  and  C11_15
REMARK    7  A    between atoms: C11_15  and  O2_16
REMARK    8  A    between atoms: C11_15  and  C12_18
REMARK    9  A    between atoms: C12_18  and  C13_19
REMARK   10  A    between atoms: C13_19  and  N1_20
ROOT
HETATM    1  C8  UNL     1     -20.534   5.740   4.430  1.00  0.00     0.228 C
HETATM    2  F1  UNL     1     -21.474   6.699   4.714  1.00  0.00    -0.242 F
ENDROOT
BRANCH   1   3
HETATM    3  C7  UNL     1     -20.382   5.629   2.935  1.00  0.00    -0.000 A
HETATM    4  C6  UNL     1     -20.764   4.463   2.306  1.00  0.00     0.043 A
HETATM    5  C5  UNL     1     -20.607   4.405   0.934  1.00  0.00     0.025 A
HETATM    6 CL2  UNL     1     -21.424   3.100   3.193  1.00  0.00    -0.084 Cl
HETATM    7  C4  UNL     1     -20.088   5.464   0.196  1.00  0.00     0.010 A
HETATM    8  C3  UNL     1     -19.709   6.624   0.836  1.00  0.00    -0.039 A
HETATM    9  C14 UNL     1     -19.870   6.675   2.208  1.00  0.00     0.020 A
BRANCH   8  10
HETATM   10  C2  UNL     1     -19.152   7.770   0.071  1.00  0.00     0.111 C
HETATM   11  C1  UNL     1     -19.053   7.372  -1.407  1.00  0.00     0.032 C
HETATM   12 CL1  UNL     1     -20.305   9.130   0.147  1.00  0.00    -0.120 Cl
ENDBRANCH   8  10
ENDBRANCH   1   3
BRANCH   1  13
HETATM   13  C9  UNL     1     -19.232   6.128   5.051  1.00  0.00     0.209 C
BRANCH  13  14
HETATM   14  O1  UNL     1     -18.998   5.446   6.212  1.00  0.00    -0.386 OA
BRANCH  14  15
HETATM   15  C10 UNL     1     -20.087   5.359   7.066  1.00  0.00     0.199 C
BRANCH  15  16
HETATM   16  C11 UNL     1     -19.800   6.312   8.208  1.00  0.00     0.143 C
BRANCH  16  17
HETATM   17  O2  UNL     1     -20.977   7.005   8.475  1.00  0.00    -0.393 OA
ATOM     18  H2  UNL     1     -21.358   6.625   9.258  1.00  0.00     0.210 HD
ENDBRANCH  16  17
BRANCH  16  19
HETATM   19  C12 UNL     1     -19.358   5.609   9.460  1.00  0.00     0.061 C
BRANCH  19  20
HETATM   20  C13 UNL     1     -19.618   4.133   9.434  1.00  0.00     0.232 C
BRANCH  20  21
HETATM   21  N1  UNL     1     -18.514   3.436   8.800  1.00  0.00    -0.079 N
ATOM     22  H13 UNL     1     -18.700   3.248   7.815  1.00  0.00     0.274 HD
ATOM     23  H12 UNL     1     -17.698   4.037   8.689  1.00  0.00     0.274 HD
ATOM     24  H11 UNL     1     -18.290   2.582   9.313  1.00  0.00     0.274 HD
ENDBRANCH  20  21
ENDBRANCH  19  20
ENDBRANCH  16  19
ENDBRANCH  15  16
ENDBRANCH  14  15
ENDBRANCH  13  14
ENDBRANCH   1  13
TORSDOF 10
ENDMDL