MODEL 4
REMARK VINA RESULT: -7.105573194      5.430      7.004
REMARK  8 active torsions:
REMARK  status: ('A' for Active; 'I' for Inactive)
REMARK    1  A    between atoms: C4_6  and  C5_7
REMARK    2  A    between atoms: C5_7  and  C6_8
REMARK    3  A    between atoms: C6_8  and  N1_9
REMARK    4  A    between atoms: N1_9  and  C7_12
REMARK    5  A    between atoms: C7_12  and  C8_13
REMARK    6  A    between atoms: C8_13  and  C9_14
REMARK    7  A    between atoms: C8_13  and  N2_16
REMARK    8  A    between atoms: N2_16  and  C10_18
ROOT
HETATM    1  N1  UNL     1     -20.957   2.971  -1.948  1.00  0.00    -0.073 N
ATOM      2  H11 UNL     1     -21.176   1.978  -1.864  1.00  0.00     0.277 HD
ATOM      3  H12 UNL     1     -19.946   2.861  -2.017  1.00  0.00     0.277 HD
ENDROOT
BRANCH   1   4
HETATM    4  C6  UNL     1     -21.395   3.781  -0.797  1.00  0.00     0.237 C
BRANCH   4   5
HETATM    5  C5  UNL     1     -20.386   4.833  -0.522  1.00  0.00     0.068 C
BRANCH   5   6
HETATM    6  C4  UNL     1     -20.450   5.267   0.904  1.00  0.00    -0.032 A
HETATM    7  C3  UNL     1     -20.086   6.522   1.278  1.00  0.00     0.043 A
HETATM    8  C2  UNL     1     -20.198   6.946   2.607  1.00  0.00     0.070 A
HETATM    9 CL1  UNL     1     -19.462   7.664   0.066  1.00  0.00    -0.084 Cl
HETATM   10  C1  UNL     1     -20.691   6.083   3.581  1.00  0.00     0.156 A
HETATM   11  F1  UNL     1     -20.833   6.454   4.892  1.00  0.00    -0.203 F
HETATM   12  C14 UNL     1     -21.052   4.815   3.186  1.00  0.00     0.155 A
HETATM   13  C13 UNL     1     -20.937   4.412   1.881  1.00  0.00     0.054 A
HETATM   14  F2  UNL     1     -21.536   3.934   4.122  1.00  0.00    -0.203 F
ENDBRANCH   5   6
ENDBRANCH   4   5
ENDBRANCH   1   4
BRANCH   1  15
HETATM   15  C7  UNL     1     -21.557   3.608  -3.094  1.00  0.00     0.257 C
BRANCH  15  16
HETATM   16  C8  UNL     1     -22.623   2.681  -3.663  1.00  0.00     0.112 C
BRANCH  16  17
HETATM   17  C9  UNL     1     -22.679   3.064  -5.148  1.00  0.00     0.112 C
HETATM   18  S1  UNL     1     -24.313   2.803  -5.847  1.00  0.00    -0.096 SA
ENDBRANCH  16  17
BRANCH  16  19
HETATM   19  N2  UNL     1     -22.278   1.349  -3.461  1.00  0.00    -0.411 N
ATOM     20  H2  UNL     1     -22.498   0.923  -2.561  1.00  0.00     0.154 HD
BRANCH  19  21
HETATM   21  C10 UNL     1     -21.650   0.568  -4.425  1.00  0.00     0.077 A
HETATM   22  C11 UNL     1     -20.171   0.365  -4.377  1.00  0.00     0.027 A
HETATM   23  C12 UNL     1     -21.131  -0.759  -4.040  1.00  0.00     0.027 A
ENDBRANCH  19  21
ENDBRANCH  16  19
ENDBRANCH  15  16
ENDBRANCH   1  15
TORSDOF 8
ENDMDL