MODEL 4
REMARK VINA RESULT: -6.725467737      1.473      2.792
REMARK  9 active torsions:
REMARK  status: ('A' for Active; 'I' for Inactive)
REMARK    1  A    between atoms: C2_2  and  C3_3
REMARK    2  A    between atoms: C3_3  and  C4_4
REMARK    3  A    between atoms: C4_4  and  N1_5
REMARK    4  A    between atoms: N1_5  and  C5_7
REMARK    5  A    between atoms: C5_7  and  C6_8
REMARK    6  A    between atoms: C6_8  and  O1_9
REMARK    7  A    between atoms: C6_8  and  C7_11
REMARK    8  A    between atoms: C7_11  and  O2_12
REMARK    9  A    between atoms: O2_12  and  C8_13
ROOT
HETATM    1  C7  UNL     1     -19.372   5.945   2.036  1.00  0.00     0.176 C
ENDROOT
BRANCH   1   2
HETATM    2  C6  UNL     1     -20.081   6.827   2.993  1.00  0.00     0.082 C
BRANCH   2   3
HETATM    3  C5  UNL     1     -20.686   6.157   4.185  1.00  0.00     0.180 C
BRANCH   3   4
HETATM    4  N1  UNL     1     -19.691   5.876   5.189  1.00  0.00    -0.415 N
ATOM      5  H1  UNL     1     -18.745   6.253   5.141  1.00  0.00     0.153 HD
BRANCH   4   6
HETATM    6  C4  UNL     1     -20.125   5.031   6.257  1.00  0.00     0.114 C
BRANCH   6   7
HETATM    7  C3  UNL     1     -19.768   5.679   7.581  1.00  0.00     0.019 C
BRANCH   7   8
HETATM    8  C2  UNL     1     -19.782   4.619   8.692  1.00  0.00    -0.003 C
HETATM    9  C1  UNL     1     -19.263   5.209   9.986  1.00  0.00     0.005 C
ENDBRANCH   7   8
ENDBRANCH   6   7
ENDBRANCH   4   6
ENDBRANCH   3   4
ENDBRANCH   2   3
BRANCH   2  10
HETATM   10  O1  UNL     1     -20.930   7.767   2.463  1.00  0.00    -0.361 OA
ATOM     11  H1  UNL     1     -20.459   8.403   1.937  1.00  0.00     0.217 HD
ENDBRANCH   2  10
ENDBRANCH   1   2
BRANCH   1  12
HETATM   12  O2  UNL     1     -19.560   5.974   0.713  1.00  0.00    -0.317 OA
BRANCH  12  13
HETATM   13  C8  UNL     1     -20.151   5.299  -0.291  1.00  0.00     0.118 A
HETATM   14  C9  UNL     1     -21.006   4.230  -0.200  1.00  0.00     0.071 A
HETATM   15 CL1  UNL     1     -21.450   3.539   1.356  1.00  0.00    -0.081 Cl
HETATM   16  C10 UNL     1     -21.560   3.602  -1.322  1.00  0.00     0.050 A
HETATM   17  C11 UNL     1     -21.215   4.098  -2.552  1.00  0.00     0.037 A
HETATM   18 CL2  UNL     1     -21.909   3.308  -3.959  1.00  0.00    -0.084 Cl
HETATM   19  C12 UNL     1     -20.354   5.179  -2.670  1.00  0.00     0.050 A
HETATM   20  C13 UNL     1     -19.818   5.787  -1.578  1.00  0.00     0.071 A
HETATM   21 CL3  UNL     1     -18.730   7.159  -1.773  1.00  0.00    -0.081 Cl
ENDBRANCH  12  13
ENDBRANCH   1  12
TORSDOF 9
ENDMDL