MODEL 2
REMARK VINA RESULT: -7.741179276      3.217      6.928
REMARK  10 active torsions:
REMARK  status: ('A' for Active; 'I' for Inactive)
REMARK    1  A    between atoms: O1_1  and  C1_3
REMARK    2  A    between atoms: C1_3  and  C2_4
REMARK    3  A    between atoms: C2_4  and  C3_5
REMARK    4  A    between atoms: C3_5  and  C4_6
REMARK    5  A    between atoms: C4_6  and  N1_7
REMARK    6  A    between atoms: N1_7  and  C5_10
REMARK    7  A    between atoms: C5_10  and  C6_11
REMARK    8  A    between atoms: C6_11  and  O2_12
REMARK    9  A    between atoms: C6_11  and  C7_14
REMARK   10  A    between atoms: C7_14  and  C8_15
ROOT
HETATM    1  C6  UNL     1     -19.675   7.614   1.349  1.00  0.00     0.158 C
ENDROOT
BRANCH   1   2
HETATM    2  C5  UNL     1     -19.736   8.025  -0.083  1.00  0.00     0.264 C
BRANCH   2   3
HETATM    3  N1  UNL     1     -19.456   9.430  -0.288  1.00  0.00    -0.073 N
ATOM      4  H12 UNL     1     -18.506   9.658   0.002  1.00  0.00     0.277 HD
ATOM      5  H11 UNL     1     -19.976  10.005   0.375  1.00  0.00     0.277 HD
BRANCH   3   6
HETATM    6  C4  UNL     1     -19.695   9.857  -1.629  1.00  0.00     0.232 C
BRANCH   6   7
HETATM    7  C3  UNL     1     -19.340  11.309  -1.828  1.00  0.00     0.029 C
BRANCH   7   8
HETATM    8  C2  UNL     1     -19.778  12.181  -0.676  1.00  0.00     0.028 C
BRANCH   8   9
HETATM    9  C1  UNL     1     -20.537  13.408  -1.200  1.00  0.00     0.164 C
BRANCH   9  10
HETATM   10  O1  UNL     1     -20.464  13.396  -2.584  1.00  0.00    -0.401 OA
ATOM     11  H1  UNL     1     -20.806  14.223  -2.902  1.00  0.00     0.209 HD
ENDBRANCH   9  10
ENDBRANCH   8   9
ENDBRANCH   7   8
ENDBRANCH   6   7
ENDBRANCH   3   6
ENDBRANCH   2   3
ENDBRANCH   1   2
BRANCH   1  12
HETATM   12  O2  UNL     1     -20.112   8.710   2.098  1.00  0.00    -0.393 OA
ATOM     13  H2  UNL     1     -19.670   8.659   2.937  1.00  0.00     0.210 HD
ENDBRANCH   1  12
BRANCH   1  14
HETATM   14  C7  UNL     1     -20.324   6.318   1.717  1.00  0.00     0.057 C
HETATM   15  C14 UNL     1     -21.658   6.223   0.993  1.00  0.00     0.024 C
HETATM   16  C15 UNL     1     -21.351   4.769   0.731  1.00  0.00     0.081 C
HETATM   17  C16 UNL     1     -19.908   5.202   0.829  1.00  0.00     0.254 C
HETATM   18  F1  UNL     1     -19.508   5.638  -0.413  1.00  0.00    -0.205 F
HETATM   19  F2  UNL     1     -19.029   4.278   1.286  1.00  0.00    -0.205 F
BRANCH  14  20
HETATM   20  C8  UNL     1     -20.485   6.004   3.167  1.00  0.00     0.002 C
HETATM   21  C9  UNL     1     -19.212   6.075   3.963  1.00  0.00     0.005 C
HETATM   22  C10 UNL     1     -19.372   6.033   5.429  1.00  0.00     0.000 C
HETATM   23  C11 UNL     1     -20.522   5.170   5.869  1.00  0.00     0.000 C
HETATM   24  C12 UNL     1     -20.674   4.092   4.785  1.00  0.00     0.000 C
HETATM   25  C13 UNL     1     -21.260   4.832   3.595  1.00  0.00     0.005 C
ENDBRANCH  14  20
ENDBRANCH   1  14
TORSDOF 10
ENDMDL