MODEL 3
REMARK VINA RESULT: -6.293638288      4.906      7.390
REMARK  8 active torsions:
REMARK  status: ('A' for Active; 'I' for Inactive)
REMARK    1  A    between atoms: C2_2  and  C3_3
REMARK    2  A    between atoms: C3_3  and  C4_4
REMARK    3  A    between atoms: C4_4  and  N1_6
REMARK    4  A    between atoms: N1_6  and  C6_8
REMARK    5  A    between atoms: C6_8  and  C7_9
REMARK    6  A    between atoms: C6_8  and  C8_12
REMARK    7  A    between atoms: C7_9  and  O1_10
REMARK    8  A    between atoms: N2_13  and  C9_15
ROOT
HETATM    1  C8  UNL     1     -19.065   8.386   0.746  1.00  0.00     0.083 C
HETATM    2  N2  UNL     1     -19.772   7.962   1.836  1.00  0.00    -0.386 N
ATOM      3  H2  UNL     1     -20.016   8.693   2.504  1.00  0.00     0.159 HD
ENDROOT
BRANCH   1   4
HETATM    4  C6  UNL     1     -19.791   8.648  -0.561  1.00  0.00     0.138 C
BRANCH   4   5
HETATM    5  N1  UNL     1     -19.018   8.092  -1.582  1.00  0.00    -0.407 N
ATOM      6  H1  UNL     1     -18.330   8.727  -1.986  1.00  0.00     0.154 HD
BRANCH   5   7
HETATM    7  C4  UNL     1     -19.024   6.847  -2.132  1.00  0.00     0.073 C
HETATM    8  C5  UNL     1     -19.384   7.074  -3.644  1.00  0.00     0.031 C
BRANCH   7   9
HETATM    9  C3  UNL     1     -19.875   5.723  -1.683  1.00  0.00     0.024 C
BRANCH   9  10
HETATM   10  C2  UNL     1     -20.490   4.994  -2.886  1.00  0.00    -0.003 C
HETATM   11  C1  UNL     1     -21.318   3.828  -2.480  1.00  0.00     0.005 C
ENDBRANCH   9  10
ENDBRANCH   7   9
ENDBRANCH   5   7
ENDBRANCH   4   5
BRANCH   4  12
HETATM   12  C7  UNL     1     -19.789  10.181  -0.762  1.00  0.00     0.194 C
BRANCH  12  13
HETATM   13  O1  UNL     1     -19.837  10.557  -2.082  1.00  0.00    -0.398 OA
ATOM     14  H1  UNL     1     -19.391  11.377  -2.257  1.00  0.00     0.209 HD
ENDBRANCH  12  13
ENDBRANCH   4  12
ENDBRANCH   1   4
BRANCH   2  15
HETATM   15  C9  UNL     1     -20.205   6.690   2.172  1.00  0.00     0.095 C
HETATM   16  C10 UNL     1     -21.583   6.386   1.465  1.00  0.00     0.037 C
HETATM   17  C11 UNL     1     -21.645   4.901   1.181  1.00  0.00     0.007 C
HETATM   18  C12 UNL     1     -20.819   4.124   2.203  1.00  0.00    -0.009 C
HETATM   19  C13 UNL     1     -19.374   4.321   1.760  1.00  0.00     0.007 C
HETATM   20  C15 UNL     1     -20.907   4.762   3.546  1.00  0.00     0.086 C
HETATM   21  C14 UNL     1     -19.228   5.760   1.455  1.00  0.00     0.037 C
HETATM   22  C16 UNL     1     -20.404   6.222   3.550  1.00  0.00     0.268 C
HETATM   23  F1  UNL     1     -21.450   6.858   4.221  1.00  0.00    -0.204 F
HETATM   24  F2  UNL     1     -19.286   6.322   4.331  1.00  0.00    -0.204 F
ENDBRANCH   2  15
TORSDOF 8
ENDMDL