MODEL 2
REMARK VINA RESULT: -7.047191654      2.906      6.474
REMARK  9 active torsions:
REMARK  status: ('A' for Active; 'I' for Inactive)
REMARK    1  A    between atoms: C2_2  and  C3_3
REMARK    2  A    between atoms: C3_3  and  N1_4
REMARK    3  A    between atoms: N1_4  and  C4_6
REMARK    4  A    between atoms: C7_9  and  C8_10
REMARK    5  A    between atoms: C8_10  and  N2_11
REMARK    6  A    between atoms: C8_10  and  C11_17
REMARK    7  A    between atoms: N2_11  and  C9_14
REMARK    8  A    between atoms: C9_14  and  C10_15
REMARK    9  A    between atoms: C11_17  and  O1_19
ROOT
HETATM    1  C4  UNL     1     -21.505   3.690  -1.507  1.00  0.00     0.072 A
HETATM    2  C5  UNL     1     -21.773   3.674  -0.151  1.00  0.00     0.033 A
HETATM    3  C6  UNL     1     -21.162   4.592   0.723  1.00  0.00     0.013 A
HETATM    4  C7  UNL     1     -20.276   5.545   0.326  1.00  0.00    -0.000 A
HETATM    5  C13 UNL     1     -20.014   5.554  -1.049  1.00  0.00     0.083 A
HETATM    6 CL2  UNL     1     -18.920   6.805  -1.666  1.00  0.00    -0.080 Cl
HETATM    7  C14 UNL     1     -20.603   4.666  -1.913  1.00  0.00     0.165 A
HETATM    8  F1  UNL     1     -20.272   4.740  -3.254  1.00  0.00    -0.202 F
ENDROOT
BRANCH   4   9
HETATM    9  C8  UNL     1     -19.498   6.415   1.258  1.00  0.00     0.248 C
BRANCH   9  10
HETATM   10  N2  UNL     1     -19.522   5.737   2.593  1.00  0.00    -0.063 N
ATOM     11  H22 UNL     1     -20.153   4.935   2.583  1.00  0.00     0.278 HD
ATOM     12  H21 UNL     1     -18.642   5.253   2.772  1.00  0.00     0.278 HD
BRANCH  10  13
HETATM   13  C9  UNL     1     -19.837   6.608   3.644  1.00  0.00     0.248 C
BRANCH  13  14
HETATM   14  C10 UNL     1     -20.838   5.982   4.621  1.00  0.00     0.142 C
HETATM   15 CL1  UNL     1     -21.134   4.279   4.311  1.00  0.00    -0.129 Cl
ENDBRANCH  13  14
ENDBRANCH  10  13
ENDBRANCH   9  10
BRANCH   9  16
HETATM   16  C11 UNL     1     -20.092   7.786   1.513  1.00  0.00     0.149 C
HETATM   17  C12 UNL     1     -21.561   7.696   1.262  1.00  0.00     0.042 C
BRANCH  16  18
HETATM   18  O1  UNL     1     -19.521   8.816   0.844  1.00  0.00    -0.394 OA
ATOM     19  H1  UNL     1     -19.848   9.683   1.054  1.00  0.00     0.210 HD
ENDBRANCH  16  18
ENDBRANCH   9  16
ENDBRANCH   4   9
BRANCH   1  20
HETATM   20  N1  UNL     1     -22.108   2.867  -2.463  1.00  0.00    -0.363 N
ATOM     21  H1  UNL     1     -21.418   2.258  -2.903  1.00  0.00     0.165 HD
BRANCH  20  22
HETATM   22  C3  UNL     1     -23.364   2.638  -2.985  1.00  0.00     0.087 C
BRANCH  22  23
HETATM   23  C2  UNL     1     -23.545   2.695  -4.434  1.00  0.00     0.007 C
HETATM   24  C1  UNL     1     -22.516   3.141  -5.151  1.00  0.00     0.012 C
ENDBRANCH  22  23
ENDBRANCH  20  22
ENDBRANCH   1  20
TORSDOF 9
ENDMDL