MODEL 1
REMARK VINA RESULT: -7.520195960      0.000      0.000
REMARK  9 active torsions:
REMARK  status: ('A' for Active; 'I' for Inactive)
REMARK    1  A    between atoms: N1_2  and  C2_4
REMARK    2  A    between atoms: C5_8  and  C6_9
REMARK    3  A    between atoms: C6_9  and  C7_10
REMARK    4  A    between atoms: C7_10  and  C8_11
REMARK    5  A    between atoms: C8_11  and  N2_12
REMARK    6  A    between atoms: N2_12  and  C9_14
REMARK    7  A    between atoms: C9_14  and  C10_15
REMARK    8  A    between atoms: C9_14  and  C11_18
REMARK    9  A    between atoms: C10_15  and  O1_16
ROOT
HETATM    1  C2  UNL     1     -20.075   5.326  -0.361  1.00  0.00     0.072 A
HETATM    2  C3  UNL     1     -20.344   4.277   0.489  1.00  0.00     0.062 A
HETATM    3 CL1  UNL     1     -20.350   2.606  -0.103  1.00  0.00    -0.082 Cl
HETATM    4  C4  UNL     1     -20.612   4.557   1.831  1.00  0.00     0.034 A
HETATM    5  C5  UNL     1     -20.614   5.840   2.320  1.00  0.00    -0.049 A
HETATM    6  C12 UNL     1     -20.345   6.885   1.467  1.00  0.00    -0.032 A
HETATM    7  C13 UNL     1     -20.332   8.308   1.946  1.00  0.00     0.050 C
HETATM    8  C14 UNL     1     -20.078   6.613   0.133  1.00  0.00     0.068 A
HETATM    9 CL2  UNL     1     -19.728   7.931  -0.999  1.00  0.00    -0.081 Cl
ENDROOT
BRANCH   5  10
HETATM   10  C6  UNL     1     -20.914   6.100   3.775  1.00  0.00     0.041 C
BRANCH  10  11
HETATM   11  C7  UNL     1     -20.678   4.891   4.607  1.00  0.00     0.024 C
BRANCH  11  12
HETATM   12  C8  UNL     1     -19.802   5.203   5.768  1.00  0.00     0.114 C
BRANCH  12  13
HETATM   13  N2  UNL     1     -20.091   4.496   6.968  1.00  0.00    -0.413 N
ATOM     14  H2  UNL     1     -20.745   3.712   6.985  1.00  0.00     0.153 HD
BRANCH  13  15
HETATM   15  C9  UNL     1     -19.422   4.938   8.145  1.00  0.00     0.128 C
BRANCH  15  16
HETATM   16  C10 UNL     1     -19.474   6.419   8.326  1.00  0.00     0.191 C
BRANCH  16  17
HETATM   17  O1  UNL     1     -20.791   6.797   8.632  1.00  0.00    -0.399 OA
ATOM     18  H1  UNL     1     -20.808   7.724   8.837  1.00  0.00     0.209 HD
ENDBRANCH  16  17
ENDBRANCH  15  16
BRANCH  15  19
HETATM   19  C11 UNL     1     -19.914   4.229   9.398  1.00  0.00     0.248 C
HETATM   20  F1  UNL     1     -19.446   4.904  10.523  1.00  0.00    -0.253 F
ENDBRANCH  15  19
ENDBRANCH  13  15
ENDBRANCH  12  13
ENDBRANCH  11  12
ENDBRANCH  10  11
ENDBRANCH   5  10
BRANCH   1  21
HETATM   21  N1  UNL     1     -19.803   5.032  -1.725  1.00  0.00    -0.392 N
HETATM   22  C1  UNL     1     -20.898   4.576  -2.572  1.00  0.00     0.146 C
ATOM     23  H1  UNL     1     -18.861   5.138  -2.103  1.00  0.00     0.159 HD
ENDBRANCH   1  21
TORSDOF 9
ENDMDL