MODEL 5
REMARK VINA RESULT: -6.477248045      4.435      6.041
REMARK  9 active torsions:
REMARK  status: ('A' for Active; 'I' for Inactive)
REMARK    1  A    between atoms: C2_2  and  C3_3
REMARK    2  A    between atoms: C3_3  and  C4_4
REMARK    3  A    between atoms: C4_4  and  C5_5
REMARK    4  A    between atoms: C5_5  and  C6_6
REMARK    5  A    between atoms: C5_5  and  N1_8
REMARK    6  A    between atoms: N1_8  and  C7_11
REMARK    7  A    between atoms: C7_11  and  C8_12
REMARK    8  A    between atoms: C8_12  and  O1_13
REMARK    9  A    between atoms: C8_12  and  C9_15
ROOT
HETATM    1  C8  UNL     1     -20.873   3.082  -2.452  1.00  0.00     0.195 C
ENDROOT
BRANCH   1   2
HETATM    2  C7  UNL     1     -20.784   4.063  -1.381  1.00  0.00     0.270 C
BRANCH   2   3
HETATM    3  N1  UNL     1     -20.068   5.265  -1.330  1.00  0.00    -0.066 N
ATOM      4  H12 UNL     1     -20.487   6.024  -1.868  1.00  0.00     0.277 HD
ATOM      5  H11 UNL     1     -19.183   5.246  -1.834  1.00  0.00     0.277 HD
BRANCH   3   6
HETATM    6  C5  UNL     1     -19.933   5.555   0.136  1.00  0.00     0.214 C
BRANCH   6   7
HETATM    7  C4  UNL     1     -20.931   4.818   0.933  1.00  0.00     0.035 C
BRANCH   7   8
HETATM    8  C3  UNL     1     -20.845   5.125   2.383  1.00  0.00     0.002 C
BRANCH   8   9
HETATM    9  C2  UNL     1     -21.135   3.958   3.311  1.00  0.00    -0.004 C
HETATM   10  C1  UNL     1     -20.840   4.523   4.714  1.00  0.00     0.005 C
ENDBRANCH   8   9
ENDBRANCH   7   8
ENDBRANCH   6   7
BRANCH   6  11
HETATM   11  C6  UNL     1     -20.032   7.051   0.202  1.00  0.00     0.255 C
HETATM   12  F1  UNL     1     -19.067   7.568   1.077  1.00  0.00    -0.253 F
ENDBRANCH   6  11
ENDBRANCH   3   6
ENDBRANCH   2   3
ENDBRANCH   1   2
BRANCH   1  13
HETATM   13  O1  UNL     1     -20.110   1.915  -2.185  1.00  0.00    -0.388 OA
ATOM     14  H1  UNL     1     -20.639   1.206  -1.839  1.00  0.00     0.210 HD
ENDBRANCH   1  13
BRANCH   1  15
HETATM   15  C9  UNL     1     -22.220   2.630  -2.913  1.00  0.00     0.064 A
HETATM   16  N2  UNL     1     -23.425   2.608  -2.326  1.00  0.00    -0.358 N
HETATM   17  C10 UNL     1     -24.382   2.292  -3.250  1.00  0.00     0.029 A
ATOM     18  H2  UNL     1     -23.602   2.798  -1.340  1.00  0.00     0.165 HD
HETATM   19  C11 UNL     1     -25.843   2.184  -3.159  1.00  0.00     0.070 C
HETATM   20  C12 UNL     1     -23.764   2.102  -4.484  1.00  0.00     0.080 A
HETATM   21 CL1  UNL     1     -24.490   1.664  -6.041  1.00  0.00    -0.080 Cl
HETATM   22  C13 UNL     1     -22.426   2.315  -4.274  1.00  0.00     0.083 A
HETATM   23 CL2  UNL     1     -21.158   2.144  -5.494  1.00  0.00    -0.080 Cl
ENDBRANCH   1  15
TORSDOF 9
ENDMDL