MODEL 2
REMARK VINA RESULT: -7.140810185      1.226      1.695
REMARK  10 active torsions:
REMARK  status: ('A' for Active; 'I' for Inactive)
REMARK    1  A    between atoms: C2_2  and  C3_3
REMARK    2  A    between atoms: C5_5  and  C6_6
REMARK    3  A    between atoms: C9_10  and  C10_11
REMARK    4  A    between atoms: C10_11  and  N1_12
REMARK    5  A    between atoms: N1_12  and  C11_14
REMARK    6  A    between atoms: C11_14  and  C12_15
REMARK    7  A    between atoms: C12_15  and  N2_16
REMARK    8  A    between atoms: C14_21  and  O1_22
REMARK    9  A    between atoms: O1_22  and  C15_23
REMARK   10  A    between atoms: C15_23  and  O2_24
ROOT
HETATM    1  C6  UNL     1      12.687  61.785  22.979  1.00  0.00     0.002 A
HETATM    2  C7  UNL     1      12.503  62.998  22.262  1.00  0.00     0.044 A
HETATM    3 CL1  UNL     1      10.922  63.281  21.504  1.00  0.00    -0.084 Cl
HETATM    4  C8  UNL     1      13.501  63.914  22.165  1.00  0.00     0.033 A
HETATM    5  C9  UNL     1      14.745  63.719  22.754  1.00  0.00    -0.037 A
HETATM    6  C13 UNL     1      14.931  62.558  23.452  1.00  0.00     0.046 A
HETATM    7  C14 UNL     1      13.916  61.589  23.573  1.00  0.00     0.083 A
ENDROOT
BRANCH   5   8
HETATM    8  C10 UNL     1      15.842  64.707  22.492  1.00  0.00     0.153 C
BRANCH   8   9
HETATM    9  N1  UNL     1      17.019  63.944  22.156  1.00  0.00    -0.416 N
ATOM     10  H1  UNL     1      17.596  63.495  22.868  1.00  0.00     0.153 HD
BRANCH   9  11
HETATM   11  C11 UNL     1      17.322  63.857  20.770  1.00  0.00     0.141 C
BRANCH  11  12
HETATM   12  C12 UNL     1      16.932  62.643  20.006  1.00  0.00     0.248 C
BRANCH  12  13
HETATM   13  N2  UNL     1      15.651  62.661  19.371  1.00  0.00    -0.078 N
ATOM     14  H23 UNL     1      15.308  61.705  19.269  1.00  0.00     0.274 HD
ATOM     15  H22 UNL     1      14.957  63.042  20.015  1.00  0.00     0.274 HD
ATOM     16  H21 UNL     1      15.584  63.144  18.476  1.00  0.00     0.274 HD
ENDBRANCH  12  13
ENDBRANCH  11  12
ENDBRANCH   9  11
ENDBRANCH   8   9
ENDBRANCH   5   8
BRANCH   7  17
HETATM   17  O1  UNL     1      14.152  60.437  24.279  1.00  0.00    -0.293 OA
BRANCH  17  18
HETATM   18  C15 UNL     1      14.500  60.185  25.580  1.00  0.00     0.460 C
HETATM   19  F1  UNL     1      14.115  58.973  26.092  1.00  0.00    -0.189 F
BRANCH  18  20
HETATM   20  O2  UNL     1      15.924  60.258  25.742  1.00  0.00    -0.346 OA
ATOM     21  H2  UNL     1      16.359  60.130  24.908  1.00  0.00     0.215 HD
ENDBRANCH  18  20
ENDBRANCH  17  18
ENDBRANCH   7  17
BRANCH   1  22
HETATM   22  C5  UNL     1      11.619  60.819  22.932  1.00  0.00     0.027 A
HETATM   23  C3  UNL     1      11.535  59.644  23.885  1.00  0.00    -0.006 A
HETATM   24  C4  UNL     1      10.433  60.703  23.755  1.00  0.00     0.015 A
BRANCH  23  25
HETATM   25  C2  UNL     1      11.313  58.286  23.240  1.00  0.00     0.001 C
HETATM   26  C1  UNL     1      12.481  57.399  23.408  1.00  0.00     0.005 C
ENDBRANCH  23  25
ENDBRANCH   1  22
TORSDOF 10
ENDMDL