MODEL 1
REMARK VINA RESULT: -5.766879114      0.000      0.000
REMARK  9 active torsions:
REMARK  status: ('A' for Active; 'I' for Inactive)
REMARK    1  A    between atoms: N1_1  and  C1_5
REMARK    2  A    between atoms: C1_5  and  C2_6
REMARK    3  A    between atoms: C2_6  and  C3_7
REMARK    4  A    between atoms: C3_7  and  S1_8
REMARK    5  A    between atoms: S1_8  and  C4_9
REMARK    6  A    between atoms: C4_9  and  N2_10
REMARK    7  A    between atoms: C4_9  and  C7_15
REMARK    8  A    between atoms: N2_10  and  C5_12
REMARK    9  A    between atoms: C5_12  and  C6_13
ROOT
HETATM    1  C4  UNL     1      11.284  61.991  23.536  1.00  0.00     0.191 C
ENDROOT
BRANCH   1   2
HETATM    2  S1  UNL     1      12.047  62.629  22.057  1.00  0.00    -0.138 SA
BRANCH   2   3
HETATM    3  C3  UNL     1      10.909  63.467  20.946  1.00  0.00     0.078 C
BRANCH   3   4
HETATM    4  C2  UNL     1      11.162  62.980  19.538  1.00  0.00     0.037 C
BRANCH   4   5
HETATM    5  C1  UNL     1      10.823  64.043  18.514  1.00  0.00     0.230 C
BRANCH   5   6
HETATM    6  N1  UNL     1       9.983  63.476  17.477  1.00  0.00    -0.079 N
ATOM      7  H13 UNL     1      10.491  62.818  16.888  1.00  0.00     0.274 HD
ATOM      8  H12 UNL     1       9.290  62.831  17.857  1.00  0.00     0.274 HD
ATOM      9  H11 UNL     1       9.553  64.224  16.933  1.00  0.00     0.274 HD
ENDBRANCH   5   6
ENDBRANCH   4   5
ENDBRANCH   3   4
ENDBRANCH   2   3
ENDBRANCH   1   2
BRANCH   1  10
HETATM   10  N2  UNL     1       9.910  62.327  23.718  1.00  0.00    -0.403 N
ATOM     11  H2  UNL     1       9.153  61.761  23.334  1.00  0.00     0.154 HD
BRANCH  10  12
HETATM   12  C5  UNL     1       9.667  63.525  24.485  1.00  0.00     0.130 C
BRANCH  12  13
HETATM   13  C6  UNL     1       8.635  63.319  25.566  1.00  0.00     0.134 C
HETATM   14 CL1  UNL     1       7.002  63.492  24.841  1.00  0.00    -0.129 Cl
ENDBRANCH  12  13
ENDBRANCH  10  12
ENDBRANCH   1  10
BRANCH   1  15
HETATM   15  C7  UNL     1      11.371  60.492  23.556  1.00  0.00     0.065 A
HETATM   16  N3  UNL     1      10.418  59.580  23.368  1.00  0.00    -0.346 N
HETATM   17  C8  UNL     1      10.946  58.346  23.476  1.00  0.00     0.105 A
ATOM     18  H3  UNL     1       9.438  59.786  23.172  1.00  0.00     0.167 HD
HETATM   19 CL2  UNL     1      10.056  56.864  23.303  1.00  0.00    -0.065 Cl
HETATM   20  C9  UNL     1      12.298  58.459  23.745  1.00  0.00     0.068 A
HETATM   21  C10 UNL     1      12.549  59.816  23.792  1.00  0.00     0.062 A
HETATM   22 CL3  UNL     1      14.124  60.509  24.106  1.00  0.00    -0.082 Cl
ENDBRANCH   1  15
TORSDOF 9
ENDMDL