MODEL 5
REMARK VINA RESULT: -6.477294669      3.037      7.874
REMARK  9 active torsions:
REMARK  status: ('A' for Active; 'I' for Inactive)
REMARK    1  A    between atoms: C2_2  and  C3_3
REMARK    2  A    between atoms: C3_3  and  C4_4
REMARK    3  A    between atoms: C4_4  and  N1_5
REMARK    4  A    between atoms: C9_12  and  C10_13
REMARK    5  A    between atoms: C10_13  and  C11_14
REMARK    6  A    between atoms: C11_14  and  N2_16
REMARK    7  A    between atoms: N2_16  and  C13_18
REMARK    8  A    between atoms: C13_18  and  C14_19
REMARK    9  A    between atoms: C15_22  and  N3_23
ROOT
HETATM    1  N1  UNL     1      12.892  54.928  23.077  1.00  0.00    -0.376 N
ATOM      2  H1  UNL     1      13.896  55.066  22.965  1.00  0.00     0.164 HD
HETATM    3  C5  UNL     1      12.225  55.986  23.127  1.00  0.00    -0.010 C
HETATM    4  C6  UNL     1      10.781  55.851  23.289  1.00  0.00     0.089 C
HETATM    5  C7  UNL     1       9.930  56.883  22.632  1.00  0.00     0.175 C
HETATM    6  F1  UNL     1       8.856  57.195  23.432  1.00  0.00    -0.249 F
HETATM    7  C8  UNL     1      10.635  58.050  22.025  1.00  0.00     0.044 C
HETATM    8  C9  UNL     1      11.340  59.006  22.848  1.00  0.00     0.021 C
HETATM    9  C15 UNL     1      12.426  58.354  23.739  1.00  0.00     0.193 C
HETATM   10  C16 UNL     1      13.088  57.221  23.014  1.00  0.00     0.085 C
ENDROOT
BRANCH   8  11
HETATM   11  C10 UNL     1      10.729  60.132  23.551  1.00  0.00     0.031 C
BRANCH  11  12
HETATM   12  C11 UNL     1      10.718  61.490  22.936  1.00  0.00     0.077 C
HETATM   13  C12 UNL     1      10.184  62.531  23.815  1.00  0.00     0.032 C
BRANCH  12  14
HETATM   14  N2  UNL     1      12.011  61.733  22.377  1.00  0.00    -0.393 N
ATOM     15  H2  UNL     1      12.268  61.308  21.486  1.00  0.00     0.159 HD
BRANCH  14  16
HETATM   16  C13 UNL     1      12.922  62.549  23.047  1.00  0.00     0.126 C
BRANCH  16  17
HETATM   17  C14 UNL     1      14.244  61.970  23.436  1.00  0.00     0.391 C
HETATM   18  F2  UNL     1      15.206  62.843  23.811  1.00  0.00    -0.209 F
HETATM   19  F3  UNL     1      14.012  61.119  24.528  1.00  0.00    -0.209 F
ENDBRANCH  16  17
ENDBRANCH  14  16
ENDBRANCH  12  14
ENDBRANCH  11  12
ENDBRANCH   8  11
BRANCH   9  20
HETATM   20  N3  UNL     1      11.910  57.941  25.003  1.00  0.00    -0.074 N
ATOM     21  H33 UNL     1      11.119  57.308  24.891  1.00  0.00     0.274 HD
ATOM     22  H32 UNL     1      12.556  57.311  25.478  1.00  0.00     0.274 HD
ATOM     23  H31 UNL     1      11.666  58.734  25.597  1.00  0.00     0.274 HD
ENDBRANCH   9  20
BRANCH   1  24
HETATM   24  C4  UNL     1      12.494  53.585  23.148  1.00  0.00     0.060 C
BRANCH  24  25
HETATM   25  C3  UNL     1      13.494  52.584  22.658  1.00  0.00     0.044 C
BRANCH  25  26
HETATM   26  C2  UNL     1      14.401  52.238  23.847  1.00  0.00     0.001 C
HETATM   27  C1  UNL     1      14.865  50.809  23.617  1.00  0.00     0.005 C
ENDBRANCH  25  26
ENDBRANCH  24  25
ENDBRANCH   1  24
TORSDOF 9
ENDMDL