MODEL 1
REMARK VINA RESULT: -8.070935510      0.000      0.000
REMARK  10 active torsions:
REMARK  status: ('A' for Active; 'I' for Inactive)
REMARK    1  A    between atoms: C2_2  and  C4_4
REMARK    2  A    between atoms: C4_4  and  C5_5
REMARK    3  A    between atoms: C5_5  and  O1_6
REMARK    4  A    between atoms: C5_5  and  C6_8
REMARK    5  A    between atoms: C6_8  and  C7_9
REMARK    6  A    between atoms: C6_8  and  N1_12
REMARK    7  A    between atoms: C7_9  and  O2_10
REMARK    8  A    between atoms: N1_12  and  C8_14
REMARK    9  A    between atoms: C8_14  and  C9_15
REMARK   10  A    between atoms: C9_15  and  C11_17
ROOT
HETATM    1  N1  UNL     1      13.254  61.012  23.977  1.00  0.00    -0.393 N
ATOM      2  H1  UNL     1      12.511  61.325  24.602  1.00  0.00     0.159 HD
ENDROOT
BRANCH   1   3
HETATM    3  C6  UNL     1      13.776  61.918  23.029  1.00  0.00     0.133 C
BRANCH   3   4
HETATM    4  C5  UNL     1      12.787  62.900  22.472  1.00  0.00     0.143 C
BRANCH   4   5
HETATM    5  C4  UNL     1      11.389  62.408  22.766  1.00  0.00     0.037 C
BRANCH   5   6
HETATM    6  C2  UNL     1      10.631  63.388  23.654  1.00  0.00    -0.020 C
HETATM    7  C1  UNL     1      10.134  64.582  22.909  1.00  0.00     0.009 C
HETATM    8  C3  UNL     1       9.393  62.621  24.139  1.00  0.00     0.009 C
ENDBRANCH   5   6
ENDBRANCH   4   5
BRANCH   4   9
HETATM    9  O1  UNL     1      12.945  63.247  21.156  1.00  0.00    -0.393 OA
ATOM     10  H1  UNL     1      13.091  64.180  21.048  1.00  0.00     0.210 HD
ENDBRANCH   4   9
ENDBRANCH   3   4
BRANCH   3  11
HETATM   11  C7  UNL     1      15.039  62.598  23.409  1.00  0.00     0.191 C
BRANCH  11  12
HETATM   12  O2  UNL     1      16.206  61.959  23.030  1.00  0.00    -0.399 OA
ATOM     13  H2  UNL     1      16.733  62.409  22.381  1.00  0.00     0.209 HD
ENDBRANCH  11  12
ENDBRANCH   3  11
ENDBRANCH   1   3
BRANCH   1  14
HETATM   14  C8  UNL     1      13.719  59.701  24.086  1.00  0.00     0.060 C
BRANCH  14  15
HETATM   15  C9  UNL     1      12.617  58.681  24.295  1.00  0.00     0.024 C
HETATM   16  C10 UNL     1      11.379  59.341  24.809  1.00  0.00     0.016 C
BRANCH  15  17
HETATM   17  C11 UNL     1      12.417  57.744  23.140  1.00  0.00    -0.000 C
HETATM   18  C12 UNL     1      12.872  56.348  23.532  1.00  0.00     0.005 C
HETATM   19  C13 UNL     1      12.444  55.338  22.461  1.00  0.00     0.006 C
HETATM   20  C14 UNL     1      10.953  55.239  22.583  1.00  0.00     0.079 C
HETATM   21  C15 UNL     1      10.256  56.546  22.558  1.00  0.00     0.244 C
HETATM   22  F1  UNL     1       9.384  56.518  21.455  1.00  0.00    -0.206 F
HETATM   23  F2  UNL     1       9.386  56.595  23.659  1.00  0.00    -0.206 F
HETATM   24  C16 UNL     1      11.103  57.773  22.475  1.00  0.00     0.084 C
ENDBRANCH  15  17
ENDBRANCH  14  15
ENDBRANCH   1  14
TORSDOF 10
ENDMDL