MODEL 2
REMARK VINA RESULT: -7.205037558      1.611      2.355
REMARK  10 active torsions:
REMARK  status: ('A' for Active; 'I' for Inactive)
REMARK    1  A    between atoms: C2_2  and  C4_4
REMARK    2  A    between atoms: C4_4  and  C5_6
REMARK    3  A    between atoms: C5_6  and  O1_7
REMARK    4  A    between atoms: C5_6  and  C6_9
REMARK    5  A    between atoms: C6_9  and  N1_11
REMARK    6  A    between atoms: N1_11  and  C8_14
REMARK    7  A    between atoms: C8_14  and  C9_15
REMARK    8  A    between atoms: C9_15  and  O2_17
REMARK    9  A    between atoms: C9_15  and  C11_19
REMARK   10  A    between atoms: C11_19  and  C12_20
ROOT
HETATM    1  N1  UNL     1      11.220  61.160  22.744  1.00  0.00    -0.066 N
ATOM      2  H11 UNL     1      12.178  60.850  22.583  1.00  0.00     0.277 HD
ATOM      3  H12 UNL     1      10.889  61.191  21.780  1.00  0.00     0.277 HD
ENDROOT
BRANCH   1   4
HETATM    4  C6  UNL     1      11.198  62.494  23.345  1.00  0.00     0.213 C
HETATM    5  C7  UNL     1       9.812  62.692  23.847  1.00  0.00     0.043 C
BRANCH   4   6
HETATM    6  C5  UNL     1      11.693  63.491  22.334  1.00  0.00     0.182 C
BRANCH   6   7
HETATM    7  C4  UNL     1      10.855  63.605  21.104  1.00  0.00     0.204 C
HETATM    8  F1  UNL     1      10.185  64.815  21.141  1.00  0.00    -0.246 F
BRANCH   7   9
HETATM    9  C2  UNL     1      11.532  63.459  19.794  1.00  0.00     0.014 C
HETATM   10  C1  UNL     1      11.075  62.230  19.034  1.00  0.00     0.012 C
HETATM   11  C3  UNL     1      13.030  63.269  20.078  1.00  0.00     0.012 C
ENDBRANCH   7   9
ENDBRANCH   6   7
BRANCH   6  12
HETATM   12  O1  UNL     1      11.464  64.752  23.001  1.00  0.00    -0.391 OA
ATOM     13  H1  UNL     1      11.255  65.338  22.282  1.00  0.00     0.210 HD
ENDBRANCH   6  12
ENDBRANCH   4   6
ENDBRANCH   1   4
BRANCH   1  14
HETATM   14  C8  UNL     1      10.485  60.179  23.506  1.00  0.00     0.270 C
BRANCH  14  15
HETATM   15  C9  UNL     1      11.378  59.036  23.940  1.00  0.00     0.079 C
HETATM   16  C10 UNL     1      11.812  59.374  25.362  1.00  0.00     0.047 C
BRANCH  15  17
HETATM   17  O2  UNL     1      12.544  59.045  23.174  1.00  0.00    -0.389 OA
ATOM     18  H2  UNL     1      13.209  58.524  23.608  1.00  0.00     0.210 HD
ENDBRANCH  15  17
BRANCH  15  19
HETATM   19  C11 UNL     1      10.620  57.760  23.890  1.00  0.00     0.048 C
BRANCH  19  20
HETATM   20  C12 UNL     1      11.137  56.818  22.820  1.00  0.00    -0.030 C
HETATM   21  C13 UNL     1      10.546  57.093  21.453  1.00  0.00     0.015 C
HETATM   22  C14 UNL     1      12.593  56.511  22.827  1.00  0.00     0.088 C
HETATM   23  C15 UNL     1      12.226  55.031  22.682  1.00  0.00     0.245 C
HETATM   24  F2  UNL     1      12.991  54.206  23.490  1.00  0.00    -0.206 F
HETATM   25  F3  UNL     1      12.234  54.570  21.394  1.00  0.00    -0.206 F
HETATM   26  C16 UNL     1      10.869  55.391  23.233  1.00  0.00     0.088 C
ENDBRANCH  19  20
ENDBRANCH  15  19
ENDBRANCH  14  15
ENDBRANCH   1  14
TORSDOF 10
ENDMDL