MODEL 3
REMARK VINA RESULT: -6.671232711      3.988      6.416
REMARK  9 active torsions:
REMARK  status: ('A' for Active; 'I' for Inactive)
REMARK    1  A    between atoms: C2_2  and  C3_3
REMARK    2  A    between atoms: C3_3  and  C4_4
REMARK    3  A    between atoms: C8_8  and  C9_9
REMARK    4  A    between atoms: C9_9  and  O1_10
REMARK    5  A    between atoms: C9_9  and  C10_12
REMARK    6  A    between atoms: C10_12  and  N1_13
REMARK    7  A    between atoms: N1_13  and  C11_15
REMARK    8  A    between atoms: C11_15  and  C12_16
REMARK    9  A    between atoms: C12_16  and  C13_19
ROOT
HETATM    1  C3  UNL     1      12.099  59.655  24.007  1.00  0.00     0.002 C
HETATM    2  C7  UNL     1      10.663  60.232  24.009  1.00  0.00     0.029 C
HETATM    3  C8  UNL     1      11.206  61.404  23.256  1.00  0.00     0.063 C
HETATM    4  C14 UNL     1      12.616  60.933  23.569  1.00  0.00    -0.003 C
HETATM    5  N2  UNL     1      13.668  61.615  23.378  1.00  0.00    -0.400 N
ATOM      6  H2  UNL     1      13.490  62.555  23.025  1.00  0.00     0.158 HD
HETATM    7  C15 UNL     1      15.016  61.328  23.559  1.00  0.00     0.145 C
ENDROOT
BRANCH   3   8
HETATM    8  C9  UNL     1      10.754  62.668  23.964  1.00  0.00     0.145 C
BRANCH   8   9
HETATM    9  O1  UNL     1       9.298  62.664  23.885  1.00  0.00    -0.393 OA
ATOM     10  H1  UNL     1       9.008  63.342  24.482  1.00  0.00     0.210 HD
ENDBRANCH   8   9
BRANCH   8  11
HETATM   11  C10 UNL     1      11.085  63.850  23.077  1.00  0.00     0.146 C
BRANCH  11  12
HETATM   12  N1  UNL     1      10.319  63.979  21.900  1.00  0.00    -0.414 N
ATOM     13  H1  UNL     1       9.344  63.679  21.873  1.00  0.00     0.153 HD
BRANCH  12  14
HETATM   14  C11 UNL     1      10.941  64.537  20.756  1.00  0.00     0.176 C
BRANCH  14  15
HETATM   15  C12 UNL     1      11.447  63.648  19.696  1.00  0.00     0.219 C
HETATM   16  F1  UNL     1      11.112  62.336  20.109  1.00  0.00    -0.221 F
HETATM   17 CL1  UNL     1      10.568  63.808  18.131  1.00  0.00    -0.078 Cl
BRANCH  15  18
HETATM   18  C13 UNL     1      12.927  63.629  19.484  1.00  0.00     0.284 C
HETATM   19  F2  UNL     1      13.598  63.099  20.567  1.00  0.00    -0.251 F
ENDBRANCH  15  18
ENDBRANCH  14  15
ENDBRANCH  12  14
ENDBRANCH  11  12
ENDBRANCH   8  11
ENDBRANCH   3   8
BRANCH   1  20
HETATM   20  C2  UNL     1      12.382  59.316  25.443  1.00  0.00     0.011 C
HETATM   21  C1  UNL     1      13.748  59.462  25.962  1.00  0.00     0.006 C
ENDBRANCH   1  20
BRANCH   1  22
HETATM   22  C4  UNL     1      12.095  58.488  23.062  1.00  0.00    -0.009 C
HETATM   23  C5  UNL     1      10.809  58.012  22.536  1.00  0.00     0.011 C
HETATM   24  C6  UNL     1      12.809  57.276  23.664  1.00  0.00     0.011 C
ENDBRANCH   1  22
TORSDOF 9
ENDMDL