MODEL 4
REMARK VINA RESULT: -6.489350882      3.672      5.769
REMARK  10 active torsions:
REMARK  status: ('A' for Active; 'I' for Inactive)
REMARK    1  A    between atoms: C2_2  and  C3_3
REMARK    2  A    between atoms: C3_3  and  C4_4
REMARK    3  A    between atoms: C4_4  and  C5_5
REMARK    4  A    between atoms: C5_5  and  C6_6
REMARK    5  A    between atoms: C5_5  and  C13_21
REMARK    6  A    between atoms: C8_11  and  N2_12
REMARK    7  A    between atoms: C9_17  and  C10_18
REMARK    8  A    between atoms: C10_18  and  C11_19
REMARK    9  A    between atoms: C13_21  and  O1_22
REMARK   10  A    between atoms: C13_21  and  C14_24
ROOT
HETATM    1  C6  UNL     1      12.311  62.426  22.216  1.00  0.00     0.040 A
HETATM    2  N1  UNL     1      13.523  63.067  22.170  1.00  0.00    -0.345 N
ATOM      3  H1  UNL     1      13.647  63.873  21.556  1.00  0.00     0.167 HD
HETATM    4  C7  UNL     1      14.542  62.646  22.923  1.00  0.00     0.147 A
HETATM    5 CL1  UNL     1      16.103  63.455  22.885  1.00  0.00    -0.060 Cl
HETATM    6  C8  UNL     1      14.439  61.564  23.774  1.00  0.00     0.138 A
HETATM    7  N3  UNL     1      13.239  60.951  23.804  1.00  0.00    -0.342 N
ATOM      8  H3  UNL     1      13.123  60.147  24.420  1.00  0.00     0.167 HD
HETATM    9  C9  UNL     1      12.168  61.351  23.052  1.00  0.00     0.034 A
ENDROOT
BRANCH   1  10
HETATM   10  C5  UNL     1      11.239  62.801  21.266  1.00  0.00     0.072 C
BRANCH  10  11
HETATM   11  C4  UNL     1      10.716  64.196  21.558  1.00  0.00     0.013 C
BRANCH  11  12
HETATM   12  C3  UNL     1      10.705  64.388  23.069  1.00  0.00     0.000 C
BRANCH  12  13
HETATM   13  C2  UNL     1       9.314  64.315  23.648  1.00  0.00    -0.005 C
HETATM   14  C1  UNL     1       9.301  63.534  24.950  1.00  0.00     0.005 C
ENDBRANCH  12  13
ENDBRANCH  11  12
ENDBRANCH  10  11
BRANCH  10  15
HETATM   15  C13 UNL     1      11.652  62.776  19.839  1.00  0.00     0.193 C
BRANCH  15  16
HETATM   16  O1  UNL     1      12.510  63.763  19.413  1.00  0.00    -0.389 OA
ATOM     17  H1  UNL     1      12.616  63.873  18.475  1.00  0.00     0.210 HD
ENDBRANCH  15  16
BRANCH  15  18
HETATM   18  C14 UNL     1      10.640  62.573  18.782  1.00  0.00     0.382 C
HETATM   19  F1  UNL     1      10.414  63.569  17.899  1.00  0.00    -0.212 F
HETATM   20  F2  UNL     1      10.806  61.333  18.144  1.00  0.00    -0.212 F
ENDBRANCH  15  18
ENDBRANCH  10  15
ENDBRANCH   1  10
BRANCH   9  21
HETATM   21  C10 UNL     1      10.865  60.689  23.285  1.00  0.00     0.059 C
BRANCH  21  22
HETATM   22  C11 UNL     1      11.078  59.272  23.832  1.00  0.00     0.002 C
HETATM   23  C12 UNL     1      11.082  58.274  22.688  1.00  0.00     0.005 C
ENDBRANCH  21  22
ENDBRANCH   9  21
BRANCH   6  24
HETATM   24  N2  UNL     1      15.388  61.126  24.504  1.00  0.00    -0.383 N
ATOM     25  H22 UNL     1      16.055  60.459  24.116  1.00  0.00     0.157 HD
ATOM     26  H21 UNL     1      15.543  61.397  25.474  1.00  0.00     0.157 HD
ENDBRANCH   6  24
TORSDOF 10
ENDMDL