MODEL 5
REMARK VINA RESULT: -6.855989174      1.226      1.324
REMARK  9 active torsions:
REMARK  status: ('A' for Active; 'I' for Inactive)
REMARK    1  A    between atoms: N1_1  and  C1_4
REMARK    2  A    between atoms: C2_7  and  C3_8
REMARK    3  A    between atoms: C5_12  and  O1_13
REMARK    4  A    between atoms: O1_13  and  C6_14
REMARK    5  A    between atoms: C6_14  and  C7_15
REMARK    6  A    between atoms: C7_15  and  C8_16
REMARK    7  A    between atoms: C9_18  and  C10_19
REMARK    8  A    between atoms: C10_19  and  C11_20
REMARK    9  A    between atoms: C11_20  and  C12_21
ROOT
HETATM    1  C1  UNL     1      13.693  60.699  24.125  1.00  0.00     0.108 A
HETATM    2  N2  UNL     1      14.757  61.466  23.766  1.00  0.00    -0.341 N
ATOM      3  H2  UNL     1      15.675  61.252  24.157  1.00  0.00     0.167 HD
HETATM    4  C2  UNL     1      14.637  62.489  22.921  1.00  0.00     0.078 A
HETATM    5  C4  UNL     1      13.396  62.769  22.399  1.00  0.00     0.068 A
HETATM    6  C5  UNL     1      12.291  62.013  22.738  1.00  0.00     0.080 A
HETATM    7  C9  UNL     1      12.422  60.952  23.616  1.00  0.00     0.019 A
ENDROOT
BRANCH   7   8
HETATM    8  C10 UNL     1      11.264  60.111  24.011  1.00  0.00     0.047 C
BRANCH   8   9
HETATM    9  C11 UNL     1      11.129  59.012  23.012  1.00  0.00     0.037 C
BRANCH   9  10
HETATM   10  C12 UNL     1      11.103  57.635  23.636  1.00  0.00     0.186 C
HETATM   11  C13 UNL     1      12.383  56.870  23.389  1.00  0.00     0.034 C
HETATM   12  C14 UNL     1      11.927  55.893  22.299  1.00  0.00     0.029 C
HETATM   13  C15 UNL     1      10.557  55.527  22.837  1.00  0.00     0.233 C
HETATM   14  N3  UNL     1      10.016  56.872  23.072  1.00  0.00    -0.071 N
ATOM     15  H32 UNL     1       9.171  56.879  23.644  1.00  0.00     0.277 HD
ATOM     16  H31 UNL     1       9.604  57.299  22.242  1.00  0.00     0.277 HD
ENDBRANCH   9  10
ENDBRANCH   8   9
ENDBRANCH   7   8
BRANCH   1  17
HETATM   17  N1  UNL     1      13.861  59.717  24.949  1.00  0.00    -0.385 N
ATOM     18  H12 UNL     1      14.805  59.473  25.251  1.00  0.00     0.157 HD
ATOM     19  H11 UNL     1      13.051  59.199  25.290  1.00  0.00     0.157 HD
ENDBRANCH   1  17
BRANCH   6  20
HETATM   20  O1  UNL     1      11.054  62.322  22.193  1.00  0.00    -0.350 OA
BRANCH  20  21
HETATM   21  C6  UNL     1      10.771  63.634  21.765  1.00  0.00     0.178 C
BRANCH  21  22
HETATM   22  C7  UNL     1      10.249  64.469  22.896  1.00  0.00     0.058 C
BRANCH  22  23
HETATM   23  C8  UNL     1       9.872  65.837  22.362  1.00  0.00     0.224 C
HETATM   24  F3  UNL     1       8.519  66.052  22.374  1.00  0.00    -0.255 F
ENDBRANCH  22  23
ENDBRANCH  21  22
ENDBRANCH  20  21
ENDBRANCH   6  20
BRANCH   4  25
HETATM   25  C3  UNL     1      15.799  63.329  22.529  1.00  0.00     0.403 C
HETATM   26  F1  UNL     1      15.928  64.381  23.422  1.00  0.00    -0.208 F
HETATM   27  F2  UNL     1      16.944  62.589  22.512  1.00  0.00    -0.208 F
ENDBRANCH   4  25
TORSDOF 9
ENDMDL