MODEL 5
REMARK VINA RESULT: -6.303991132      3.331      6.000
REMARK  9 active torsions:
REMARK  status: ('A' for Active; 'I' for Inactive)
REMARK    1  A    between atoms: C2_2  and  O1_3
REMARK    2  A    between atoms: O1_3  and  C3_4
REMARK    3  A    between atoms: C3_4  and  C4_5
REMARK    4  A    between atoms: C4_5  and  C5_6
REMARK    5  A    between atoms: C7_8  and  N1_9
REMARK    6  A    between atoms: N1_9  and  C8_11
REMARK    7  A    between atoms: C8_11  and  C11_14
REMARK    8  A    between atoms: C12_17  and  C13_18
REMARK    9  A    between atoms: C15_20  and  N2_21
ROOT
HETATM    1  C5  UNL     1      11.565  62.306  22.746  1.00  0.00     0.015 A
HETATM    2  C6  UNL     1      11.101  61.007  23.008  1.00  0.00     0.055 A
HETATM    3  C7  UNL     1      11.898  60.053  23.577  1.00  0.00     0.040 A
HETATM    4  C12 UNL     1      13.193  60.467  23.874  1.00  0.00     0.011 A
HETATM    5  C15 UNL     1      13.625  61.749  23.607  1.00  0.00     0.107 A
HETATM    6  N3  UNL     1      12.805  62.649  23.047  1.00  0.00    -0.346 N
ATOM      7  H3  UNL     1      13.136  63.594  22.854  1.00  0.00     0.167 HD
ENDROOT
BRANCH   3   8
HETATM    8  N1  UNL     1      11.437  58.765  23.847  1.00  0.00    -0.375 N
ATOM      9  H1  UNL     1      11.188  58.605  24.823  1.00  0.00     0.160 HD
BRANCH   8  10
HETATM   10  C8  UNL     1      11.254  57.640  23.006  1.00  0.00     0.082 C
HETATM   11  C9  UNL     1      10.639  57.878  21.672  1.00  0.00     0.043 C
HETATM   12  C10 UNL     1      10.222  56.698  23.721  1.00  0.00     0.043 C
BRANCH  10  13
HETATM   13  C11 UNL     1      12.508  56.799  22.998  1.00  0.00     0.380 C
HETATM   14  F1  UNL     1      12.476  55.689  22.220  1.00  0.00    -0.212 F
HETATM   15  F2  UNL     1      12.955  56.539  24.284  1.00  0.00    -0.212 F
ENDBRANCH  10  13
ENDBRANCH   8  10
ENDBRANCH   3   8
BRANCH   4  16
HETATM   16  C13 UNL     1      14.126  59.516  24.497  1.00  0.00     0.040 C
HETATM   17  C14 UNL     1      14.011  59.468  26.008  1.00  0.00     0.010 C
ENDBRANCH   4  16
BRANCH   1  18
HETATM   18  C4  UNL     1      10.636  63.312  22.115  1.00  0.00     0.083 C
BRANCH  18  19
HETATM   19  C3  UNL     1      11.222  63.766  20.817  1.00  0.00     0.173 C
BRANCH  19  20
HETATM   20  O1  UNL     1      11.826  62.742  20.128  1.00  0.00    -0.391 OA
BRANCH  20  21
HETATM   21  C2  UNL     1      11.112  62.416  19.002  1.00  0.00     0.163 C
HETATM   22  C1  UNL     1      10.553  63.626  18.268  1.00  0.00     0.033 C
ENDBRANCH  20  21
ENDBRANCH  19  20
ENDBRANCH  18  19
ENDBRANCH   1  18
BRANCH   5  23
HETATM   23  N2  UNL     1      14.825  62.105  23.890  1.00  0.00    -0.385 N
ATOM     24  H22 UNL     1      15.215  62.923  23.420  1.00  0.00     0.157 HD
ATOM     25  H21 UNL     1      15.375  61.580  24.571  1.00  0.00     0.157 HD
ENDBRANCH   5  23
TORSDOF 9
ENDMDL