MODEL 3
REMARK VINA RESULT: -8.526317276      0.869      1.058
REMARK  9 active torsions:
REMARK  status: ('A' for Active; 'I' for Inactive)
REMARK    1  A    between atoms: N1_1  and  C1_4
REMARK    2  A    between atoms: C2_7  and  C3_8
REMARK    3  A    between atoms: C3_8  and  C4_9
REMARK    4  A    between atoms: C4_9  and  C5_10
REMARK    5  A    between atoms: C5_10  and  O1_11
REMARK    6  A    between atoms: O1_11  and  C6_12
REMARK    7  A    between atoms: C6_12  and  C7_13
REMARK    8  A    between atoms: C7_13  and  C8_14
REMARK    9  A    between atoms: C8_14  and  C9_15
ROOT
HETATM    1  C4  UNL     1      10.027  61.910  23.854  1.00  0.00     0.034 C
ENDROOT
BRANCH   1   2
HETATM    2  C3  UNL     1      10.203  63.414  23.840  1.00  0.00     0.080 C
BRANCH   2   3
HETATM    3  C2  UNL     1       8.941  64.084  24.261  1.00  0.00     0.112 A
HETATM    4  N2  UNL     1       7.961  63.639  25.062  1.00  0.00    -0.178 N
HETATM    5  C1  UNL     1       7.009  64.583  25.165  1.00  0.00     0.691 A
ATOM      6  H2  UNL     1       7.941  62.728  25.520  1.00  0.00     0.185 HD
HETATM    7  N4  UNL     1       7.393  65.637  24.420  1.00  0.00    -0.131 N
HETATM    8  N3  UNL     1       8.569  65.314  23.879  1.00  0.00    -0.274 N
ATOM      9  H4  UNL     1       6.885  66.511  24.294  1.00  0.00     0.205 HD
ATOM     10  H3  UNL     1       9.109  65.919  23.261  1.00  0.00     0.189 HD
BRANCH   5  11
HETATM   11  N1  UNL     1       5.899  64.511  25.860  1.00  0.00    -0.233 N
ATOM     12  H12 UNL     1       5.485  63.652  26.221  1.00  0.00     0.174 HD
ATOM     13  H11 UNL     1       5.297  65.286  26.138  1.00  0.00     0.174 HD
ENDBRANCH   5  11
ENDBRANCH   2   3
ENDBRANCH   1   2
BRANCH   1  14
HETATM   14  C5  UNL     1      11.152  61.334  23.024  1.00  0.00     0.168 C
BRANCH  14  15
HETATM   15  O1  UNL     1      11.422  60.013  23.267  1.00  0.00    -0.391 OA
BRANCH  15  16
HETATM   16  C6  UNL     1      11.582  59.664  24.587  1.00  0.00     0.167 C
BRANCH  16  17
HETATM   17  C7  UNL     1      12.715  58.625  24.631  1.00  0.00     0.027 C
BRANCH  17  18
HETATM   18  C8  UNL     1      12.681  57.905  23.328  1.00  0.00     0.013 C
BRANCH  18  19
HETATM   19  C9  UNL     1      12.068  56.527  23.376  1.00  0.00     0.058 C
HETATM   20  C10 UNL     1      13.077  55.559  22.808  1.00  0.00     0.010 C
HETATM   21  C11 UNL     1      12.496  54.188  22.591  1.00  0.00     0.001 C
HETATM   22  C12 UNL     1      11.025  54.139  22.941  1.00  0.00     0.006 C
HETATM   23  C13 UNL     1      10.345  55.195  22.104  1.00  0.00     0.079 C
HETATM   24  C14 UNL     1      10.778  56.539  22.628  1.00  0.00     0.247 C
HETATM   25  F1  UNL     1       9.788  56.969  23.501  1.00  0.00    -0.206 F
HETATM   26  F2  UNL     1      10.779  57.424  21.564  1.00  0.00    -0.206 F
ENDBRANCH  18  19
ENDBRANCH  17  18
ENDBRANCH  16  17
ENDBRANCH  15  16
ENDBRANCH  14  15
ENDBRANCH   1  14
TORSDOF 9
ENDMDL