MODEL 1
REMARK VINA RESULT: -6.862696977      0.000      0.000
REMARK  9 active torsions:
REMARK  status: ('A' for Active; 'I' for Inactive)
REMARK    1  A    between atoms: C1_2  and  C2_4
REMARK    2  A    between atoms: C3_5  and  C4_6
REMARK    3  A    between atoms: C4_6  and  C5_8
REMARK    4  A    between atoms: C4_6  and  C9_19
REMARK    5  A    between atoms: C5_8  and  C6_10
REMARK    6  A    between atoms: C6_10  and  C7_13
REMARK    7  A    between atoms: C7_13  and  C8_16
REMARK    8  A    between atoms: C8_16  and  O2_17
REMARK    9  A    between atoms: C9_19  and  C10_22
ROOT
HETATM    1  C4  UNL     1      63.859  11.195 -23.726  1.00  0.00     0.238 C
HETATM    2  F1  UNL     1      63.359   9.832 -23.368  1.00  0.00    -0.227 F
ENDROOT
BRANCH   1   3
HETATM    3  C3  UNL     1      62.580  11.924 -23.865  1.00  0.00     0.009 A
HETATM    4  C2  UNL     1      62.445  13.271 -23.948  1.00  0.00     0.064 A
HETATM    5  C14 UNL     1      61.139  13.845 -24.083  1.00  0.00     0.090 A
HETATM    6  C13 UNL     1      60.017  13.078 -24.132  1.00  0.00     0.160 A
HETATM    7 CL2  UNL     1      60.930  15.590 -24.178  1.00  0.00    -0.080 Cl
HETATM    8  C12 UNL     1      60.130  11.730 -24.049  1.00  0.00     0.075 A
HETATM    9  F11 UNL     1      58.780  13.619 -24.261  1.00  0.00    -0.203 F
HETATM   10  C11 UNL     1      61.368  11.201 -23.922  1.00  0.00     0.039 A
HETATM   11 CL1  UNL     1      58.725  10.663 -24.103  1.00  0.00    -0.081 Cl
BRANCH   4  12
HETATM   12  C1  UNL     1      63.460  14.239 -23.856  1.00  0.00     0.267 C
HETATM   13  N1  UNL     1      63.615  14.939 -22.574  1.00  0.00    -0.057 NA
HETATM   14  O1  UNL     1      64.269  14.640 -24.648  1.00  0.00    -0.271 OA
ENDBRANCH   4  12
ENDBRANCH   1   3
BRANCH   1  15
HETATM   15  C5  UNL     1      64.612  10.852 -24.911  1.00  0.00     0.299 C
HETATM   16  F2  UNL     1      65.986  11.172 -24.698  1.00  0.00    -0.239 F
BRANCH  15  17
HETATM   17  C6  UNL     1      64.590   9.560 -25.595  1.00  0.00     0.343 C
HETATM   18  F3  UNL     1      65.300   9.826 -26.821  1.00  0.00    -0.196 F
HETATM   19  F4  UNL     1      63.311   9.288 -26.112  1.00  0.00    -0.196 F
BRANCH  17  20
HETATM   20  C7  UNL     1      65.121   8.297 -25.141  1.00  0.00     0.331 C
HETATM   21  F5  UNL     1      65.904   8.226 -24.019  1.00  0.00    -0.197 F
HETATM   22  F6  UNL     1      63.988   7.534 -24.741  1.00  0.00    -0.197 F
BRANCH  20  23
HETATM   23  C8  UNL     1      65.708   7.392 -26.217  1.00  0.00     0.249 C
BRANCH  23  24
HETATM   24  O2  UNL     1      65.243   6.111 -26.053  1.00  0.00    -0.395 OA
ATOM     25  H2  UNL     1      65.844   5.617 -25.508  1.00  0.00     0.209 HD
ENDBRANCH  23  24
ENDBRANCH  20  23
ENDBRANCH  17  20
ENDBRANCH  15  17
ENDBRANCH   1  15
BRANCH   1  26
HETATM   26  C9  UNL     1      64.540  11.447 -22.430  1.00  0.00     0.343 C
HETATM   27  F7  UNL     1      63.477  11.803 -21.469  1.00  0.00    -0.196 F
HETATM   28  F8  UNL     1      65.461  12.449 -22.336  1.00  0.00    -0.196 F
BRANCH  26  29
HETATM   29  C10 UNL     1      65.143  10.290 -21.672  1.00  0.00     0.428 C
HETATM   30  F9  UNL     1      64.912  10.331 -20.310  1.00  0.00    -0.208 F
HETATM   31  F10 UNL     1      66.573  10.448 -21.727  1.00  0.00    -0.208 F
ENDBRANCH  26  29
ENDBRANCH   1  26
TORSDOF 9
ENDMDL