MODEL 2
REMARK VINA RESULT: -8.010981497      1.175      1.751
REMARK  13 active torsions:
REMARK  status: ('A' for Active; 'I' for Inactive)
REMARK    1  A    between atoms: C2_2  and  C3_3
REMARK    2  A    between atoms: C2_2  and  C16_32
REMARK    3  A    between atoms: C3_3  and  C4_5
REMARK    4  A    between atoms: C4_5  and  C6_7
REMARK    5  A    between atoms: C6_7  and  C7_9
REMARK    6  A    between atoms: C7_9  and  C8_12
REMARK    7  A    between atoms: C8_12  and  C9_14
REMARK    8  A    between atoms: C9_14  and  O1_15
REMARK    9  A    between atoms: C9_14  and  C10_17
REMARK   10  A    between atoms: C10_17  and  C11_19
REMARK   11  A    between atoms: C10_17  and  C15_28
REMARK   12  A    between atoms: C11_19  and  C12_21
REMARK   13  A    between atoms: C12_21  and  N1_24
ROOT
HETATM    1  C9  UNL     1      64.024   9.599 -23.844  1.00  0.00     0.214 C
ENDROOT
BRANCH   1   2
HETATM    2  C8  UNL     1      63.563  10.939 -24.120  1.00  0.00     0.277 C
HETATM    3  F5  UNL     1      64.432  11.872 -23.450  1.00  0.00    -0.240 F
BRANCH   2   4
HETATM    4  C7  UNL     1      62.198  11.441 -23.780  1.00  0.00     0.306 C
HETATM    5  F3  UNL     1      61.314  10.337 -24.032  1.00  0.00    -0.200 F
HETATM    6  F4  UNL     1      62.053  11.664 -22.455  1.00  0.00    -0.200 F
BRANCH   4   7
HETATM    7  C6  UNL     1      61.760  12.586 -24.643  1.00  0.00     0.252 C
HETATM    8  F2  UNL     1      62.738  13.541 -24.748  1.00  0.00    -0.242 F
BRANCH   7   9
HETATM    9  C4  UNL     1      60.499  13.276 -24.254  1.00  0.00     0.060 C
HETATM   10  C5  UNL     1      60.604  14.778 -24.129  1.00  0.00     0.016 C
BRANCH   9  11
HETATM   11  C3  UNL     1      59.288  12.822 -24.973  1.00  0.00     0.213 C
HETATM   12  F1  UNL     1      59.593  11.766 -25.812  1.00  0.00    -0.244 F
BRANCH  11  13
HETATM   13  C2  UNL     1      58.136  12.432 -24.147  1.00  0.00     0.050 C
HETATM   14  C1  UNL     1      57.022  13.143 -24.199  1.00  0.00     0.026 C
BRANCH  13  15
HETATM   15  C16 UNL     1      58.157  11.263 -23.235  1.00  0.00     0.415 C
HETATM   16  F11 UNL     1      58.138  10.068 -23.934  1.00  0.00    -0.166 F
HETATM   17  F12 UNL     1      59.172  11.285 -22.309  1.00  0.00    -0.166 F
HETATM   18  F13 UNL     1      56.974  11.225 -22.469  1.00  0.00    -0.166 F
ENDBRANCH  13  15
ENDBRANCH  11  13
ENDBRANCH   9  11
ENDBRANCH   7   9
ENDBRANCH   4   7
ENDBRANCH   2   4
ENDBRANCH   1   2
BRANCH   1  19
HETATM   19  O1  UNL     1      65.142   9.729 -22.883  1.00  0.00    -0.388 OA
ATOM     20  H1  UNL     1      65.105   8.965 -22.321  1.00  0.00     0.210 HD
ENDBRANCH   1  19
BRANCH   1  21
HETATM   21  C10 UNL     1      64.626   8.698 -24.901  1.00  0.00     0.279 C
HETATM   22  F6  UNL     1      65.484   7.803 -24.380  1.00  0.00    -0.223 F
BRANCH  21  23
HETATM   23  C11 UNL     1      65.419   9.699 -25.750  1.00  0.00     0.158 C
HETATM   24  F7  UNL     1      64.675  10.191 -26.766  1.00  0.00    -0.209 F
BRANCH  23  25
HETATM   25  C12 UNL     1      66.788   9.428 -26.139  1.00  0.00     0.169 C
HETATM   26  C13 UNL     1      67.849   9.821 -25.125  1.00  0.00     0.053 C
HETATM   27  C14 UNL     1      67.172   8.191 -26.835  1.00  0.00     0.053 C
BRANCH  25  28
HETATM   28  N1  UNL     1      67.032  10.496 -27.204  1.00  0.00    -0.065 N
ATOM     29  H13 UNL     1      67.859  10.348 -27.784  1.00  0.00     0.275 HD
ATOM     30  H12 UNL     1      66.370  10.493 -27.980  1.00  0.00     0.275 HD
ATOM     31  H11 UNL     1      67.042  11.351 -26.648  1.00  0.00     0.275 HD
ENDBRANCH  25  28
ENDBRANCH  23  25
ENDBRANCH  21  23
BRANCH  21  32
HETATM   32  C15 UNL     1      63.552   8.023 -25.661  1.00  0.00     0.432 C
HETATM   33  F8  UNL     1      62.546   8.830 -26.154  1.00  0.00    -0.167 F
HETATM   34  F9  UNL     1      62.808   7.159 -24.814  1.00  0.00    -0.167 F
HETATM   35  F10 UNL     1      63.979   7.236 -26.702  1.00  0.00    -0.167 F
ENDBRANCH  21  32
ENDBRANCH   1  21
TORSDOF 13
ENDMDL