MODEL 3
REMARK VINA RESULT: -8.421051574      1.819      2.267
REMARK  14 active torsions:
REMARK  status: ('A' for Active; 'I' for Inactive)
REMARK    1  A    between atoms: C2_2  and  C3_4
REMARK    2  A    between atoms: C3_4  and  N1_5
REMARK    3  A    between atoms: C3_4  and  C4_9
REMARK    4  A    between atoms: C4_9  and  C6_11
REMARK    5  A    between atoms: C6_11  and  C7_13
REMARK    6  A    between atoms: C7_13  and  C9_15
REMARK    7  A    between atoms: C9_15  and  O1_16
REMARK    8  A    between atoms: C9_15  and  C10_18
REMARK    9  A    between atoms: C10_18  and  C11_21
REMARK   10  A    between atoms: C11_21  and  O2_22
REMARK   11  A    between atoms: C12_24  and  C13_25
REMARK   12  A    between atoms: C13_25  and  C14_27
REMARK   13  A    between atoms: C14_27  and  C15_29
REMARK   14  A    between atoms: C14_27  and  C16_33
ROOT
HETATM    1  C10 UNL     1      60.359  11.551 -24.446  1.00  0.00     0.316 C
HETATM    2  F3  UNL     1      60.283  10.200 -24.346  1.00  0.00    -0.196 F
HETATM    3  F4  UNL     1      60.897  11.792 -25.703  1.00  0.00    -0.196 F
ENDROOT
BRANCH   1   4
HETATM    4  C9  UNL     1      61.316  12.213 -23.493  1.00  0.00     0.204 C
BRANCH   4   5
HETATM    5  C7  UNL     1      62.569  11.553 -23.198  1.00  0.00     0.051 C
HETATM    6  C8  UNL     1      63.115  12.141 -21.883  1.00  0.00     0.015 C
BRANCH   5   7
HETATM    7  C6  UNL     1      63.675  11.349 -24.104  1.00  0.00     0.182 C
HETATM    8  F2  UNL     1      63.602  12.434 -25.036  1.00  0.00    -0.248 F
BRANCH   7   9
HETATM    9  C4  UNL     1      63.809  10.201 -25.008  1.00  0.00     0.053 C
HETATM   10  C5  UNL     1      63.170   8.913 -24.710  1.00  0.00     0.015 C
BRANCH   9  11
HETATM   11  C3  UNL     1      65.323   9.922 -25.119  1.00  0.00     0.250 C
BRANCH  11  12
HETATM   12  C2  UNL     1      65.863  10.296 -26.452  1.00  0.00     0.115 C
HETATM   13  C1  UNL     1      66.855   9.624 -27.009  1.00  0.00     0.054 C
HETATM   14  F1  UNL     1      65.349  11.348 -27.145  1.00  0.00    -0.209 F
ENDBRANCH  11  12
BRANCH  11  15
HETATM   15  N1  UNL     1      66.023  10.664 -24.112  1.00  0.00    -0.068 N
ATOM     16  H13 UNL     1      65.894  10.272 -23.179  1.00  0.00     0.275 HD
ATOM     17  H12 UNL     1      67.035  10.547 -24.175  1.00  0.00     0.275 HD
ATOM     18  H11 UNL     1      65.739  11.642 -24.166  1.00  0.00     0.275 HD
ENDBRANCH  11  15
ENDBRANCH   9  11
ENDBRANCH   7   9
ENDBRANCH   5   7
ENDBRANCH   4   5
BRANCH   4  19
HETATM   19  O1  UNL     1      61.343  13.569 -23.809  1.00  0.00    -0.389 OA
ATOM     20  H1  UNL     1      61.695  13.827 -24.652  1.00  0.00     0.210 HD
ENDBRANCH   4  19
ENDBRANCH   1   4
BRANCH   1  21
HETATM   21  C11 UNL     1      59.014  12.204 -24.459  1.00  0.00     0.116 C
HETATM   22  C12 UNL     1      58.029  11.805 -23.674  1.00  0.00     0.052 C
BRANCH  21  23
HETATM   23  O2  UNL     1      58.729  13.270 -25.302  1.00  0.00    -0.359 OA
ATOM     24  H2  UNL     1      58.993  13.268 -26.215  1.00  0.00     0.217 HD
ENDBRANCH  21  23
BRANCH  22  25
HETATM   25  C13 UNL     1      56.710  12.438 -23.680  1.00  0.00     0.254 C
HETATM   26  F5  UNL     1      56.745  13.666 -22.984  1.00  0.00    -0.241 F
BRANCH  25  27
HETATM   27  C14 UNL     1      55.572  11.634 -23.145  1.00  0.00     0.329 C
HETATM   28  F6  UNL     1      55.226  12.269 -21.921  1.00  0.00    -0.220 F
BRANCH  27  29
HETATM   29  C15 UNL     1      54.337  11.688 -23.968  1.00  0.00     0.435 C
HETATM   30  F7  UNL     1      53.231  11.668 -23.141  1.00  0.00    -0.167 F
HETATM   31  F8  UNL     1      54.244  10.744 -24.962  1.00  0.00    -0.167 F
HETATM   32  F9  UNL     1      54.312  12.966 -24.562  1.00  0.00    -0.167 F
ENDBRANCH  27  29
BRANCH  27  33
HETATM   33  C16 UNL     1      55.950  10.243 -22.754  1.00  0.00     0.435 C
HETATM   34  F10 UNL     1      56.568   9.533 -23.752  1.00  0.00    -0.167 F
HETATM   35  F11 UNL     1      54.838   9.529 -22.367  1.00  0.00    -0.167 F
HETATM   36  F12 UNL     1      56.766  10.269 -21.606  1.00  0.00    -0.167 F
ENDBRANCH  27  33
ENDBRANCH  25  27
ENDBRANCH  22  25
ENDBRANCH   1  21
TORSDOF 14
ENDMDL