MODEL 1
REMARK VINA RESULT: -6.959006617      0.000      0.000
REMARK  11 active torsions:
REMARK  status: ('A' for Active; 'I' for Inactive)
REMARK    1  A    between atoms: C2_2  and  C3_4
REMARK    2  A    between atoms: C3_4  and  O1_5
REMARK    3  A    between atoms: C3_4  and  C4_8
REMARK    4  A    between atoms: C4_8  and  C5_10
REMARK    5  A    between atoms: C5_10  and  O2_11
REMARK    6  A    between atoms: C5_10  and  C6_13
REMARK       I    between atoms: C6_13  and  N1_15
REMARK    7  A    between atoms: N1_15  and  C7_17
REMARK    8  A    between atoms: C7_17  and  C8_18
REMARK    9  A    between atoms: C7_17  and  C11_26
REMARK   10  A    between atoms: C8_18  and  C9_19
REMARK   11  A    between atoms: C9_19  and  C10_22
ROOT
HETATM    1  C6  UNL     1      62.956  12.465 -24.117  1.00  0.00     0.249 C
HETATM    2  O3  UNL     1      63.708  12.925 -25.012  1.00  0.00    -0.271 OA
HETATM    3  N1  UNL     1      63.167  11.153 -23.659  1.00  0.00    -0.350 N
ATOM      4  H1  UNL     1      62.557  10.775 -22.935  1.00  0.00     0.163 HD
ENDROOT
BRANCH   3   5
HETATM    5  C7  UNL     1      64.220  10.335 -24.185  1.00  0.00     0.144 C
BRANCH   5   6
HETATM    6  C8  UNL     1      63.850   8.906 -24.423  1.00  0.00     0.118 C
BRANCH   6   7
HETATM    7  C9  UNL     1      63.880   8.458 -25.843  1.00  0.00     0.341 C
HETATM    8  F4  UNL     1      62.775   8.992 -26.478  1.00  0.00    -0.196 F
HETATM    9  F5  UNL     1      65.041   8.760 -26.491  1.00  0.00    -0.196 F
BRANCH   7  10
HETATM   10  C10 UNL     1      63.644   6.941 -25.832  1.00  0.00     0.454 C
HETATM   11  F6  UNL     1      62.993   6.562 -27.013  1.00  0.00    -0.165 F
HETATM   12  F7  UNL     1      64.816   6.245 -25.720  1.00  0.00    -0.165 F
HETATM   13  F8  UNL     1      62.814   6.592 -24.787  1.00  0.00    -0.165 F
ENDBRANCH   7  10
ENDBRANCH   6   7
ENDBRANCH   5   6
BRANCH   5  14
HETATM   14  C11 UNL     1      65.406  10.276 -23.198  1.00  0.00     0.208 C
HETATM   15 CL1  UNL     1      66.563  11.542 -23.634  1.00  0.00    -0.082 Cl
HETATM   16 CL2  UNL     1      66.197   8.705 -23.264  1.00  0.00    -0.082 Cl
HETATM   17 CL3  UNL     1      64.757  10.611 -21.584  1.00  0.00    -0.082 Cl
ENDBRANCH   5  14
ENDBRANCH   3   5
BRANCH   1  18
HETATM   18  C5  UNL     1      61.886  13.357 -23.603  1.00  0.00     0.249 C
BRANCH  18  19
HETATM   19  C4  UNL     1      60.668  13.260 -24.474  1.00  0.00     0.277 C
HETATM   20  F3  UNL     1      60.140  14.563 -24.529  1.00  0.00    -0.240 F
BRANCH  19  21
HETATM   21  C3  UNL     1      59.617  12.308 -24.044  1.00  0.00     0.267 C
HETATM   22  F2  UNL     1      60.009  11.574 -22.960  1.00  0.00    -0.205 F
BRANCH  21  23
HETATM   23  C2  UNL     1      58.252  12.851 -23.819  1.00  0.00     0.236 C
HETATM   24  C1  UNL     1      57.460  11.769 -23.059  1.00  0.00     0.051 C
HETATM   25  F1  UNL     1      57.548  13.122 -24.958  1.00  0.00    -0.244 F
ENDBRANCH  21  23
BRANCH  21  26
HETATM   26  O1  UNL     1      59.483  11.376 -25.117  1.00  0.00    -0.357 OA
ATOM     27  H1  UNL     1      59.413  10.523 -24.704  1.00  0.00     0.213 HD
ENDBRANCH  21  26
ENDBRANCH  19  21
ENDBRANCH  18  19
BRANCH  18  28
HETATM   28  O2  UNL     1      62.293  14.686 -23.565  1.00  0.00    -0.383 OA
ATOM     29  H2  UNL     1      61.971  15.074 -22.759  1.00  0.00     0.210 HD
ENDBRANCH  18  28
ENDBRANCH   1  18
TORSDOF 11
ENDMDL