MODEL 3
REMARK VINA RESULT: -6.080789754      5.659      8.177
REMARK  11 active torsions:
REMARK  status: ('A' for Active; 'I' for Inactive)
REMARK    1  A    between atoms: C2_2  and  C3_4
REMARK    2  A    between atoms: C2_2  and  C9_23
REMARK    3  A    between atoms: C3_4  and  N1_5
REMARK    4  A    between atoms: C3_4  and  C8_19
REMARK    5  A    between atoms: N1_5  and  C4_7
REMARK    6  A    between atoms: C4_7  and  O1_8
REMARK    7  A    between atoms: C4_7  and  C5_10
REMARK    8  A    between atoms: C5_10  and  C6_12
REMARK    9  A    between atoms: C6_12  and  C7_15
REMARK   10  A    between atoms: C9_23  and  C10_26
REMARK   11  A    between atoms: C10_26  and  N2_27
ROOT
HETATM    1  C3  UNL     1      65.041  10.990 -21.614  1.00  0.00     0.085 C
ENDROOT
BRANCH   1   2
HETATM    2  C2  UNL     1      65.636  11.187 -20.281  1.00  0.00     0.211 C
HETATM    3  C1  UNL     1      66.752  12.204 -20.210  1.00  0.00     0.065 C
HETATM    4  F1  UNL     1      66.322   9.982 -19.960  1.00  0.00    -0.230 F
BRANCH   2   5
HETATM    5  C9  UNL     1      64.677  11.284 -19.116  1.00  0.00     0.339 C
HETATM    6  F6  UNL     1      63.478  10.697 -19.446  1.00  0.00    -0.197 F
HETATM    7  F7  UNL     1      64.535  12.505 -18.559  1.00  0.00    -0.197 F
BRANCH   5   8
HETATM    8  C10 UNL     1      65.180  10.409 -17.931  1.00  0.00     0.440 C
HETATM    9  F8  UNL     1      66.031  11.078 -17.118  1.00  0.00    -0.213 F
BRANCH   8  10
HETATM   10  N2  UNL     1      64.109   9.710 -17.312  1.00  0.00    -0.042 N
ATOM     11  H23 UNL     1      64.091   9.870 -16.305  1.00  0.00     0.278 HD
ATOM     12  H22 UNL     1      63.207  10.121 -17.552  1.00  0.00     0.278 HD
ATOM     13  H21 UNL     1      64.138   8.715 -17.533  1.00  0.00     0.278 HD
ENDBRANCH   8  10
ENDBRANCH   5   8
ENDBRANCH   2   5
ENDBRANCH   1   2
BRANCH   1  14
HETATM   14  N1  UNL     1      65.814  10.335 -22.602  1.00  0.00    -0.358 N
ATOM     15  H1  UNL     1      66.616  10.845 -22.973  1.00  0.00     0.162 HD
BRANCH  14  16
HETATM   16  C4  UNL     1      65.588   9.073 -23.112  1.00  0.00     0.294 C
BRANCH  16  17
HETATM   17  O1  UNL     1      66.587   8.229 -22.505  1.00  0.00    -0.369 OA
ATOM     18  H1  UNL     1      67.296   8.182 -23.135  1.00  0.00     0.212 HD
ENDBRANCH  16  17
BRANCH  16  19
HETATM   19  C5  UNL     1      65.787   8.868 -24.577  1.00  0.00     0.239 C
HETATM   20  O2  UNL     1      66.758   9.308 -25.115  1.00  0.00    -0.288 OA
BRANCH  19  21
HETATM   21  C6  UNL     1      64.760   8.104 -25.364  1.00  0.00     0.339 C
HETATM   22  F2  UNL     1      65.319   7.861 -26.602  1.00  0.00    -0.207 F
HETATM   23 CL1  UNL     1      64.426   6.523 -24.619  1.00  0.00    -0.065 Cl
BRANCH  21  24
HETATM   24  C7  UNL     1      63.465   8.838 -25.479  1.00  0.00     0.445 C
HETATM   25  F3  UNL     1      62.790   8.545 -26.648  1.00  0.00    -0.166 F
HETATM   26  F4  UNL     1      63.775  10.193 -25.527  1.00  0.00    -0.166 F
HETATM   27  F5  UNL     1      62.601   8.629 -24.444  1.00  0.00    -0.166 F
ENDBRANCH  21  24
ENDBRANCH  19  21
ENDBRANCH  16  19
ENDBRANCH  14  16
ENDBRANCH   1  14
BRANCH   1  28
HETATM   28  C8  UNL     1      64.350  12.126 -22.294  1.00  0.00     0.230 C
HETATM   29 CL2  UNL     1      63.965  13.550 -21.397  1.00  0.00    -0.077 Cl
HETATM   30 CL3  UNL     1      62.746  11.517 -22.881  1.00  0.00    -0.077 Cl
HETATM   31 CL4  UNL     1      65.200  12.620 -23.785  1.00  0.00    -0.077 Cl
ENDBRANCH   1  28
TORSDOF 11
ENDMDL