MODEL 4
REMARK VINA RESULT: -6.840314179      2.421      5.401
REMARK  10 active torsions:
REMARK  status: ('A' for Active; 'I' for Inactive)
REMARK    1  A    between atoms: C2_2  and  C3_3
REMARK    2  A    between atoms: C3_3  and  C4_4
REMARK    3  A    between atoms: C4_4  and  C5_5
REMARK    4  A    between atoms: C7_9  and  O3_10
REMARK    5  A    between atoms: C7_9  and  C8_12
REMARK    6  A    between atoms: C10_19  and  C11_20
REMARK    7  A    between atoms: C11_20  and  C12_21
REMARK    8  A    between atoms: C11_20  and  C14_27
REMARK    9  A    between atoms: C12_21  and  C13_24
REMARK   10  A    between atoms: C14_27  and  C15_30
ROOT
HETATM    1  C4  UNL     1      63.534  12.108 -24.064  1.00  0.00     0.081 C
HETATM    2  C6  UNL     1      63.249  12.734 -22.653  1.00  0.00     0.079 C
HETATM    3  C7  UNL     1      64.309  12.274 -21.732  1.00  0.00     0.227 C
HETATM    4  C9  UNL     1      64.933  11.134 -22.451  1.00  0.00     0.308 C
HETATM    5  F4  UNL     1      66.208  11.359 -22.830  1.00  0.00    -0.197 F
HETATM    6  F5  UNL     1      64.964  10.083 -21.565  1.00  0.00    -0.197 F
HETATM    7  C10 UNL     1      63.977  10.816 -23.675  1.00  0.00     0.029 C
ENDROOT
BRANCH   7   8
HETATM    8  C11 UNL     1      64.364   9.581 -24.339  1.00  0.00     0.087 C
BRANCH   8   9
HETATM    9  C12 UNL     1      65.619   9.249 -24.992  1.00  0.00     0.331 C
HETATM   10  F6  UNL     1      66.369  10.396 -25.407  1.00  0.00    -0.195 F
HETATM   11  F7  UNL     1      65.354   8.833 -26.376  1.00  0.00    -0.195 F
BRANCH   9  12
HETATM   12  C13 UNL     1      66.678   8.333 -24.621  1.00  0.00     0.429 C
HETATM   13  F8  UNL     1      66.184   7.612 -23.449  1.00  0.00    -0.207 F
HETATM   14  F9  UNL     1      67.835   8.796 -24.039  1.00  0.00    -0.207 F
ENDBRANCH   9  12
ENDBRANCH   8   9
BRANCH   8  15
HETATM   15  C14 UNL     1      63.170   8.850 -24.993  1.00  0.00     0.353 C
HETATM   16  F10 UNL     1      62.029   8.854 -24.281  1.00  0.00    -0.190 F
HETATM   17  F11 UNL     1      62.890   9.438 -26.233  1.00  0.00    -0.190 F
BRANCH  15  18
HETATM   18  C15 UNL     1      63.417   7.424 -25.405  1.00  0.00     0.320 C
HETATM   19  F12 UNL     1      63.439   6.520 -24.370  1.00  0.00    -0.171 F
HETATM   20  F13 UNL     1      62.861   6.999 -26.571  1.00  0.00    -0.171 F
ENDBRANCH  15  18
ENDBRANCH   8  15
ENDBRANCH   7   8
BRANCH   1  21
HETATM   21  C3  UNL     1      62.091  12.222 -24.639  1.00  0.00     0.025 C
BRANCH  21  22
HETATM   22  C2  UNL     1      61.083  11.913 -23.514  1.00  0.00    -0.003 C
HETATM   23  C1  UNL     1      59.861  11.345 -24.267  1.00  0.00     0.005 C
ENDBRANCH  21  22
ENDBRANCH   1  21
BRANCH   1  24
HETATM   24  C5  UNL     1      64.224  13.148 -24.759  1.00  0.00     0.186 C
HETATM   25  O1  UNL     1      64.828  13.073 -25.862  1.00  0.00    -0.647 OA
HETATM   26  O2  UNL     1      64.266  14.440 -24.186  1.00  0.00    -0.647 OA
ENDBRANCH   1  24
BRANCH   3  27
HETATM   27  O3  UNL     1      65.218  13.275 -21.379  1.00  0.00    -0.376 OA
ATOM     28  H3  UNL     1      65.090  13.612 -20.499  1.00  0.00     0.211 HD
ENDBRANCH   3  27
BRANCH   3  29
HETATM   29  C8  UNL     1      63.670  11.895 -20.400  1.00  0.00     0.424 C
HETATM   30  F1  UNL     1      63.429  13.086 -19.733  1.00  0.00    -0.168 F
HETATM   31  F2  UNL     1      62.461  11.303 -20.713  1.00  0.00    -0.168 F
HETATM   32  F3  UNL     1      64.422  11.065 -19.638  1.00  0.00    -0.168 F
ENDBRANCH   3  29
TORSDOF 10
ENDMDL