MODEL 2
REMARK VINA RESULT: -7.318600184      2.788      5.132
REMARK  9 active torsions:
REMARK  status: ('A' for Active; 'I' for Inactive)
REMARK       I    between atoms: C1_2  and  N1_3
REMARK       I    between atoms: C1_2  and  N2_9
REMARK    1  A    between atoms: N1_3  and  C2_5
REMARK    2  A    between atoms: C2_5  and  C3_6
REMARK    3  A    between atoms: C3_6  and  O2_7
REMARK    4  A    between atoms: N2_9  and  C4_11
REMARK    5  A    between atoms: C9_20  and  C10_21
REMARK    6  A    between atoms: C10_21  and  C11_23
REMARK    7  A    between atoms: C11_23  and  C12_26
REMARK    8  A    between atoms: C12_26  and  C13_29
REMARK    9  A    between atoms: C14_31  and  C15_32
ROOT
HETATM    1  C4  UNL     1      61.901  11.788 -23.888  1.00  0.00     0.091 A
HETATM    2  C5  UNL     1      63.084  12.338 -23.471  1.00  0.00     0.185 A
HETATM    3  F1  UNL     1      64.150  11.550 -23.152  1.00  0.00    -0.200 F
HETATM    4  C6  UNL     1      63.155  13.704 -23.388  1.00  0.00     0.198 A
HETATM    5  F2  UNL     1      64.330  14.261 -22.973  1.00  0.00    -0.199 F
HETATM    6  C7  UNL     1      62.100  14.516 -23.702  1.00  0.00     0.197 A
HETATM    7  F3  UNL     1      62.166  15.873 -23.621  1.00  0.00    -0.199 F
HETATM    8  C8  UNL     1      60.886  13.956 -24.131  1.00  0.00     0.169 A
HETATM    9  F4  UNL     1      59.879  14.846 -24.439  1.00  0.00    -0.202 F
HETATM   10  C9  UNL     1      60.782  12.603 -24.225  1.00  0.00     0.053 A
ENDROOT
BRANCH  10  11
HETATM   11  C10 UNL     1      59.606  11.894 -24.687  1.00  0.00     0.287 C
HETATM   12  F5  UNL     1      60.054  11.095 -25.775  1.00  0.00    -0.237 F
BRANCH  11  13
HETATM   13  C11 UNL     1      58.725  11.115 -23.826  1.00  0.00     0.349 C
HETATM   14  F6  UNL     1      58.685   9.768 -23.941  1.00  0.00    -0.195 F
HETATM   15  F7  UNL     1      58.947  11.427 -22.473  1.00  0.00    -0.195 F
BRANCH  13  16
HETATM   16  C12 UNL     1      57.254  11.589 -24.023  1.00  0.00     0.363 C
HETATM   17  F8  UNL     1      56.654  10.766 -24.983  1.00  0.00    -0.191 F
HETATM   18  F9  UNL     1      57.361  12.854 -24.497  1.00  0.00    -0.191 F
BRANCH  16  19
HETATM   19  C13 UNL     1      56.537  11.418 -22.764  1.00  0.00     0.173 C
HETATM   20  F10 UNL     1      57.134  10.610 -21.775  1.00  0.00    -0.204 F
HETATM   21  C14 UNL     1      55.387  11.914 -22.398  1.00  0.00     0.087 C
BRANCH  21  22
HETATM   22  C15 UNL     1      54.550  12.787 -23.233  1.00  0.00     0.379 C
HETATM   23  F11 UNL     1      54.240  12.226 -24.474  1.00  0.00    -0.210 F
HETATM   24  F12 UNL     1      53.342  13.046 -22.575  1.00  0.00    -0.210 F
ENDBRANCH  21  22
ENDBRANCH  16  19
ENDBRANCH  13  16
ENDBRANCH  11  13
ENDBRANCH  10  11
BRANCH   1  25
HETATM   25  N2  UNL     1      61.869  10.376 -24.006  1.00  0.00    -0.305 N
HETATM   26  C1  UNL     1      62.667   9.595 -24.872  1.00  0.00     0.320 C
HETATM   27  O1  UNL     1      63.494  10.124 -25.653  1.00  0.00    -0.247 OA
HETATM   28  N1  UNL     1      62.551   8.195 -24.877  1.00  0.00    -0.341 N
ATOM     29  H1  UNL     1      61.880   7.756 -24.247  1.00  0.00     0.164 HD
ATOM     30  H2  UNL     1      61.208   9.877 -23.411  1.00  0.00     0.171 HD
BRANCH  28  31
HETATM   31  C2  UNL     1      63.341   7.356 -25.739  1.00  0.00     0.150 C
BRANCH  31  32
HETATM   32  C3  UNL     1      64.423   6.633 -24.992  1.00  0.00     0.183 C
BRANCH  32  33
HETATM   33  O2  UNL     1      65.187   5.836 -25.868  1.00  0.00    -0.399 OA
ATOM     34  H2  UNL     1      65.993   5.555 -25.450  1.00  0.00     0.209 HD
ENDBRANCH  32  33
ENDBRANCH  31  32
ENDBRANCH  28  31
ENDBRANCH   1  25
TORSDOF 9
ENDMDL