MODEL 1
REMARK VINA RESULT: -8.183690848      0.000      0.000
REMARK  12 active torsions:
REMARK  status: ('A' for Active; 'I' for Inactive)
REMARK    1  A    between atoms: C2_2  and  C3_4
REMARK    2  A    between atoms: C3_4  and  C4_5
REMARK    3  A    between atoms: C3_4  and  C11_23
REMARK    4  A    between atoms: C4_5  and  O1_6
REMARK    5  A    between atoms: C4_5  and  C5_8
REMARK    6  A    between atoms: C6_11  and  C7_12
REMARK    7  A    between atoms: C7_12  and  C8_13
REMARK    8  A    between atoms: C8_13  and  C9_16
REMARK    9  A    between atoms: C11_23  and  O2_24
REMARK   10  A    between atoms: C11_23  and  C12_26
REMARK   11  A    between atoms: C12_26  and  C13_29
REMARK   12  A    between atoms: C13_29  and  C15_31
ROOT
HETATM    1  C4  UNL     1      62.230  12.521 -23.495  1.00  0.00     0.181 C
ENDROOT
BRANCH   1   2
HETATM    2  C3  UNL     1      63.718  12.275 -23.879  1.00  0.00     0.019 C
BRANCH   2   3
HETATM    3  C2  UNL     1      64.330  13.160 -24.845  1.00  0.00     0.200 C
HETATM    4  C1  UNL     1      64.118  14.663 -24.488  1.00  0.00     0.050 C
HETATM    5  F1  UNL     1      65.682  13.105 -25.037  1.00  0.00    -0.245 F
ENDBRANCH   2   3
BRANCH   2   6
HETATM    6  C11 UNL     1      64.101  10.845 -23.804  1.00  0.00     0.123 C
BRANCH   6   7
HETATM    7  O2  UNL     1      64.700  10.549 -22.573  1.00  0.00    -0.359 OA
ATOM      8  H2  UNL     1      65.051   9.667 -22.568  1.00  0.00     0.217 HD
ENDBRANCH   6   7
BRANCH   6   9
HETATM    9  C12 UNL     1      64.729  10.078 -24.847  1.00  0.00     0.303 C
HETATM   10  F9  UNL     1      64.168  10.195 -26.134  1.00  0.00    -0.198 F
HETATM   11  F10 UNL     1      66.122  10.164 -24.958  1.00  0.00    -0.198 F
BRANCH   9  12
HETATM   12  C13 UNL     1      64.519   8.568 -24.617  1.00  0.00     0.168 C
HETATM   13  C14 UNL     1      65.468   7.681 -25.319  1.00  0.00     0.026 C
BRANCH  12  14
HETATM   14  C15 UNL     1      63.119   8.196 -25.062  1.00  0.00     0.397 C
HETATM   15  F11 UNL     1      62.951   6.855 -24.666  1.00  0.00    -0.171 F
HETATM   16  F12 UNL     1      62.121   8.893 -24.474  1.00  0.00    -0.171 F
HETATM   17  F13 UNL     1      63.013   8.152 -26.452  1.00  0.00    -0.171 F
ENDBRANCH  12  14
ENDBRANCH   9  12
ENDBRANCH   6   9
ENDBRANCH   2   6
ENDBRANCH   1   2
BRANCH   1  18
HETATM   18  O1  UNL     1      62.092  11.810 -22.257  1.00  0.00    -0.389 OA
ATOM     19  H1  UNL     1      62.164  12.497 -21.605  1.00  0.00     0.210 HD
ENDBRANCH   1  18
BRANCH   1  20
HETATM   20  C5  UNL     1      61.255  12.149 -24.529  1.00  0.00     0.185 C
HETATM   21  N1  UNL     1      60.134  11.287 -24.168  1.00  0.00    -0.400 N
HETATM   22  C6  UNL     1      59.394  12.329 -23.685  1.00  0.00     0.158 C
ATOM     23  H1  UNL     1      59.967  10.284 -24.246  1.00  0.00     0.154 HD
HETATM   24  C10 UNL     1      60.154  13.224 -24.738  1.00  0.00     0.285 C
HETATM   25  F7  UNL     1      59.541  13.168 -25.954  1.00  0.00    -0.202 F
HETATM   26  F8  UNL     1      60.292  14.414 -24.125  1.00  0.00    -0.202 F
BRANCH  22  27
HETATM   27  C7  UNL     1      57.961  12.592 -23.813  1.00  0.00     0.119 C
BRANCH  27  28
HETATM   28  C8  UNL     1      56.932  11.664 -23.368  1.00  0.00     0.341 C
HETATM   29  F2  UNL     1      57.364  11.024 -22.148  1.00  0.00    -0.196 F
HETATM   30  F3  UNL     1      56.718  10.586 -24.210  1.00  0.00    -0.196 F
BRANCH  28  31
HETATM   31  C9  UNL     1      55.601  12.231 -23.018  1.00  0.00     0.454 C
HETATM   32  F4  UNL     1      55.774  13.644 -23.198  1.00  0.00    -0.165 F
HETATM   33  F5  UNL     1      54.605  11.760 -23.826  1.00  0.00    -0.165 F
HETATM   34  F6  UNL     1      55.336  12.086 -21.683  1.00  0.00    -0.165 F
ENDBRANCH  28  31
ENDBRANCH  27  28
ENDBRANCH  22  27
ENDBRANCH   1  20
TORSDOF 12
ENDMDL