MODEL 5
REMARK VINA RESULT: -6.456403168      3.094      5.763
REMARK  13 active torsions:
REMARK  status: ('A' for Active; 'I' for Inactive)
REMARK    1  A    between atoms: C2_2  and  C3_3
REMARK    2  A    between atoms: C2_2  and  C4_6
REMARK    3  A    between atoms: C4_6  and  O1_7
REMARK    4  A    between atoms: C4_6  and  C5_9
REMARK    5  A    between atoms: C5_9  and  O2_10
REMARK    6  A    between atoms: C5_9  and  C6_12
REMARK    7  A    between atoms: C6_12  and  C7_13
REMARK    8  A    between atoms: C6_12  and  C8_16
REMARK    9  A    between atoms: C6_12  and  C9_20
REMARK   10  A    between atoms: C9_20  and  C10_23
REMARK   11  A    between atoms: C10_23  and  C11_26
REMARK   12  A    between atoms: C11_26  and  C12_28
REMARK   13  A    between atoms: C12_28  and  O3_31
ROOT
HETATM    1  C6  UNL     1      64.194  11.987 -22.843  1.00  0.00     0.215 C
ENDROOT
BRANCH   1   2
HETATM    2  C5  UNL     1      64.362  10.547 -23.030  1.00  0.00     0.176 C
BRANCH   2   3
HETATM    3  C4  UNL     1      64.599   9.918 -24.349  1.00  0.00     0.156 C
BRANCH   3   4
HETATM    4  C2  UNL     1      63.596   8.731 -24.429  1.00  0.00     0.062 C
HETATM    5  C1  UNL     1      62.507   9.157 -25.384  1.00  0.00     0.017 C
BRANCH   4   6
HETATM    6  C3  UNL     1      64.355   7.608 -25.125  1.00  0.00     0.271 C
HETATM    7  F1  UNL     1      64.502   6.513 -24.312  1.00  0.00    -0.232 F
HETATM    8 CL1  UNL     1      63.493   7.113 -26.579  1.00  0.00    -0.089 Cl
ENDBRANCH   4   6
ENDBRANCH   3   4
BRANCH   3   9
HETATM    9  O1  UNL     1      65.835   9.231 -24.425  1.00  0.00    -0.392 OA
ATOM     10  H1  UNL     1      66.230   9.654 -25.179  1.00  0.00     0.210 HD
ENDBRANCH   3   9
ENDBRANCH   2   3
BRANCH   2  11
HETATM   11  O2  UNL     1      65.313   9.899 -22.223  1.00  0.00    -0.391 OA
ATOM     12  H2  UNL     1      64.765   9.498 -21.557  1.00  0.00     0.210 HD
ENDBRANCH   2  11
ENDBRANCH   1   2
BRANCH   1  13
HETATM   13  C7  UNL     1      62.815  12.404 -23.446  1.00  0.00     0.379 C
HETATM   14  F2  UNL     1      62.827  12.562 -24.794  1.00  0.00    -0.213 F
HETATM   15  F3  UNL     1      61.833  11.493 -23.182  1.00  0.00    -0.213 F
ENDBRANCH   1  13
BRANCH   1  16
HETATM   16  C8  UNL     1      65.139  12.889 -23.607  1.00  0.00     0.409 C
HETATM   17  F4  UNL     1      65.023  12.773 -24.992  1.00  0.00    -0.170 F
HETATM   18  F5  UNL     1      64.900  14.228 -23.391  1.00  0.00    -0.170 F
HETATM   19  F6  UNL     1      66.483  12.571 -23.427  1.00  0.00    -0.170 F
ENDBRANCH   1  16
BRANCH   1  20
HETATM   20  C9  UNL     1      64.032  12.382 -21.407  1.00  0.00     0.338 C
HETATM   21  F7  UNL     1      63.071  11.578 -20.819  1.00  0.00    -0.198 F
HETATM   22  F8  UNL     1      63.251  13.629 -21.501  1.00  0.00    -0.198 F
BRANCH  20  23
HETATM   23  C10 UNL     1      65.069  12.729 -20.482  1.00  0.00     0.361 C
HETATM   24  F9  UNL     1      65.283  14.124 -20.413  1.00  0.00    -0.192 F
HETATM   25  F10 UNL     1      66.371  12.305 -20.791  1.00  0.00    -0.192 F
BRANCH  23  26
HETATM   26  C11 UNL     1      64.935  12.348 -19.030  1.00  0.00     0.182 C
HETATM   27  F11 UNL     1      65.556  13.261 -18.187  1.00  0.00    -0.205 F
BRANCH  26  28
HETATM   28  C12 UNL     1      65.161  10.960 -18.612  1.00  0.00     0.106 C
HETATM   29  C13 UNL     1      63.935  10.242 -18.072  1.00  0.00     0.053 C
HETATM   30  C14 UNL     1      66.037  11.112 -17.310  1.00  0.00     0.053 C
BRANCH  28  31
HETATM   31  O3  UNL     1      65.883  10.110 -19.380  1.00  0.00    -0.384 OA
ATOM     32  H3  UNL     1      66.793   9.923 -19.179  1.00  0.00     0.211 HD
ENDBRANCH  28  31
ENDBRANCH  26  28
ENDBRANCH  23  26
ENDBRANCH  20  23
ENDBRANCH   1  20
TORSDOF 13
ENDMDL