MODEL 3
REMARK VINA RESULT: -6.080321379      2.048      5.968
REMARK  11 active torsions:
REMARK  status: ('A' for Active; 'I' for Inactive)
REMARK    1  A    between atoms: C2_2  and  C3_3
REMARK    2  A    between atoms: C3_3  and  C4_4
REMARK    3  A    between atoms: C4_4  and  N1_5
REMARK    4  A    between atoms: N1_5  and  C5_7
REMARK    5  A    between atoms: C6_10  and  N3_11
REMARK    6  A    between atoms: N3_11  and  C7_13
REMARK    7  A    between atoms: C7_13  and  O1_14
REMARK    8  A    between atoms: C8_18  and  N5_19
REMARK    9  A    between atoms: N5_19  and  C9_21
REMARK   10  A    between atoms: C9_21  and  C10_22
REMARK   11  A    between atoms: C10_22  and  N6_23
ROOT
HETATM    1  C5  UNL     1     -82.933 -47.669 109.364  1.00  0.00     0.707 A
HETATM    2  N2  UNL     1     -83.072 -48.328 110.514  1.00  0.00    -0.021 N
ATOM      3  H2  UNL     1     -83.637 -49.176 110.545  1.00  0.00     0.203 HD
HETATM    4  C6  UNL     1     -82.480 -47.888 111.622  1.00  0.00     0.708 A
HETATM    5  N4  UNL     1     -81.738 -46.769 111.567  1.00  0.00    -0.021 N
ATOM      6  H4  UNL     1     -81.286 -46.433 112.417  1.00  0.00     0.203 HD
HETATM    7  C8  UNL     1     -81.576 -46.083 110.432  1.00  0.00     0.707 A
HETATM    8  N7  UNL     1     -82.194 -46.563 109.329  1.00  0.00    -0.022 N
ATOM      9  H7  UNL     1     -82.091 -46.063 108.446  1.00  0.00     0.203 HD
ENDROOT
BRANCH   7  10
HETATM   10  N5  UNL     1     -80.888 -45.019 110.316  1.00  0.00    -0.223 N
ATOM     11  H5  UNL     1     -79.952 -45.018 110.720  1.00  0.00     0.177 HD
BRANCH  10  12
HETATM   12  C9  UNL     1     -81.329 -43.819 109.658  1.00  0.00     0.165 C
BRANCH  12  13
HETATM   13  C10 UNL     1     -80.348 -43.471 108.546  1.00  0.00     0.249 C
BRANCH  13  14
HETATM   14  N6  UNL     1     -78.988 -43.629 109.022  1.00  0.00    -0.078 N
ATOM     15  H63 UNL     1     -78.956 -43.928 109.997  1.00  0.00     0.274 HD
ATOM     16  H62 UNL     1     -78.527 -44.437 108.604  1.00  0.00     0.274 HD
ATOM     17  H61 UNL     1     -78.466 -42.767 108.868  1.00  0.00     0.274 HD
ENDBRANCH  13  14
ENDBRANCH  12  13
ENDBRANCH  10  12
ENDBRANCH   7  10
BRANCH   4  18
HETATM   18  N3  UNL     1     -82.594 -48.501 112.754  1.00  0.00    -0.204 N
ATOM     19  H3  UNL     1     -81.762 -48.789 113.270  1.00  0.00     0.180 HD
BRANCH  18  20
HETATM   20  C7  UNL     1     -83.905 -48.776 113.281  1.00  0.00     0.305 C
BRANCH  20  21
HETATM   21  O1  UNL     1     -83.854 -49.894 114.125  1.00  0.00    -0.382 OA
ATOM     22  H1  UNL     1     -83.280 -50.553 113.752  1.00  0.00     0.211 HD
ENDBRANCH  20  21
ENDBRANCH  18  20
ENDBRANCH   4  18
BRANCH   1  23
HETATM   23  N1  UNL     1     -83.525 -48.134 108.313  1.00  0.00    -0.225 N
ATOM     24  H1  UNL     1     -83.033 -48.836 107.761  1.00  0.00     0.177 HD
BRANCH  23  25
HETATM   25  C4  UNL     1     -84.828 -47.727 107.872  1.00  0.00     0.138 C
BRANCH  25  26
HETATM   26  C3  UNL     1     -85.865 -48.530 108.628  1.00  0.00     0.020 C
BRANCH  26  27
HETATM   27  C2  UNL     1     -86.543 -47.693 109.687  1.00  0.00    -0.003 C
HETATM   28  C1  UNL     1     -86.761 -48.589 110.893  1.00  0.00     0.005 C
ENDBRANCH  26  27
ENDBRANCH  25  26
ENDBRANCH  23  25
ENDBRANCH   1  23
TORSDOF 11
ENDMDL