MODEL 1
REMARK VINA RESULT: -5.868547268      0.000      0.000
REMARK  7 active torsions:
REMARK  status: ('A' for Active; 'I' for Inactive)
REMARK    1  A    between atoms: N4_12  and  C6_14
REMARK    2  A    between atoms: C6_14  and  C7_15
REMARK    3  A    between atoms: C7_15  and  C8_16
REMARK    4  A    between atoms: C8_16  and  C9_17
REMARK    5  A    between atoms: C9_17  and  N5_18
REMARK    6  A    between atoms: N5_18  and  N6_19
REMARK    7  A    between atoms: N5_18  and  C10_22
ROOT
HETATM    1  C1  UNL     1     -85.212 -47.952 107.804  1.00  0.00     0.064 C
HETATM    2  C2  UNL     1     -85.137 -47.951 109.124  1.00  0.00     0.127 A
HETATM    3  N1  UNL     1     -86.321 -48.109 109.897  1.00  0.00    -0.177 N
ATOM      4  H1  UNL     1     -87.218 -48.222 109.426  1.00  0.00     0.185 HD
HETATM    5  C3  UNL     1     -86.271 -48.112 111.316  1.00  0.00     0.693 A
HETATM    6  N2  UNL     1     -87.346 -48.255 111.992  1.00  0.00    -0.230 N
ATOM      7  H2  UNL     1     -87.286 -48.254 113.010  1.00  0.00     0.177 HD
HETATM    8  C4  UNL     1     -88.644 -48.417 111.377  1.00  0.00     0.165 C
HETATM    9  N3  UNL     1     -84.997 -47.951 111.970  1.00  0.00    -0.022 N
ATOM     10  H3  UNL     1     -84.951 -47.952 112.989  1.00  0.00     0.203 HD
HETATM   11  C5  UNL     1     -83.807 -47.793 111.215  1.00  0.00     0.694 A
HETATM   12  N4  UNL     1     -82.689 -47.652 111.817  1.00  0.00    -0.226 N
ATOM     13  H4  UNL     1     -82.713 -47.661 112.836  1.00  0.00     0.177 HD
HETATM   14  N8  UNL     1     -83.889 -47.795 109.802  1.00  0.00    -0.177 N
ATOM     15  H8  UNL     1     -83.035 -47.682 109.255  1.00  0.00     0.185 HD
ENDROOT
BRANCH  12  16
HETATM   16  C6  UNL     1     -81.398 -47.482 111.200  1.00  0.00     0.138 C
BRANCH  16  17
HETATM   17  C7  UNL     1     -81.054 -46.028 111.214  1.00  0.00     0.022 C
BRANCH  17  18
HETATM   18  C8  UNL     1     -81.288 -45.296 109.936  1.00  0.00     0.023 C
BRANCH  18  19
HETATM   19  C9  UNL     1     -81.306 -43.806 110.058  1.00  0.00     0.149 C
BRANCH  19  20
HETATM   20  N5  UNL     1     -80.619 -43.278 108.871  1.00  0.00    -0.295 N
BRANCH  20  21
HETATM   21  N6  UNL     1     -81.084 -42.165 108.190  1.00  0.00    -0.342 N
ATOM     22  H62 UNL     1     -82.060 -41.891 108.307  1.00  0.00     0.177 HD
ATOM     23  H61 UNL     1     -80.481 -41.616 107.578  1.00  0.00     0.177 HD
ENDBRANCH  20  21
BRANCH  20  24
HETATM   24  C10 UNL     1     -79.442 -43.923 108.402  1.00  0.00     0.192 C
HETATM   25  N7  UNL     1     -78.324 -43.629 108.987  1.00  0.00    -0.394 N
ATOM     26  H72 UNL     1     -78.306 -42.957 109.755  1.00  0.00     0.156 HD
ATOM     27  H71 UNL     1     -77.479 -44.091 108.650  1.00  0.00     0.156 HD
ENDBRANCH  20  24
ENDBRANCH  19  20
ENDBRANCH  18  19
ENDBRANCH  17  18
ENDBRANCH  16  17
ENDBRANCH  12  16
TORSDOF 7
ENDMDL