MODEL 3
REMARK VINA RESULT: -6.686728392      0.983      1.335
REMARK  8 active torsions:
REMARK  status: ('A' for Active; 'I' for Inactive)
REMARK    1  A    between atoms: N1_2  and  C3_4
REMARK    2  A    between atoms: N1_2  and  C6_9
REMARK    3  A    between atoms: C3_4  and  C4_5
REMARK    4  A    between atoms: C4_5  and  C5_6
REMARK    5  A    between atoms: C5_6  and  O1_7
REMARK    6  A    between atoms: C6_9  and  N2_10
REMARK    7  A    between atoms: N3_12  and  C7_14
REMARK    8  A    between atoms: C10_22  and  N7_23
ROOT
HETATM    1  N2  UNL     1     -81.078 -46.749 111.151  1.00  0.00    -0.289 N
ATOM      2  H2  UNL     1     -80.061 -46.833 111.127  1.00  0.00     0.187 HD
HETATM    3  N3  UNL     1     -81.751 -47.819 111.080  1.00  0.00    -0.295 N
ATOM      4  H3  UNL     1     -81.238 -48.697 111.002  1.00  0.00     0.187 HD
ENDROOT
BRANCH   3   5
HETATM    5  C7  UNL     1     -83.161 -47.883 111.101  1.00  0.00     0.107 A
HETATM    6  C8  UNL     1     -83.856 -47.928 112.290  1.00  0.00     0.125 A
HETATM    7  N4  UNL     1     -85.201 -47.988 112.251  1.00  0.00    -0.338 N
HETATM    8  C9  UNL     1     -85.872 -48.003 111.079  1.00  0.00     0.193 A
ATOM      9  H4  UNL     1     -85.724 -48.023 113.126  1.00  0.00     0.168 HD
HETATM   10  N5  UNL     1     -87.291 -48.066 111.092  1.00  0.00    -0.063 NA
HETATM   11  N6  UNL     1     -85.176 -47.958 109.931  1.00  0.00    -0.315 N
HETATM   12  C10 UNL     1     -83.829 -47.898 109.900  1.00  0.00     0.131 A
ATOM     13  H6  UNL     1     -85.686 -47.970 109.048  1.00  0.00     0.170 HD
BRANCH  12  14
HETATM   14  N7  UNL     1     -83.196 -47.855 108.753  1.00  0.00    -0.383 N
ATOM     15  H72 UNL     1     -83.429 -48.517 108.012  1.00  0.00     0.157 HD
ATOM     16  H71 UNL     1     -82.461 -47.173 108.567  1.00  0.00     0.157 HD
ENDBRANCH  12  14
ENDBRANCH   3   5
BRANCH   1  17
HETATM   17  C6  UNL     1     -81.625 -45.433 111.262  1.00  0.00     0.309 C
BRANCH  17  18
HETATM   18  N1  UNL     1     -81.537 -44.644 110.074  1.00  0.00    -0.040 N
HETATM   19  C1  UNL     1     -82.894 -44.539 109.511  1.00  0.00     0.279 C
HETATM   20  C2  UNL     1     -81.161 -43.260 110.391  1.00  0.00     0.279 C
BRANCH  18  21
HETATM   21  C3  UNL     1     -80.684 -45.174 109.059  1.00  0.00     0.246 C
BRANCH  21  22
HETATM   22  C4  UNL     1     -79.832 -44.100 108.441  1.00  0.00     0.054 C
BRANCH  22  23
HETATM   23  C5  UNL     1     -78.379 -44.477 108.470  1.00  0.00     0.165 C
BRANCH  23  24
HETATM   24  O1  UNL     1     -77.626 -43.319 108.710  1.00  0.00    -0.401 OA
ATOM     25  H1  UNL     1     -76.779 -43.420 108.292  1.00  0.00     0.209 HD
ENDBRANCH  23  24
ENDBRANCH  22  23
ENDBRANCH  21  22
ENDBRANCH  18  21
ENDBRANCH  17  18
ENDBRANCH   1  17
TORSDOF 8
ENDMDL