MODEL 3
REMARK VINA RESULT: -6.084265994      1.016      1.526
REMARK  8 active torsions:
REMARK  status: ('A' for Active; 'I' for Inactive)
REMARK    1  A    between atoms: N1_1  and  C1_4
REMARK    2  A    between atoms: C2_7  and  C3_8
REMARK    3  A    between atoms: C3_8  and  N3_9
REMARK    4  A    between atoms: N4_14  and  C7_15
REMARK    5  A    between atoms: C7_15  and  C8_16
REMARK    6  A    between atoms: C8_16  and  C9_17
REMARK    7  A    between atoms: C9_17  and  C10_18
REMARK    8  A    between atoms: C10_18  and  N5_19
ROOT
HETATM    1  N3  UNL     1     -81.375 -46.456 110.666  1.00  0.00    -0.369 N
ATOM      2  H3  UNL     1     -80.518 -47.007 110.620  1.00  0.00     0.161 HD
HETATM    3  C4  UNL     1     -81.324 -45.289 110.161  1.00  0.00     0.103 A
HETATM    4  C5  UNL     1     -82.373 -44.397 110.125  1.00  0.00     0.065 A
HETATM    5  C6  UNL     1     -82.193 -43.142 109.541  1.00  0.00     0.095 A
HETATM    6  N4  UNL     1     -81.031 -42.742 108.999  1.00  0.00    -0.353 N
HETATM    7  C11 UNL     1     -80.018 -43.663 109.059  1.00  0.00     0.184 A
HETATM    8  N6  UNL     1     -80.169 -44.873 109.615  1.00  0.00    -0.339 N
ATOM      9  H6  UNL     1     -79.370 -45.507 109.624  1.00  0.00     0.168 HD
ENDROOT
BRANCH   1  10
HETATM   10  C3  UNL     1     -82.494 -47.077 111.287  1.00  0.00     0.199 C
BRANCH  10  11
HETATM   11  C2  UNL     1     -83.562 -47.452 110.314  1.00  0.00     0.130 A
HETATM   12  N2  UNL     1     -83.389 -47.594 108.989  1.00  0.00    -0.177 N
HETATM   13  C1  UNL     1     -84.559 -47.938 108.411  1.00  0.00     0.691 A
ATOM     14  H2  UNL     1     -82.506 -47.463 108.495  1.00  0.00     0.185 HD
HETATM   15  N8  UNL     1     -85.477 -48.011 109.391  1.00  0.00    -0.131 N
HETATM   16  N7  UNL     1     -84.863 -47.715 110.534  1.00  0.00    -0.273 N
ATOM     17  H8  UNL     1     -86.463 -48.249 109.278  1.00  0.00     0.205 HD
ATOM     18  H7  UNL     1     -85.315 -47.690 111.448  1.00  0.00     0.189 HD
BRANCH  13  19
HETATM   19  N1  UNL     1     -84.752 -48.154 107.152  1.00  0.00    -0.233 N
ATOM     20  H12 UNL     1     -84.037 -48.313 106.443  1.00  0.00     0.174 HD
ATOM     21  H11 UNL     1     -85.656 -48.197 106.681  1.00  0.00     0.174 HD
ENDBRANCH  13  19
ENDBRANCH  10  11
ENDBRANCH   1  10
BRANCH   6  22
HETATM   22  C7  UNL     1     -80.803 -41.450 108.391  1.00  0.00     0.129 C
BRANCH  22  23
HETATM   23  C8  UNL     1     -81.986 -40.872 107.715  1.00  0.00     0.022 C
BRANCH  23  24
HETATM   24  C9  UNL     1     -82.003 -39.427 107.436  1.00  0.00     0.029 C
BRANCH  24  25
HETATM   25  C10 UNL     1     -83.246 -38.862 106.853  1.00  0.00     0.229 C
BRANCH  25  26
HETATM   26  N5  UNL     1     -84.335 -39.834 106.803  1.00  0.00    -0.079 N
ATOM     27  H53 UNL     1     -85.184 -39.415 106.424  1.00  0.00     0.274 HD
ATOM     28  H52 UNL     1     -84.165 -40.539 106.086  1.00  0.00     0.274 HD
ATOM     29  H51 UNL     1     -84.515 -40.269 107.709  1.00  0.00     0.274 HD
ENDBRANCH  25  26
ENDBRANCH  24  25
ENDBRANCH  23  24
ENDBRANCH  22  23
ENDBRANCH   6  22
TORSDOF 8
ENDMDL