MODEL 2
REMARK VINA RESULT: -5.309400316      1.544      6.007
REMARK  11 active torsions:
REMARK  status: ('A' for Active; 'I' for Inactive)
REMARK    1  A    between atoms: C2_2  and  C3_3
REMARK    2  A    between atoms: C2_2  and  N2_8
REMARK    3  A    between atoms: C3_3  and  N1_4
REMARK    4  A    between atoms: N2_8  and  C4_10
REMARK    5  A    between atoms: C7_17  and  N5_18
REMARK    6  A    between atoms: N5_18  and  C8_20
REMARK    7  A    between atoms: C8_20  and  N6_21
REMARK    8  A    between atoms: C8_20  and  C9_25
REMARK    9  A    between atoms: C9_25  and  C10_26
REMARK   10  A    between atoms: C10_26  and  C11_27
REMARK   11  A    between atoms: C11_27  and  N7_28
ROOT
HETATM    1  C4  UNL     1     -84.122 -47.406 110.643  1.00  0.00     0.146 A
HETATM    2  N3  UNL     1     -85.342 -47.955 110.576  1.00  0.00    -0.348 N
ATOM      3  H3  UNL     1     -85.849 -48.134 111.443  1.00  0.00     0.167 HD
HETATM    4  C5  UNL     1     -85.927 -48.280 109.398  1.00  0.00     0.107 A
HETATM    5  C6  UNL     1     -85.253 -48.043 108.219  1.00  0.00     0.107 A
HETATM    6  N4  UNL     1     -84.020 -47.487 108.300  1.00  0.00    -0.348 N
ATOM      7  H4  UNL     1     -83.509 -47.306 107.436  1.00  0.00     0.167 HD
HETATM    8  C7  UNL     1     -83.444 -47.167 109.463  1.00  0.00     0.147 A
ENDROOT
BRANCH   8   9
HETATM    9  N5  UNL     1     -82.267 -46.638 109.529  1.00  0.00    -0.346 N
ATOM     10  H5  UNL     1     -81.472 -47.196 109.217  1.00  0.00     0.163 HD
BRANCH   9  11
HETATM   11  C8  UNL     1     -82.014 -45.313 110.013  1.00  0.00     0.283 C
BRANCH  11  12
HETATM   12  N6  UNL     1     -82.718 -44.284 109.290  1.00  0.00    -0.058 N
ATOM     13  H63 UNL     1     -82.930 -44.593 108.341  1.00  0.00     0.276 HD
ATOM     14  H62 UNL     1     -83.666 -44.176 109.650  1.00  0.00     0.276 HD
ATOM     15  H61 UNL     1     -82.235 -43.386 109.276  1.00  0.00     0.276 HD
ENDBRANCH  11  12
BRANCH  11  16
HETATM   16  C9  UNL     1     -80.536 -45.025 109.892  1.00  0.00     0.056 C
BRANCH  16  17
HETATM   17  C10 UNL     1     -80.278 -43.856 108.948  1.00  0.00     0.031 C
BRANCH  17  18
HETATM   18  C11 UNL     1     -79.026 -44.053 108.146  1.00  0.00     0.230 C
BRANCH  18  19
HETATM   19  N7  UNL     1     -77.900 -43.730 108.994  1.00  0.00    -0.079 N
ATOM     20  H73 UNL     1     -78.144 -43.085 109.746  1.00  0.00     0.274 HD
ATOM     21  H72 UNL     1     -77.606 -44.513 109.577  1.00  0.00     0.274 HD
ATOM     22  H71 UNL     1     -77.151 -43.377 108.398  1.00  0.00     0.274 HD
ENDBRANCH  18  19
ENDBRANCH  17  18
ENDBRANCH  16  17
ENDBRANCH  11  16
ENDBRANCH   9  11
ENDBRANCH   8   9
BRANCH   1  23
HETATM   23  N2  UNL     1     -83.553 -47.091 111.754  1.00  0.00    -0.367 N
ATOM     24  H2  UNL     1     -83.611 -46.116 112.047  1.00  0.00     0.161 HD
BRANCH  23  25
HETATM   25  C2  UNL     1     -82.850 -47.984 112.610  1.00  0.00     0.104 C
HETATM   26  C1  UNL     1     -81.856 -48.866 111.905  1.00  0.00     0.034 C
BRANCH  25  27
HETATM   27  C3  UNL     1     -83.898 -48.921 113.227  1.00  0.00     0.254 C
BRANCH  27  28
HETATM   28  N1  UNL     1     -83.281 -49.850 114.148  1.00  0.00    -0.077 N
ATOM     29  H13 UNL     1     -82.333 -50.092 113.860  1.00  0.00     0.274 HD
ATOM     30  H12 UNL     1     -83.064 -49.407 115.040  1.00  0.00     0.274 HD
ATOM     31  H11 UNL     1     -83.861 -50.680 114.271  1.00  0.00     0.274 HD
ENDBRANCH  27  28
ENDBRANCH  25  27
ENDBRANCH  23  25
ENDBRANCH   1  23
TORSDOF 11
ENDMDL