MODEL 5
REMARK VINA RESULT: -5.071432350      1.455      1.823
REMARK  9 active torsions:
REMARK  status: ('A' for Active; 'I' for Inactive)
REMARK    1  A    between atoms: N1_2  and  C4_5
REMARK    2  A    between atoms: C4_5  and  C5_6
REMARK    3  A    between atoms: C5_6  and  O1_7
REMARK    4  A    between atoms: O1_7  and  C6_8
REMARK    5  A    between atoms: C8_10  and  N2_11
REMARK    6  A    between atoms: C9_14  and  N3_15
REMARK    7  A    between atoms: N3_15  and  C10_17
REMARK    8  A    between atoms: C10_17  and  C11_18
REMARK    9  A    between atoms: C11_18  and  O2_19
ROOT
HETATM    1  C6  UNL     1     -82.965 -47.358 111.708  1.00  0.00     0.159 A
HETATM    2  C7  UNL     1     -82.690 -47.948 110.495  1.00  0.00     0.090 A
HETATM    3  C8  UNL     1     -81.858 -47.256 109.596  1.00  0.00     0.075 A
HETATM    4  C9  UNL     1     -81.333 -46.033 109.912  1.00  0.00     0.146 A
HETATM    5  N4  UNL     1     -81.649 -45.515 111.126  1.00  0.00    -0.282 N
ATOM      6  H4  UNL     1     -81.274 -44.604 111.392  1.00  0.00     0.188 HD
HETATM    7  N5  UNL     1     -82.433 -46.164 111.974  1.00  0.00    -0.278 N
ATOM      8  H5  UNL     1     -82.639 -45.730 112.875  1.00  0.00     0.189 HD
ENDROOT
BRANCH   1   9
HETATM    9  O1  UNL     1     -83.785 -48.043 112.588  1.00  0.00    -0.333 OA
BRANCH   9  10
HETATM   10  C5  UNL     1     -85.102 -48.429 112.283  1.00  0.00     0.205 C
BRANCH  10  11
HETATM   11  C4  UNL     1     -85.598 -47.580 111.155  1.00  0.00     0.262 C
BRANCH  11  12
HETATM   12  N1  UNL     1     -86.629 -48.219 110.368  1.00  0.00    -0.077 N
HETATM   13  C1  UNL     1     -86.090 -48.423 109.028  1.00  0.00     0.271 C
HETATM   14  C2  UNL     1     -87.757 -47.323 110.289  1.00  0.00     0.271 C
HETATM   15  C3  UNL     1     -87.007 -49.477 110.957  1.00  0.00     0.271 C
ENDBRANCH  11  12
ENDBRANCH  10  11
ENDBRANCH   9  10
ENDBRANCH   1   9
BRANCH   3  16
HETATM   16  N2  UNL     1     -81.578 -47.771 108.459  1.00  0.00    -0.396 N
ATOM     17  H22 UNL     1     -81.717 -48.772 108.326  1.00  0.00     0.156 HD
ATOM     18  H21 UNL     1     -81.224 -47.180 107.707  1.00  0.00     0.156 HD
ENDBRANCH   3  16
BRANCH   4  19
HETATM   19  N3  UNL     1     -80.592 -45.382 109.151  1.00  0.00    -0.351 N
ATOM     20  H3  UNL     1     -80.649 -45.690 108.180  1.00  0.00     0.166 HD
BRANCH  19  21
HETATM   21  C10 UNL     1     -79.692 -44.315 109.339  1.00  0.00     0.088 C
BRANCH  21  22
HETATM   22  C11 UNL     1     -78.681 -44.211 108.211  1.00  0.00     0.208 C
BRANCH  22  23
HETATM   23  O2  UNL     1     -77.666 -43.363 108.673  1.00  0.00    -0.396 OA
ATOM     24  H2  UNL     1     -78.041 -42.863 109.388  1.00  0.00     0.209 HD
ENDBRANCH  22  23
ENDBRANCH  21  22
ENDBRANCH  19  21
ENDBRANCH   4  19
TORSDOF 9
ENDMDL