MODEL 2
REMARK VINA RESULT: -7.202849946      1.349      2.246
REMARK  8 active torsions:
REMARK  status: ('A' for Active; 'I' for Inactive)
REMARK    1  A    between atoms: C2_2  and  N1_3
REMARK    2  A    between atoms: N1_3  and  C3_5
REMARK    3  A    between atoms: C4_8  and  N3_9
REMARK    4  A    between atoms: N5_15  and  C6_17
REMARK    5  A    between atoms: C6_17  and  C7_18
REMARK    6  A    between atoms: C7_18  and  C8_19
REMARK    7  A    between atoms: C8_19  and  C9_20
REMARK    8  A    between atoms: C9_20  and  N6_21
ROOT
HETATM    1  C3  UNL     1     -85.634 -47.964 110.882  1.00  0.00     0.707 A
HETATM    2  N2  UNL     1     -85.186 -48.559 112.003  1.00  0.00    -0.022 N
ATOM      3  H2  UNL     1     -85.838 -49.106 112.567  1.00  0.00     0.203 HD
HETATM    4  C4  UNL     1     -83.904 -48.455 112.405  1.00  0.00     0.705 A
HETATM    5  N4  UNL     1     -83.020 -47.746 111.691  1.00  0.00    -0.022 N
ATOM      6  H4  UNL     1     -82.050 -47.669 111.996  1.00  0.00     0.203 HD
HETATM    7  C5  UNL     1     -83.433 -47.140 110.568  1.00  0.00     0.707 A
HETATM    8  N5  UNL     1     -82.697 -46.434 109.797  1.00  0.00    -0.225 N
ATOM      9  H5  UNL     1     -83.177 -46.046 108.984  1.00  0.00     0.177 HD
HETATM   10  N9  UNL     1     -84.742 -47.257 110.177  1.00  0.00    -0.022 N
ATOM     11  H9  UNL     1     -85.046 -46.791 109.322  1.00  0.00     0.203 HD
ENDROOT
BRANCH   8  12
HETATM   12  C6  UNL     1     -81.326 -46.106 109.887  1.00  0.00     0.138 C
BRANCH  12  13
HETATM   13  C7  UNL     1     -80.970 -44.790 110.468  1.00  0.00     0.022 C
BRANCH  13  14
HETATM   14  C8  UNL     1     -81.631 -43.644 109.750  1.00  0.00     0.021 C
BRANCH  14  15
HETATM   15  C9  UNL     1     -80.640 -42.744 109.108  1.00  0.00     0.122 C
BRANCH  15  16
HETATM   16  N6  UNL     1     -79.873 -43.452 108.090  1.00  0.00    -0.367 N
HETATM   17  C10 UNL     1     -78.667 -43.826 108.256  1.00  0.00     0.196 C
HETATM   18  N7  UNL     1     -78.000 -44.509 107.211  1.00  0.00    -0.067 NA
HETATM   19  N8  UNL     1     -77.977 -43.574 109.462  1.00  0.00    -0.067 NA
ATOM     20  H6  UNL     1     -80.325 -43.659 107.200  1.00  0.00     0.161 HD
ENDBRANCH  15  16
ENDBRANCH  14  15
ENDBRANCH  13  14
ENDBRANCH  12  13
ENDBRANCH   8  12
BRANCH   4  21
HETATM   21  N3  UNL     1     -83.510 -49.052 113.504  1.00  0.00    -0.234 N
ATOM     22  H32 UNL     1     -84.122 -49.051 114.319  1.00  0.00     0.174 HD
ATOM     23  H31 UNL     1     -82.599 -49.511 113.538  1.00  0.00     0.174 HD
ENDBRANCH   4  21
BRANCH   1  24
HETATM   24  N1  UNL     1     -86.869 -48.094 110.543  1.00  0.00    -0.225 N
ATOM     25  H1  UNL     1     -87.235 -47.500 109.800  1.00  0.00     0.177 HD
BRANCH  24  26
HETATM   26  C2  UNL     1     -87.762 -49.047 111.170  1.00  0.00     0.133 C
HETATM   27  C1  UNL     1     -88.833 -48.394 111.975  1.00  0.00     0.027 C
ENDBRANCH  24  26
ENDBRANCH   1  24
TORSDOF 8
ENDMDL