MODEL 1
REMARK VINA RESULT: -6.278956057      0.000      0.000
REMARK  10 active torsions:
REMARK  status: ('A' for Active; 'I' for Inactive)
REMARK    1  A    between atoms: C3_3  and  N1_4
REMARK    2  A    between atoms: N1_4  and  C4_6
REMARK    3  A    between atoms: C5_9  and  N3_10
REMARK    4  A    between atoms: N3_10  and  C6_12
REMARK    5  A    between atoms: C6_12  and  C7_13
REMARK    6  A    between atoms: C7_13  and  N4_14
REMARK    7  A    between atoms: C8_20  and  N6_21
REMARK    8  A    between atoms: N6_21  and  C9_23
REMARK    9  A    between atoms: C9_23  and  C10_24
REMARK   10  A    between atoms: C10_24  and  C11_25
ROOT
HETATM    1  C1  UNL     1     -86.733 -48.281 110.078  1.00  0.00     0.014 C
HETATM    2  C2  UNL     1     -86.034 -48.176 109.098  1.00  0.00    -0.097 C
HETATM    3  C3  UNL     1     -85.182 -48.023 107.917  1.00  0.00     0.231 C
ENDROOT
BRANCH   3   4
HETATM    4  N1  UNL     1     -83.774 -48.076 108.284  1.00  0.00    -0.215 N
ATOM      5  H1  UNL     1     -83.124 -48.539 107.648  1.00  0.00     0.178 HD
BRANCH   4   6
HETATM    6  C4  UNL     1     -83.314 -47.575 109.359  1.00  0.00     0.708 A
HETATM    7  N2  UNL     1     -83.045 -48.376 110.399  1.00  0.00    -0.021 N
HETATM    8  C5  UNL     1     -82.561 -47.853 111.532  1.00  0.00     0.707 A
ATOM      9  H2  UNL     1     -83.208 -49.380 110.327  1.00  0.00     0.203 HD
HETATM   10  N5  UNL     1     -82.354 -46.534 111.609  1.00  0.00    -0.022 N
HETATM   11  C8  UNL     1     -82.620 -45.716 110.574  1.00  0.00     0.707 A
ATOM     12  H5  UNL     1     -81.985 -46.138 112.474  1.00  0.00     0.203 HD
HETATM   13  N7  UNL     1     -83.109 -46.252 109.429  1.00  0.00    -0.021 N
ATOM     14  H7  UNL     1     -83.319 -45.655 108.628  1.00  0.00     0.203 HD
BRANCH   8  15
HETATM   15  N3  UNL     1     -82.289 -48.590 112.560  1.00  0.00    -0.223 N
ATOM     16  H3  UNL     1     -81.324 -48.836 112.781  1.00  0.00     0.177 HD
BRANCH  15  17
HETATM   17  C6  UNL     1     -83.369 -49.057 113.384  1.00  0.00     0.165 C
BRANCH  17  18
HETATM   18  C7  UNL     1     -82.777 -49.869 114.515  1.00  0.00     0.249 C
BRANCH  18  19
HETATM   19  N4  UNL     1     -83.309 -51.219 114.383  1.00  0.00    -0.078 N
ATOM     20  H43 UNL     1     -84.124 -51.390 114.972  1.00  0.00     0.274 HD
ATOM     21  H42 UNL     1     -83.763 -51.387 113.486  1.00  0.00     0.274 HD
ATOM     22  H41 UNL     1     -82.537 -51.858 114.570  1.00  0.00     0.274 HD
ENDBRANCH  18  19
ENDBRANCH  17  18
ENDBRANCH  15  17
ENDBRANCH   8  15
BRANCH  11  23
HETATM   23  N6  UNL     1     -82.418 -44.457 110.655  1.00  0.00    -0.225 N
ATOM     24  H6  UNL     1     -82.835 -43.939 111.428  1.00  0.00     0.177 HD
BRANCH  23  25
HETATM   25  C9  UNL     1     -81.617 -43.743 109.685  1.00  0.00     0.142 C
BRANCH  25  26
HETATM   26  C10 UNL     1     -80.245 -44.324 109.662  1.00  0.00     0.046 C
BRANCH  26  27
HETATM   27  C11 UNL     1     -79.518 -43.911 108.455  1.00  0.00    -0.035 C
HETATM   28  C12 UNL     1     -78.284 -44.156 108.144  1.00  0.00     0.007 C
ENDBRANCH  26  27
ENDBRANCH  25  26
ENDBRANCH  23  25
ENDBRANCH  11  23
ENDBRANCH   4   6
ENDBRANCH   3   4
TORSDOF 10
ENDMDL