MODEL 1
REMARK VINA RESULT: -7.754980851      0.000      0.000
REMARK  8 active torsions:
REMARK  status: ('A' for Active; 'I' for Inactive)
REMARK    1  A    between atoms: N2_4  and  C1_6
REMARK    2  A    between atoms: C2_9  and  N4_10
REMARK    3  A    between atoms: N6_16  and  C5_17
REMARK    4  A    between atoms: C5_17  and  C6_18
REMARK    5  A    between atoms: C6_18  and  C7_19
REMARK    6  A    between atoms: C7_19  and  C8_20
REMARK    7  A    between atoms: C8_20  and  C9_21
REMARK    8  A    between atoms: C9_21  and  N7_22
ROOT
HETATM    1  C1  UNL     1     -84.433 -47.751 109.288  1.00  0.00     0.700 A
HETATM    2  N3  UNL     1     -85.645 -48.018 109.820  1.00  0.00    -0.174 N
ATOM      3  H3  UNL     1     -86.457 -48.142 109.216  1.00  0.00     0.186 HD
HETATM    4  C2  UNL     1     -85.772 -48.118 111.162  1.00  0.00     0.140 A
HETATM    5  C3  UNL     1     -84.674 -47.953 111.977  1.00  0.00     0.106 A
HETATM    6  N5  UNL     1     -84.718 -48.040 113.380  1.00  0.00    -0.097 NA
HETATM    7  C4  UNL     1     -83.442 -47.679 111.388  1.00  0.00     0.139 A
HETATM    8  N6  UNL     1     -83.336 -47.583 110.050  1.00  0.00    -0.190 N
ENDROOT
BRANCH   8   9
HETATM    9  C5  UNL     1     -82.054 -47.297 109.428  1.00  0.00     0.147 C
BRANCH   9  10
HETATM   10  C6  UNL     1     -81.535 -46.009 109.995  1.00  0.00     0.021 C
BRANCH  10  11
HETATM   11  C7  UNL     1     -82.526 -44.891 109.944  1.00  0.00     0.003 C
BRANCH  11  12
HETATM   12  C8  UNL     1     -81.881 -43.533 110.113  1.00  0.00     0.020 C
BRANCH  12  13
HETATM   13  C9  UNL     1     -81.275 -43.140 108.771  1.00  0.00     0.122 C
BRANCH  13  14
HETATM   14  N7  UNL     1     -79.865 -42.929 108.938  1.00  0.00    -0.367 N
HETATM   15  C10 UNL     1     -79.010 -43.685 108.337  1.00  0.00     0.196 C
HETATM   16  N8  UNL     1     -79.496 -44.722 107.512  1.00  0.00    -0.067 NA
HETATM   17  N9  UNL     1     -77.605 -43.460 108.515  1.00  0.00    -0.067 NA
ATOM     18  H7  UNL     1     -79.536 -42.173 109.538  1.00  0.00     0.161 HD
ENDBRANCH  13  14
ENDBRANCH  12  13
ENDBRANCH  11  12
ENDBRANCH  10  11
ENDBRANCH   9  10
ENDBRANCH   8   9
BRANCH   1  19
HETATM   19  N2  UNL     1     -84.317 -47.657 108.026  1.00  0.00    -0.138 N
HETATM   20  N1  UNL     1     -84.460 -47.983 106.829  1.00  0.00    -0.331 N
ATOM     21  H12 UNL     1     -84.990 -48.843 106.967  1.00  0.00     0.177 HD
ATOM     22  H11 UNL     1     -84.368 -47.907 105.816  1.00  0.00     0.177 HD
ATOM     23  H2  UNL     1     -83.786 -46.791 107.937  1.00  0.00     0.205 HD
ENDBRANCH   1  19
BRANCH   4  24
HETATM   24  N4  UNL     1     -86.897 -48.369 111.724  1.00  0.00    -0.383 N
ATOM     25  H42 UNL     1     -87.707 -47.825 111.425  1.00  0.00     0.157 HD
ATOM     26  H41 UNL     1     -86.996 -49.083 112.445  1.00  0.00     0.157 HD
ENDBRANCH   4  24
TORSDOF 8
ENDMDL