MODEL 5
REMARK VINA RESULT: -6.054999310      2.089      2.404
REMARK  9 active torsions:
REMARK  status: ('A' for Active; 'I' for Inactive)
REMARK    1  A    between atoms: C2_2  and  N1_3
REMARK    2  A    between atoms: N1_3  and  C3_5
REMARK    3  A    between atoms: C4_8  and  N3_9
REMARK    4  A    between atoms: C6_14  and  N5_15
REMARK    5  A    between atoms: N5_15  and  C7_17
REMARK    6  A    between atoms: C7_17  and  C8_18
REMARK    7  A    between atoms: C8_18  and  C9_19
REMARK    8  A    between atoms: C9_19  and  N6_20
REMARK    9  A    between atoms: N6_20  and  C10_22
ROOT
HETATM    1  C3  UNL     1     -83.026 -47.845 109.213  1.00  0.00     0.707 A
HETATM    2  N2  UNL     1     -82.576 -48.670 110.159  1.00  0.00    -0.022 N
ATOM      3  H2  UNL     1     -82.657 -49.678 110.023  1.00  0.00     0.203 HD
HETATM    4  C4  UNL     1     -82.009 -48.194 111.302  1.00  0.00     0.706 A
HETATM    5  N4  UNL     1     -81.917 -46.875 111.451  1.00  0.00    -0.022 N
ATOM      6  H4  UNL     1     -81.496 -46.506 112.303  1.00  0.00     0.203 HD
HETATM    7  C6  UNL     1     -82.362 -46.005 110.512  1.00  0.00     0.707 A
HETATM    8  N8  UNL     1     -82.912 -46.522 109.406  1.00  0.00    -0.022 N
ATOM      9  H8  UNL     1     -83.257 -45.888 108.685  1.00  0.00     0.203 HD
ENDROOT
BRANCH   7  10
HETATM   10  N5  UNL     1     -82.234 -44.777 110.740  1.00  0.00    -0.225 N
ATOM     11  H5  UNL     1     -81.915 -44.529 111.677  1.00  0.00     0.177 HD
BRANCH  10  12
HETATM   12  C7  UNL     1     -82.473 -43.686 109.859  1.00  0.00     0.139 C
BRANCH  12  13
HETATM   13  C8  UNL     1     -81.230 -42.814 109.755  1.00  0.00     0.040 C
BRANCH  13  14
HETATM   14  C9  UNL     1     -80.663 -42.907 108.356  1.00  0.00     0.122 C
BRANCH  14  15
HETATM   15  N6  UNL     1     -80.130 -44.238 108.120  1.00  0.00    -0.386 N
ATOM     16  H6  UNL     1     -80.684 -44.891 107.566  1.00  0.00     0.160 HD
BRANCH  15  17
HETATM   17  C10 UNL     1     -78.876 -44.673 108.625  1.00  0.00     0.168 C
HETATM   18  N7  UNL     1     -77.986 -43.777 108.919  1.00  0.00    -0.396 N
ATOM     19  H72 UNL     1     -78.198 -42.788 108.785  1.00  0.00     0.156 HD
ATOM     20  H71 UNL     1     -77.086 -44.090 109.281  1.00  0.00     0.156 HD
ENDBRANCH  15  17
ENDBRANCH  14  15
ENDBRANCH  13  14
ENDBRANCH  12  13
ENDBRANCH  10  12
ENDBRANCH   7  10
BRANCH   4  21
HETATM   21  N3  UNL     1     -81.572 -48.974 112.217  1.00  0.00    -0.229 N
HETATM   22  C5  UNL     1     -80.473 -49.852 111.948  1.00  0.00     0.165 C
ATOM     23  H3  UNL     1     -82.007 -48.970 113.140  1.00  0.00     0.177 HD
ENDBRANCH   4  21
BRANCH   1  24
HETATM   24  N1  UNL     1     -83.554 -48.285 108.151  1.00  0.00    -0.225 N
ATOM     25  H1  UNL     1     -83.003 -48.946 107.605  1.00  0.00     0.177 HD
BRANCH  24  26
HETATM   26  C2  UNL     1     -84.842 -47.950 107.639  1.00  0.00     0.133 C
HETATM   27  C1  UNL     1     -85.872 -48.222 108.712  1.00  0.00     0.027 C
ENDBRANCH  24  26
ENDBRANCH   1  24
TORSDOF 9
ENDMDL