MODEL 4
REMARK VINA RESULT: -7.809475414      3.992      5.795
REMARK  7 active torsions:
REMARK  status: ('A' for Active; 'I' for Inactive)
REMARK    1  A    between atoms: C2_2  and  C11_19
REMARK    2  A    between atoms: C3_3  and  O1_4
REMARK    3  A    between atoms: C3_3  and  C4_6
REMARK    4  A    between atoms: C6_11  and  C7_12
REMARK    5  A    between atoms: C7_12  and  C8_13
REMARK    6  A    between atoms: C11_19  and  O3_20
REMARK    7  A    between atoms: C11_19  and  C12_22
ROOT
HETATM    1  C4  UNL     1      23.256  45.302  58.535  1.00  0.00     0.112 A
HETATM    2  N1  UNL     1      22.982  46.647  58.587  1.00  0.00    -0.326 N
ATOM      3  H1  UNL     1      22.873  47.115  59.487  1.00  0.00     0.168 HD
HETATM    4  C5  UNL     1      22.865  47.309  57.493  1.00  0.00     0.184 A
HETATM    5  O2  UNL     1      22.611  48.580  57.166  1.00  0.00    -0.278 OA
HETATM    6  C6  UNL     1      22.602  48.722  55.879  1.00  0.00     0.127 A
HETATM    7  N2  UNL     1      22.848  47.555  55.275  1.00  0.00    -0.331 N
ATOM      8  H2  UNL     1      22.901  47.368  54.273  1.00  0.00     0.168 HD
HETATM    9  C10 UNL     1      23.012  46.669  56.304  1.00  0.00     0.130 A
HETATM   10  S1  UNL     1      23.324  45.092  56.854  1.00  0.00    -0.047 SA
ENDROOT
BRANCH   1  11
HETATM   11  C3  UNL     1      23.371  44.485  59.719  1.00  0.00     0.108 C
HETATM   12  C2  UNL     1      22.604  44.227  60.850  1.00  0.00     0.003 C
HETATM   13  C1  UNL     1      23.263  43.339  61.756  1.00  0.00     0.054 C
BRANCH  12  14
HETATM   14  C11 UNL     1      21.329  44.639  61.313  1.00  0.00     0.056 C
BRANCH  14  15
HETATM   15  O3  UNL     1      20.645  43.684  61.940  1.00  0.00    -0.364 OA
ATOM     16  H3  UNL     1      21.148  43.216  62.597  1.00  0.00     0.217 HD
ENDBRANCH  14  15
BRANCH  14  17
HETATM   17  C12 UNL     1      20.620  45.882  61.236  1.00  0.00     0.043 C
HETATM   18  C13 UNL     1      21.595  47.072  61.392  1.00  0.00     0.011 C
HETATM   19  C14 UNL     1      21.934  47.122  62.834  1.00  0.00     0.001 C
HETATM   20  C15 UNL     1      20.876  46.328  63.540  1.00  0.00     0.001 C
HETATM   21  C16 UNL     1      19.790  46.115  62.501  1.00  0.00     0.011 C
ENDBRANCH  14  17
ENDBRANCH  12  14
BRANCH  11  22
HETATM   22  O1  UNL     1      24.545  43.800  59.701  1.00  0.00    -0.357 OA
ATOM     23  H1  UNL     1      24.869  43.589  60.569  1.00  0.00     0.217 HD
ENDBRANCH  11  22
ENDBRANCH   1  11
BRANCH   6  24
HETATM   24  C7  UNL     1      22.343  50.049  55.232  1.00  0.00     0.084 C
BRANCH  24  25
HETATM   25  C8  UNL     1      21.318  49.873  54.143  1.00  0.00     0.003 C
HETATM   26  C9  UNL     1      20.591  51.196  53.942  1.00  0.00     0.005 C
ENDBRANCH  24  25
ENDBRANCH   6  24
TORSDOF 7
ENDMDL