MODEL 3
REMARK VINA RESULT: -8.729587150      4.870      8.077
REMARK  6 active torsions:
REMARK  status: ('A' for Active; 'I' for Inactive)
REMARK    1  A    between atoms: C4_4  and  C5_5
REMARK    2  A    between atoms: C5_5  and  O1_6
REMARK    3  A    between atoms: O1_6  and  C6_7
REMARK    4  A    between atoms: C6_7  and  C7_8
REMARK    5  A    between atoms: C6_7  and  N3_19
REMARK    6  A    between atoms: C8_13  and  C9_14
ROOT
HETATM    1  C6  UNL     1      27.099  42.890  60.860  1.00  0.00     0.306 C
ENDROOT
BRANCH   1   2
HETATM    2  O1  UNL     1      26.839  44.220  61.175  1.00  0.00    -0.354 OA
BRANCH   2   3
HETATM    3  C5  UNL     1      25.519  44.572  60.969  1.00  0.00     0.209 C
BRANCH   3   4
HETATM    4  C4  UNL     1      25.249  45.763  61.838  1.00  0.00    -0.035 A
HETATM    5  C3  UNL     1      26.245  46.343  62.608  1.00  0.00     0.009 A
HETATM    6  C2  UNL     1      26.018  47.441  63.415  1.00  0.00     0.001 A
HETATM    7  C1  UNL     1      24.744  47.979  63.454  1.00  0.00     0.000 A
HETATM    8  C17 UNL     1      23.726  47.421  62.696  1.00  0.00     0.001 A
HETATM    9  C16 UNL     1      23.988  46.334  61.908  1.00  0.00     0.009 A
ENDBRANCH   3   4
ENDBRANCH   2   3
ENDBRANCH   1   2
BRANCH   1  10
HETATM   10  C7  UNL     1      27.964  42.327  61.928  1.00  0.00     0.190 A
HETATM   11  N1  UNL     1      29.314  42.475  61.958  1.00  0.00    -0.278 N
HETATM   12  N2  UNL     1      29.766  41.852  63.041  1.00  0.00    -0.281 N
ATOM     13  H1  UNL     1      29.880  42.975  61.273  1.00  0.00     0.189 HD
HETATM   14  C8  UNL     1      28.711  41.323  63.677  1.00  0.00     0.144 A
ATOM     15  H2  UNL     1      30.740  41.787  63.336  1.00  0.00     0.189 HD
HETATM   16  O2  UNL     1      27.664  41.628  62.984  1.00  0.00    -0.277 OA
BRANCH  14  17
HETATM   17  C9  UNL     1      28.795  40.550  64.927  1.00  0.00     0.062 C
HETATM   18  C10 UNL     1      29.215  41.426  66.114  1.00  0.00     0.013 C
HETATM   19  C11 UNL     1      28.262  40.594  66.948  1.00  0.00     0.002 C
HETATM   20  C12 UNL     1      27.476  40.361  65.650  1.00  0.00     0.013 C
ENDBRANCH  14  17
ENDBRANCH   1  10
BRANCH   1  21
HETATM   21  N3  UNL     1      27.832  42.910  59.585  1.00  0.00    -0.318 N
HETATM   22  C13 UNL     1      28.061  41.876  58.754  1.00  0.00     0.112 A
HETATM   23  C14 UNL     1      28.788  42.328  57.670  1.00  0.00     0.106 A
HETATM   24  N4  UNL     1      28.994  43.634  57.853  1.00  0.00    -0.361 N
HETATM   25  C15 UNL     1      28.416  43.978  59.009  1.00  0.00     0.185 A
ATOM     26  H4  UNL     1      29.502  44.257  57.225  1.00  0.00     0.166 HD
ENDBRANCH   1  21
TORSDOF 6
ENDMDL