MODEL 3
REMARK VINA RESULT: -8.520387643      1.978      4.017
REMARK  5 active torsions:
REMARK  status: ('A' for Active; 'I' for Inactive)
REMARK    1  A    between atoms: C2_2  and  C3_3
REMARK    2  A    between atoms: C3_3  and  S1_4
REMARK    3  A    between atoms: S1_4  and  O1_5
REMARK    4  A    between atoms: O1_5  and  C4_6
REMARK    5  A    between atoms: C4_6  and  C5_7
ROOT
HETATM    1  S1  UNL     1      22.807  46.185  59.887  1.00  0.00     0.048 SA
HETATM    2  O2  UNL     1      22.406  47.234  58.132  1.00  0.00    -0.271 OA
HETATM    3  C9  UNL     1      23.113  46.399  57.290  1.00  0.00     0.181 C
HETATM    4  C10 UNL     1      22.439  46.583  55.916  1.00  0.00     0.080 C
HETATM    5  C11 UNL     1      24.541  46.852  57.087  1.00  0.00     0.098 C
HETATM    6  C12 UNL     1      25.301  45.686  56.468  1.00  0.00     0.215 C
HETATM    7  O3  UNL     1      25.506  44.661  57.405  1.00  0.00    -0.237 OA
HETATM    8  O4  UNL     1      25.056  45.103  58.547  1.00  0.00    -0.186 OA
HETATM    9  C13 UNL     1      23.755  44.785  58.716  1.00  0.00     0.276 C
HETATM   10  C14 UNL     1      23.471  43.436  59.257  1.00  0.00     0.099 C
HETATM   11  O5  UNL     1      22.957  45.091  57.597  1.00  0.00    -0.305 OA
ENDROOT
BRANCH   1  12
HETATM   12  C3  UNL     1      23.518  47.171  61.270  1.00  0.00     0.056 C
BRANCH  12  13
HETATM   13  C2  UNL     1      24.677  46.690  62.087  1.00  0.00     0.032 C
HETATM   14  C1  UNL     1      25.176  47.657  63.122  1.00  0.00     0.010 C
ENDBRANCH  12  13
ENDBRANCH   1  12
BRANCH   1  15
HETATM   15  O1  UNL     1      20.933  45.471  60.271  1.00  0.00    -0.309 OA
BRANCH  15  16
HETATM   16  C4  UNL     1      20.145  46.559  59.885  1.00  0.00     0.195 C
BRANCH  16  17
HETATM   17  C5  UNL     1      18.962  46.616  60.808  1.00  0.00    -0.021 A
HETATM   18  C6  UNL     1      19.251  46.293  62.263  1.00  0.00     0.017 C
HETATM   19  C7  UNL     1      17.599  46.256  60.338  1.00  0.00     0.012 A
HETATM   20  C8  UNL     1      17.961  47.687  60.489  1.00  0.00     0.012 A
ENDBRANCH  16  17
ENDBRANCH  15  16
ENDBRANCH   1  15
TORSDOF 5
ENDMDL