MODEL 5
REMARK VINA RESULT: -7.401742273      1.114      1.624
REMARK  7 active torsions:
REMARK  status: ('A' for Active; 'I' for Inactive)
REMARK    1  A    between atoms: C2_2  and  C3_3
REMARK    2  A    between atoms: C2_2  and  O1_19
REMARK    3  A    between atoms: C3_3  and  S1_4
REMARK    4  A    between atoms: S1_4  and  C4_5
REMARK    5  A    between atoms: C5_10  and  C6_11
REMARK    6  A    between atoms: N3_14  and  C9_15
REMARK    7  A    between atoms: O1_19  and  C13_20
ROOT
HETATM    1  C4  UNL     1      22.358  46.819  62.018  1.00  0.00     0.163 A
HETATM    2  N1  UNL     1      21.419  46.955  62.947  1.00  0.00    -0.278 N
ATOM      3  H1  UNL     1      21.585  47.038  63.951  1.00  0.00     0.189 HD
HETATM    4  N2  UNL     1      20.259  46.966  62.370  1.00  0.00    -0.286 N
ATOM      5  H2  UNL     1      19.355  47.059  62.834  1.00  0.00     0.188 HD
HETATM    6  C5  UNL     1      20.468  46.832  61.028  1.00  0.00     0.104 A
HETATM    7  N3  UNL     1      21.773  46.738  60.786  1.00  0.00    -0.310 N
ENDROOT
BRANCH   1   8
HETATM    8  S1  UNL     1      24.100  46.749  62.288  1.00  0.00    -0.090 SA
BRANCH   8   9
HETATM    9  C3  UNL     1      24.883  45.267  61.604  1.00  0.00     0.114 C
BRANCH   9  10
HETATM   10  C2  UNL     1      26.398  45.493  61.637  1.00  0.00     0.128 C
HETATM   11  C1  UNL     1      26.617  46.455  62.787  1.00  0.00     0.040 C
BRANCH  10  12
HETATM   12  O1  UNL     1      27.133  44.392  61.636  1.00  0.00    -0.376 OA
BRANCH  12  13
HETATM   13  C13 UNL     1      27.825  43.902  60.615  1.00  0.00     0.050 C
HETATM   14  C14 UNL     1      28.579  44.924  59.785  1.00  0.00     0.045 C
HETATM   15  C15 UNL     1      28.926  43.016  61.201  1.00  0.00     0.045 C
HETATM   16  C16 UNL     1      27.058  42.988  59.675  1.00  0.00     0.045 C
ENDBRANCH  12  13
ENDBRANCH  10  12
ENDBRANCH   9  10
ENDBRANCH   8   9
ENDBRANCH   1   8
BRANCH   7  17
HETATM   17  C9  UNL     1      22.448  46.587  59.548  1.00  0.00     0.093 C
HETATM   18  C10 UNL     1      22.140  47.546  58.436  1.00  0.00     0.026 C
HETATM   19  C11 UNL     1      22.211  46.351  57.481  1.00  0.00     0.004 C
HETATM   20  C12 UNL     1      22.147  45.407  58.686  1.00  0.00     0.026 C
ENDBRANCH   7  17
BRANCH   6  21
HETATM   21  C6  UNL     1      19.361  46.805  60.074  1.00  0.00     0.055 A
HETATM   22  C7  UNL     1      18.091  47.611  60.440  1.00  0.00     0.013 A
HETATM   23  C8  UNL     1      18.040  46.160  60.612  1.00  0.00     0.013 A
ENDBRANCH   6  21
TORSDOF 7
ENDMDL