MODEL 4
REMARK VINA RESULT: -8.095241502      5.573      9.041
REMARK  6 active torsions:
REMARK  status: ('A' for Active; 'I' for Inactive)
REMARK    1  A    between atoms: C3_7  and  C4_8
REMARK    2  A    between atoms: C4_8  and  C6_10
REMARK    3  A    between atoms: C6_10  and  C7_11
REMARK    4  A    between atoms: C7_11  and  C8_12
REMARK    5  A    between atoms: C8_12  and  C9_13
REMARK    6  A    between atoms: C10_17  and  C11_18
ROOT
HETATM    1  C8  UNL     1      28.556  41.749  61.792  1.00  0.00     0.078 C
ENDROOT
BRANCH   1   2
HETATM    2  C7  UNL     1      29.370  41.955  63.037  1.00  0.00     0.008 C
BRANCH   2   3
HETATM    3  C6  UNL     1      29.633  40.703  63.809  1.00  0.00     0.012 C
BRANCH   3   4
HETATM    4  C4  UNL     1      29.279  40.779  65.262  1.00  0.00     0.051 C
HETATM    5  C5  UNL     1      27.850  40.235  65.387  1.00  0.00     0.018 C
BRANCH   4   6
HETATM    6  C3  UNL     1      30.192  39.925  66.068  1.00  0.00     0.102 A
HETATM    7  N2  UNL     1      29.894  38.692  66.571  1.00  0.00    -0.287 N
HETATM    8  N1  UNL     1      30.951  38.252  67.227  1.00  0.00    -0.288 N
ATOM      9  H2  UNL     1      29.009  38.198  66.461  1.00  0.00     0.188 HD
HETATM   10  C2  UNL     1      31.935  39.155  67.171  1.00  0.00     0.095 A
ATOM     11  H1  UNL     1      31.009  37.352  67.705  1.00  0.00     0.188 HD
HETATM   12  C1  UNL     1      33.261  39.023  67.781  1.00  0.00     0.091 C
HETATM   13  N5  UNL     1      31.437  40.181  66.446  1.00  0.00    -0.329 N
HETATM   14  C17 UNL     1      32.204  41.389  66.149  1.00  0.00     0.159 C
ENDBRANCH   4   6
ENDBRANCH   3   4
ENDBRANCH   2   3
ENDBRANCH   1   2
BRANCH   1  15
HETATM   15  C9  UNL     1      28.043  43.091  61.374  1.00  0.00     0.103 A
HETATM   16  N3  UNL     1      28.453  43.846  60.348  1.00  0.00    -0.247 N
HETATM   17  O1  UNL     1      27.758  44.938  60.324  1.00  0.00    -0.222 OA
ATOM     18  H3  UNL     1      29.194  43.600  59.692  1.00  0.00     0.196 HD
HETATM   19  C10 UNL     1      26.893  44.944  61.300  1.00  0.00     0.152 A
HETATM   20  N4  UNL     1      27.052  43.797  61.973  1.00  0.00    -0.327 N
ATOM     21  H4  UNL     1      26.521  43.506  62.794  1.00  0.00     0.169 HD
BRANCH  19  22
HETATM   22  C11 UNL     1      25.933  45.989  61.609  1.00  0.00     0.063 C
HETATM   23  C12 UNL     1      26.174  46.617  62.985  1.00  0.00     0.013 C
HETATM   24  C13 UNL     1      25.258  47.808  63.056  1.00  0.00     0.001 C
HETATM   25  C14 UNL     1      23.821  47.495  62.888  1.00  0.00     0.000 C
HETATM   26  C15 UNL     1      23.493  46.466  61.868  1.00  0.00     0.001 C
HETATM   27  C16 UNL     1      24.530  45.415  61.670  1.00  0.00     0.013 C
ENDBRANCH  19  22
ENDBRANCH   1  15
TORSDOF 6
ENDMDL