MODEL 3
REMARK VINA RESULT: -8.208754812      1.283      1.482
REMARK  6 active torsions:
REMARK  status: ('A' for Active; 'I' for Inactive)
REMARK    1  A    between atoms: C2_2  and  C3_3
REMARK    2  A    between atoms: C4_7  and  C5_8
REMARK    3  A    between atoms: C5_8  and  C6_9
REMARK    4  A    between atoms: C6_9  and  C7_10
REMARK    5  A    between atoms: N2_15  and  C12_16
REMARK    6  A    between atoms: C12_16  and  C13_17
ROOT
HETATM    1  C7  UNL     1      24.862  45.437  60.973  1.00  0.00     0.224 C
HETATM    2  C8  UNL     1      24.401  44.073  61.327  1.00  0.00     0.036 C
HETATM    3  C9  UNL     1      25.561  43.157  61.502  1.00  0.00     0.004 C
HETATM    4  C10 UNL     1      26.651  43.328  60.481  1.00  0.00     0.030 C
HETATM    5  C11 UNL     1      26.840  44.742  60.040  1.00  0.00     0.273 C
HETATM    6  N2  UNL     1      25.572  45.388  59.702  1.00  0.00     0.099 N
ENDROOT
BRANCH   1   7
HETATM    7  C6  UNL     1      23.750  46.457  60.915  1.00  0.00     0.044 C
BRANCH   7   8
HETATM    8  C5  UNL     1      23.421  46.810  62.373  1.00  0.00     0.089 C
BRANCH   8   9
HETATM    9  C4  UNL     1      21.942  46.579  62.535  1.00  0.00     0.148 A
HETATM   10  O1  UNL     1      21.271  46.439  63.652  1.00  0.00    -0.223 OA
HETATM   11  N1  UNL     1      20.015  46.254  63.415  1.00  0.00    -0.247 N
HETATM   12  C3  UNL     1      19.823  46.268  62.086  1.00  0.00     0.103 A
ATOM     13  H1  UNL     1      19.290  46.119  64.121  1.00  0.00     0.196 HD
HETATM   14  N4  UNL     1      21.037  46.473  61.545  1.00  0.00    -0.327 N
ATOM     15  H4  UNL     1      21.239  46.537  60.548  1.00  0.00     0.169 HD
BRANCH  12  16
HETATM   16  C2  UNL     1      18.520  46.093  61.351  1.00  0.00     0.074 C
HETATM   17  C1  UNL     1      18.383  47.352  60.485  1.00  0.00     0.013 C
ENDBRANCH  12  16
ENDBRANCH   8   9
ENDBRANCH   7   8
ENDBRANCH   1   7
BRANCH   6  18
HETATM   18  C12 UNL     1      24.842  44.617  58.751  1.00  0.00     0.337 C
BRANCH  18  19
HETATM   19  C13 UNL     1      24.290  45.535  57.688  1.00  0.00     0.079 A
HETATM   20  N3  UNL     1      24.899  46.481  56.993  1.00  0.00    -0.356 N
HETATM   21  C14 UNL     1      24.241  47.166  56.117  1.00  0.00     0.012 A
ATOM     22  H3  UNL     1      25.889  46.669  57.148  1.00  0.00     0.166 HD
HETATM   23  C15 UNL     1      24.889  48.265  55.290  1.00  0.00     0.068 C
HETATM   24  C16 UNL     1      22.912  46.878  55.943  1.00  0.00     0.076 A
HETATM   25  S1  UNL     1      22.692  45.611  57.076  1.00  0.00    -0.085 SA
ENDBRANCH  18  19
ENDBRANCH   6  18
TORSDOF 6
ENDMDL