MODEL 5
REMARK VINA RESULT: -7.671247043      3.162      5.743
REMARK  6 active torsions:
REMARK  status: ('A' for Active; 'I' for Inactive)
REMARK    1  A    between atoms: C2_2  and  N1_4
REMARK    2  A    between atoms: N1_4  and  C4_5
REMARK    3  A    between atoms: N1_4  and  C9_14
REMARK    4  A    between atoms: C4_5  and  C5_6
REMARK    5  A    between atoms: C9_14  and  C10_15
REMARK    6  A    between atoms: C11_19  and  C12_20
ROOT
HETATM    1  C9  UNL     1      22.501  47.088  61.545  1.00  0.00     0.351 C
ENDROOT
BRANCH   1   2
HETATM    2  N1  UNL     1      21.641  46.144  60.909  1.00  0.00     0.103 N
BRANCH   2   3
HETATM    3  C2  UNL     1      20.402  45.867  61.592  1.00  0.00     0.216 C
HETATM    4  C1  UNL     1      19.172  46.124  60.740  1.00  0.00     0.042 C
HETATM    5  C3  UNL     1      20.272  46.399  62.969  1.00  0.00     0.042 C
ENDBRANCH   2   3
BRANCH   2   6
HETATM    6  C4  UNL     1      21.216  46.730  59.617  1.00  0.00     0.314 C
BRANCH   6   7
HETATM    7  C5  UNL     1      22.170  46.461  58.542  1.00  0.00     0.001 A
HETATM    8  C6  UNL     1      22.612  45.184  58.236  1.00  0.00     0.099 A
HETATM    9  N2  UNL     1      23.482  44.971  57.235  1.00  0.00    -0.361 N
HETATM   10  C7  UNL     1      23.927  46.019  56.521  1.00  0.00     0.180 A
ATOM     11  H2  UNL     1      23.799  44.026  57.018  1.00  0.00     0.166 HD
HETATM   12  N3  UNL     1      23.504  47.273  56.806  1.00  0.00    -0.361 N
HETATM   13  C8  UNL     1      22.637  47.529  57.798  1.00  0.00     0.099 A
ATOM     14  H3  UNL     1      23.857  48.050  56.248  1.00  0.00     0.166 HD
ENDBRANCH   6   7
ENDBRANCH   2   6
ENDBRANCH   1   2
BRANCH   1  15
HETATM   15  C10 UNL     1      23.900  46.668  61.734  1.00  0.00     0.132 A
HETATM   16  N4  UNL     1      24.824  47.390  62.403  1.00  0.00    -0.245 N
HETATM   17  O1  UNL     1      25.946  46.751  62.403  1.00  0.00    -0.222 OA
ATOM     18  H4  UNL     1      24.662  48.297  62.841  1.00  0.00     0.196 HD
HETATM   19  C11 UNL     1      25.837  45.608  61.757  1.00  0.00     0.152 A
HETATM   20  N5  UNL     1      24.561  45.563  61.344  1.00  0.00    -0.325 N
ATOM     21  H5  UNL     1      24.150  44.798  60.810  1.00  0.00     0.169 HD
BRANCH  19  22
HETATM   22  C12 UNL     1      26.942  44.643  61.577  1.00  0.00     0.063 C
HETATM   23  C13 UNL     1      26.480  43.204  61.567  1.00  0.00     0.013 C
HETATM   24  C14 UNL     1      27.684  42.319  61.793  1.00  0.00     0.001 C
HETATM   25  C15 UNL     1      28.729  42.640  60.771  1.00  0.00     0.000 C
HETATM   26  C16 UNL     1      28.241  43.588  59.702  1.00  0.00     0.001 C
HETATM   27  C17 UNL     1      27.717  44.883  60.311  1.00  0.00     0.013 C
ENDBRANCH  19  22
ENDBRANCH   1  15
TORSDOF 6
ENDMDL