MODEL 4
REMARK VINA RESULT: -7.857570463      3.615      6.126
REMARK  6 active torsions:
REMARK  status: ('A' for Active; 'I' for Inactive)
REMARK    1  A    between atoms: C2_2  and  C4_4
REMARK    2  A    between atoms: C5_9  and  C6_10
REMARK    3  A    between atoms: C6_10  and  N3_11
REMARK    4  A    between atoms: C9_14  and  O1_15
REMARK    5  A    between atoms: O1_15  and  C10_16
REMARK    6  A    between atoms: C10_16  and  C11_17
ROOT
HETATM    1  N3  UNL     1      25.031  44.319  59.630  1.00  0.00     0.096 N
HETATM    2  C7  UNL     1      25.896  43.816  58.602  1.00  0.00     0.275 C
HETATM    3  C8  UNL     1      26.918  42.877  59.218  1.00  0.00     0.062 C
HETATM    4  C9  UNL     1      27.880  43.781  59.956  1.00  0.00     0.125 C
HETATM    5  C16 UNL     1      27.132  44.615  60.925  1.00  0.00     0.062 C
HETATM    6  C17 UNL     1      25.666  44.649  60.857  1.00  0.00     0.275 C
ENDROOT
BRANCH   1   7
HETATM    7  C6  UNL     1      23.967  43.369  59.804  1.00  0.00     0.358 C
BRANCH   7   8
HETATM    8  C5  UNL     1      22.813  43.932  60.549  1.00  0.00     0.168 A
HETATM    9  N2  UNL     1      22.094  43.329  61.508  1.00  0.00    -0.280 N
HETATM   10  N1  UNL     1      21.156  44.170  61.914  1.00  0.00    -0.281 N
ATOM     11  H2  UNL     1      22.244  42.385  61.863  1.00  0.00     0.189 HD
HETATM   12  C4  UNL     1      21.275  45.315  61.212  1.00  0.00     0.143 A
ATOM     13  H1  UNL     1      20.461  43.984  62.636  1.00  0.00     0.189 HD
HETATM   14  O2  UNL     1      22.271  45.134  60.411  1.00  0.00    -0.280 OA
BRANCH  12  15
HETATM   15  C2  UNL     1      20.449  46.546  61.313  1.00  0.00     0.054 C
HETATM   16  C1  UNL     1      20.772  47.247  62.616  1.00  0.00     0.018 C
HETATM   17  C3  UNL     1      18.985  46.253  61.227  1.00  0.00     0.018 C
ENDBRANCH  12  15
ENDBRANCH   7   8
ENDBRANCH   1   7
BRANCH   4  18
HETATM   18  O1  UNL     1      28.816  42.959  60.586  1.00  0.00    -0.380 OA
BRANCH  18  19
HETATM   19  C10 UNL     1      28.216  41.805  61.095  1.00  0.00     0.220 C
BRANCH  19  20
HETATM   20  C11 UNL     1      28.616  41.586  62.515  1.00  0.00     0.006 C
HETATM   21  N4  UNL     1      27.852  40.998  63.320  1.00  0.00    -0.395 N
HETATM   22  C12 UNL     1      28.082  40.715  64.688  1.00  0.00     0.119 C
ATOM     23  H4  UNL     1      26.958  40.685  62.942  1.00  0.00     0.159 HD
HETATM   24  C13 UNL     1      29.365  41.228  65.248  1.00  0.00     0.020 C
HETATM   25  C14 UNL     1      30.443  41.373  64.192  1.00  0.00     0.007 C
HETATM   26  C15 UNL     1      29.936  42.075  62.970  1.00  0.00     0.054 C
ENDBRANCH  19  20
ENDBRANCH  18  19
ENDBRANCH   4  18
TORSDOF 6
ENDMDL