MODEL 4
REMARK VINA RESULT: -8.195171620      1.834      4.481
REMARK  5 active torsions:
REMARK  status: ('A' for Active; 'I' for Inactive)
REMARK    1  A    between atoms: O1_2  and  C2_3
REMARK    2  A    between atoms: C5_6  and  C6_7
REMARK    3  A    between atoms: C6_7  and  O2_8
REMARK    4  A    between atoms: O2_8  and  C7_9
REMARK    5  A    between atoms: C12_18  and  C13_19
ROOT
HETATM    1  C7  UNL     1      22.785  45.186  59.821  1.00  0.00     0.171 A
HETATM    2  N1  UNL     1      23.245  45.112  58.557  1.00  0.00    -0.337 N
ATOM      3  H1  UNL     1      23.660  44.237  58.240  1.00  0.00     0.168 HD
HETATM    4  C8  UNL     1      23.180  46.144  57.695  1.00  0.00     0.029 A
HETATM    5  C9  UNL     1      23.711  45.978  56.316  1.00  0.00     0.070 C
HETATM    6  C10 UNL     1      22.625  47.345  58.087  1.00  0.00     0.028 A
HETATM    7  C11 UNL     1      22.531  48.515  57.170  1.00  0.00     0.070 C
HETATM    8  N2  UNL     1      22.161  47.432  59.347  1.00  0.00    -0.354 N
ATOM      9  H2  UNL     1      21.746  48.309  59.661  1.00  0.00     0.166 HD
HETATM   10  C12 UNL     1      22.229  46.397  60.203  1.00  0.00     0.099 A
ENDROOT
BRANCH   1  11
HETATM   11  O2  UNL     1      22.855  44.116  60.704  1.00  0.00    -0.334 OA
BRANCH  11  12
HETATM   12  C6  UNL     1      24.019  44.002  61.497  1.00  0.00     0.184 C
BRANCH  12  13
HETATM   13  C5  UNL     1      25.216  43.572  60.681  1.00  0.00     0.039 C
HETATM   14  C2  UNL     1      26.204  44.697  60.461  1.00  0.00     0.127 C
HETATM   15  C3  UNL     1      27.301  43.755  60.814  1.00  0.00     0.033 C
HETATM   16  C4  UNL     1      26.262  42.949  61.611  1.00  0.00     0.012 C
BRANCH  14  17
HETATM   17  O1  UNL     1      26.181  45.330  59.282  1.00  0.00    -0.390 OA
HETATM   18  C1  UNL     1      27.045  44.963  58.303  1.00  0.00     0.202 C
ENDBRANCH  14  17
ENDBRANCH  12  13
ENDBRANCH  11  12
ENDBRANCH   1  11
BRANCH  10  19
HETATM   19  C13 UNL     1      21.732  46.474  61.574  1.00  0.00     0.050 A
HETATM   20  C14 UNL     1      22.435  46.872  62.690  1.00  0.00     0.043 A
HETATM   21  C15 UNL     1      23.872  47.318  62.748  1.00  0.00     0.071 C
HETATM   22  N3  UNL     1      21.571  46.781  63.715  1.00  0.00    -0.265 N
HETATM   23  O3  UNL     1      20.422  46.360  63.278  1.00  0.00    -0.242 OA
ATOM     24  H3  UNL     1      21.785  47.006  64.687  1.00  0.00     0.194 HD
HETATM   25  C16 UNL     1      20.456  46.157  61.994  1.00  0.00     0.087 A
HETATM   26  C17 UNL     1      19.317  45.672  61.151  1.00  0.00     0.080 C
ENDBRANCH  10  19
TORSDOF 5
ENDMDL