MODEL 3
REMARK VINA RESULT: -8.288669776      4.112      6.916
REMARK  13 active torsions:
REMARK  status: ('A' for Active; 'I' for Inactive)
REMARK    1  A    between atoms: N2_7  and  C5_8
REMARK    2  A    between atoms: C5_8  and  C6_9
REMARK    3  A    between atoms: C6_9  and  C7_10
REMARK    4  A    between atoms: C7_10  and  N3_11
REMARK       I    between atoms: N3_11  and  C8_13
REMARK    5  A    between atoms: C8_13  and  C9_15
REMARK    6  A    between atoms: C9_15  and  N4_16
REMARK    7  A    between atoms: N4_16  and  C10_17
REMARK    8  A    between atoms: C10_17  and  O2_18
REMARK    9  A    between atoms: C10_17  and  N5_20
REMARK   10  A    between atoms: C14_24  and  N6_25
REMARK   11  A    between atoms: C15_27  and  O3_28
REMARK   12  A    between atoms: C15_27  and  O4_30
REMARK   13  A    between atoms: O4_30  and  C16_31
ROOT
HETATM    1  C9  UNL     1      27.163  11.023  -2.858  1.00  0.00     0.184 C
HETATM    2  C20 UNL     1      28.268  10.672  -3.906  1.00  0.00     0.062 C
HETATM    3  C21 UNL     1      27.942   9.342  -4.586  1.00  0.00    -0.002 A
HETATM    4  C22 UNL     1      29.163   8.462  -4.640  1.00  0.00     0.015 A
HETATM    5  C23 UNL     1      28.021   8.228  -3.627  1.00  0.00    -0.039 A
HETATM    6  C24 UNL     1      27.390   6.896  -3.745  1.00  0.00     0.015 C
HETATM    7  C25 UNL     1      28.212   8.751  -2.252  1.00  0.00     0.022 C
HETATM    8  C26 UNL     1      27.385   9.903  -1.806  1.00  0.00     0.000 C
HETATM    9  C27 UNL     1      26.072   9.443  -1.249  1.00  0.00     0.019 C
HETATM   10  C28 UNL     1      28.180  10.444  -0.620  1.00  0.00     0.019 C
ENDROOT
BRANCH   1  11
HETATM   11  C8  UNL     1      25.980  10.843  -3.677  1.00  0.00     0.260 C
HETATM   12  N3  UNL     1      25.830  11.600  -4.890  1.00  0.00    -0.358 N
ATOM     13  H3  UNL     1      26.461  12.379  -5.075  1.00  0.00     0.162 HD
HETATM   14  O1  UNL     1      25.035  10.035  -3.405  1.00  0.00    -0.269 OA
BRANCH  12  15
HETATM   15  C7  UNL     1      24.788  11.272  -5.864  1.00  0.00     0.124 C
BRANCH  15  16
HETATM   16  C6  UNL     1      25.234  10.594  -7.064  1.00  0.00     0.040 C
BRANCH  16  17
HETATM   17  C5  UNL     1      25.211   9.131  -7.211  1.00  0.00     0.131 C
BRANCH  17  18
HETATM   18  N2  UNL     1      26.433   8.481  -7.644  1.00  0.00    -0.346 N
HETATM   19  C2  UNL     1      26.615   7.135  -7.483  1.00  0.00     0.024 A
HETATM   20  C1  UNL     1      25.650   6.167  -6.909  1.00  0.00     0.070 C
HETATM   21  C3  UNL     1      27.872   6.898  -8.007  1.00  0.00     0.113 A
HETATM   22  N1  UNL     1      28.360   8.046  -8.439  1.00  0.00    -0.360 N
HETATM   23  C4  UNL     1      27.476   9.036  -8.221  1.00  0.00     0.183 A
ATOM     24  H1  UNL     1      29.275   8.164  -8.875  1.00  0.00     0.166 HD
ENDBRANCH  17  18
ENDBRANCH  16  17
ENDBRANCH  15  16
ENDBRANCH  12  15
ENDBRANCH   1  11
BRANCH   1  25
HETATM   25  N4  UNL     1      27.474  12.200  -2.253  1.00  0.00    -0.387 NA
BRANCH  25  26
HETATM   26  C10 UNL     1      27.649  13.417  -1.669  1.00  0.00     0.292 C
BRANCH  26  27
HETATM   27  O2  UNL     1      27.334  13.595  -0.392  1.00  0.00    -0.322 OA
ATOM     28  H2  UNL     1      27.678  14.341   0.085  1.00  0.00     0.222 HD
ENDBRANCH  26  27
BRANCH  26  29
HETATM   29  N5  UNL     1      28.112  14.561  -2.306  1.00  0.00    -0.331 N
HETATM   30  C11 UNL     1      27.231  15.257  -3.205  1.00  0.00     0.128 C
HETATM   31  C12 UNL     1      27.856  15.517  -4.552  1.00  0.00     0.026 C
HETATM   32  C13 UNL     1      29.345  15.437  -4.494  1.00  0.00     0.056 C
HETATM   33  C14 UNL     1      29.791  15.987  -3.150  1.00  0.00     0.008 C
HETATM   34  C19 UNL     1      29.396  15.167  -2.037  1.00  0.00     0.180 C
BRANCH  33  35
HETATM   35  N6  UNL     1      30.380  17.031  -3.189  1.00  0.00    -0.322 N
HETATM   36  C15 UNL     1      30.325  18.365  -3.034  1.00  0.00     0.262 C
ATOM     37  H6  UNL     1      31.340  16.811  -3.456  1.00  0.00     0.169 HD
BRANCH  36  38
HETATM   38  O3  UNL     1      30.015  18.806  -1.843  1.00  0.00    -0.327 OA
ATOM     39  H3  UNL     1      29.178  19.247  -1.756  1.00  0.00     0.221 HD
ENDBRANCH  36  38
BRANCH  36  40
HETATM   40  O4  UNL     1      30.569  19.329  -4.017  1.00  0.00    -0.312 OA
BRANCH  40  41
HETATM   41  C16 UNL     1      31.922  19.513  -4.419  1.00  0.00     0.124 C
HETATM   42  C17 UNL     1      32.513  20.777  -4.090  1.00  0.00     0.040 C
HETATM   43  C18 UNL     1      31.829  19.276  -5.978  1.00  0.00     0.040 C
ENDBRANCH  40  41
ENDBRANCH  36  40
ENDBRANCH  33  35
ENDBRANCH  26  29
ENDBRANCH  25  26
ENDBRANCH   1  25
TORSDOF 13
ENDMDL