MODEL 2
REMARK VINA RESULT: -8.195428239      1.070      1.520
REMARK  8 active torsions:
REMARK  status: ('A' for Active; 'I' for Inactive)
REMARK    1  A    between atoms: C2_2  and  C3_3
REMARK    2  A    between atoms: C3_3  and  C5_5
REMARK       I    between atoms: C5_5  and  N1_7
REMARK    3  A    between atoms: N1_7  and  C6_9
REMARK    4  A    between atoms: C19_24  and  N3_25
REMARK    5  A    between atoms: N4_34  and  C26_35
REMARK    6  A    between atoms: C26_35  and  C27_36
REMARK    7  A    between atoms: C26_35  and  C28_39
REMARK    8  A    between atoms: C27_36  and  O4_37
ROOT
HETATM    1  C6  UNL     1      24.756   8.998 -10.890  1.00  0.00     0.036 A
HETATM    2  C7  UNL     1      24.436  10.318 -10.672  1.00  0.00     0.038 A
HETATM    3  C8  UNL     1      24.813  10.905  -9.487  1.00  0.00    -0.032 A
HETATM    4  C9  UNL     1      24.509  12.317  -9.164  1.00  0.00     0.050 C
HETATM    5  C10 UNL     1      25.511  10.175  -8.520  1.00  0.00     0.049 A
HETATM    6  N2  UNL     1      25.971  10.562  -7.322  1.00  0.00    -0.358 N
ATOM      7  H2  UNL     1      25.870  11.492  -6.916  1.00  0.00     0.166 HD
HETATM    8  C11 UNL     1      26.582   9.529  -6.753  1.00  0.00     0.020 A
HETATM    9  C12 UNL     1      26.530   8.427  -7.588  1.00  0.00     0.005 A
HETATM   10  C13 UNL     1      25.825   8.859  -8.747  1.00  0.00     0.004 A
HETATM   11  C14 UNL     1      25.445   8.279  -9.933  1.00  0.00     0.044 A
HETATM   12  C15 UNL     1      27.236   7.374  -6.896  1.00  0.00     0.068 C
HETATM   13  C16 UNL     1      28.764   7.765  -6.914  1.00  0.00     0.044 C
HETATM   14  C17 UNL     1      26.860   7.765  -5.447  1.00  0.00     0.047 C
HETATM   15  C18 UNL     1      27.297   9.179  -5.458  1.00  0.00     0.067 C
HETATM   16  C19 UNL     1      27.196   6.927  -4.339  1.00  0.00     0.095 C
HETATM   17  C24 UNL     1      26.505   5.571  -4.664  1.00  0.00     0.128 C
HETATM   18  C25 UNL     1      27.280   5.198  -5.904  1.00  0.00     0.223 C
HETATM   19  O3  UNL     1      27.988   4.216  -5.816  1.00  0.00    -0.273 OA
HETATM   20  N4  UNL     1      27.172   5.996  -7.123  1.00  0.00    -0.331 N
ENDROOT
BRANCH   1  21
HETATM   21  N1  UNL     1      24.396   8.316 -12.058  1.00  0.00    -0.327 N
HETATM   22  C5  UNL     1      23.312   7.453 -12.268  1.00  0.00     0.226 C
HETATM   23  O1  UNL     1      22.517   7.195 -11.343  1.00  0.00    -0.273 OA
ATOM     24  H1  UNL     1      25.004   8.467 -12.863  1.00  0.00     0.169 HD
BRANCH  22  25
HETATM   25  C3  UNL     1      23.046   6.803 -13.584  1.00  0.00     0.074 C
HETATM   26  C4  UNL     1      24.003   7.243 -14.662  1.00  0.00     0.020 C
BRANCH  25  27
HETATM   27  C2  UNL     1      23.118   5.299 -13.465  1.00  0.00     0.009 C
HETATM   28  C1  UNL     1      22.526   4.595 -14.666  1.00  0.00     0.006 C
ENDBRANCH  25  27
ENDBRANCH  22  25
ENDBRANCH   1  21
BRANCH  20  29
HETATM   29  C26 UNL     1      27.059   5.253  -8.306  1.00  0.00     0.115 C
BRANCH  29  30
HETATM   30  C27 UNL     1      28.097   4.090  -8.399  1.00  0.00     0.189 C
BRANCH  30  31
HETATM   31  O4  UNL     1      27.350   2.882  -8.317  1.00  0.00    -0.399 OA
ATOM     32  H4  UNL     1      26.985   2.854  -7.440  1.00  0.00     0.209 HD
ENDBRANCH  30  31
ENDBRANCH  29  30
BRANCH  29  33
HETATM   33  C28 UNL     1      25.838   4.611  -8.769  1.00  0.00     0.002 C
HETATM   34  C29 UNL     1      24.563   4.753  -7.965  1.00  0.00     0.011 C
HETATM   35  C30 UNL     1      25.484   4.848 -10.259  1.00  0.00     0.011 C
ENDBRANCH  29  33
ENDBRANCH  20  29
BRANCH  16  36
HETATM   36  N3  UNL     1      26.905   7.404  -3.081  1.00  0.00    -0.403 N
HETATM   37  C20 UNL     1      25.618   7.822  -2.720  1.00  0.00     0.143 C
HETATM   38  C21 UNL     1      25.601   9.223  -2.103  1.00  0.00     0.187 C
HETATM   39  O2  UNL     1      26.563   9.318  -1.104  1.00  0.00    -0.388 OA
HETATM   40  C22 UNL     1      27.812   9.163  -1.693  1.00  0.00     0.187 C
HETATM   41  C23 UNL     1      27.921   7.697  -2.131  1.00  0.00     0.143 C
ENDBRANCH  16  36
TORSDOF 8
ENDMDL