MODEL 3
REMARK VINA RESULT: -9.366669163      0.092      1.374
REMARK  9 active torsions:
REMARK  status: ('A' for Active; 'I' for Inactive)
REMARK    1  A    between atoms: C2_2  and  N1_3
REMARK    2  A    between atoms: N1_3  and  C3_4
REMARK    3  A    between atoms: N1_3  and  C5_6
REMARK    4  A    between atoms: C5_6  and  C6_7
REMARK    5  A    between atoms: C10_13  and  N3_14
REMARK    6  A    between atoms: N3_14  and  S1_16
REMARK    7  A    between atoms: S1_16  and  C11_19
REMARK    8  A    between atoms: C18_26  and  N4_27
REMARK    9  A    between atoms: N4_27  and  C19_29
ROOT
HETATM    1  C19 UNL     1      27.794   7.219  -6.141  1.00  0.00     0.045 A
HETATM    2  C20 UNL     1      28.364   6.861  -7.339  1.00  0.00    -0.033 A
HETATM    3  C21 UNL     1      28.961   7.852  -8.271  1.00  0.00     0.050 C
HETATM    4  C22 UNL     1      28.410   5.526  -7.747  1.00  0.00     0.031 A
HETATM    5  C23 UNL     1      27.887   4.550  -6.955  1.00  0.00     0.045 A
HETATM    6  C24 UNL     1      27.946   3.176  -7.397  1.00  0.00     0.099 C
HETATM    7  N5  UNL     1      28.005   2.086  -7.758  1.00  0.00    -0.191 NA
HETATM    8  C25 UNL     1      27.314   4.882  -5.758  1.00  0.00     0.031 A
HETATM    9  C26 UNL     1      27.270   6.225  -5.352  1.00  0.00    -0.033 A
HETATM   10  C27 UNL     1      26.656   6.567  -4.071  1.00  0.00     0.050 C
ENDROOT
BRANCH   1  11
HETATM   11  N4  UNL     1      27.747   8.543  -5.737  1.00  0.00    -0.338 N
ATOM     12  H4  UNL     1      28.620   8.945  -5.396  1.00  0.00     0.167 HD
BRANCH  11  13
HETATM   13  C18 UNL     1      26.721   9.323  -5.742  1.00  0.00     0.152 A
HETATM   14  C10 UNL     1      26.571  10.180  -4.674  1.00  0.00     0.160 A
HETATM   15  N2  UNL     1      25.472  11.002  -4.702  1.00  0.00    -0.337 N
HETATM   16  C9  UNL     1      24.591  10.984  -5.694  1.00  0.00     0.060 A
ATOM     17  H2  UNL     1      25.325  11.651  -3.929  1.00  0.00     0.167 HD
HETATM   18  C8  UNL     1      23.503  11.868  -5.620  1.00  0.00     0.032 A
HETATM   19  C28 UNL     1      24.767  10.117  -6.749  1.00  0.00     0.061 A
HETATM   20  C7  UNL     1      22.605  11.835  -6.655  1.00  0.00     0.011 A
HETATM   21  C6  UNL     1      22.763  10.975  -7.720  1.00  0.00    -0.038 A
HETATM   22  C29 UNL     1      23.837  10.113  -7.779  1.00  0.00     0.040 A
HETATM   23  N6  UNL     1      25.829   9.297  -6.759  1.00  0.00    -0.337 N
ATOM     24  H6  UNL     1      25.965   8.652  -7.538  1.00  0.00     0.167 HD
BRANCH  14  25
HETATM   25  N3  UNL     1      27.305  10.314  -3.671  1.00  0.00    -0.263 N
ATOM     26  H3  UNL     1      28.220  10.697  -3.908  1.00  0.00     0.180 HD
BRANCH  25  27
HETATM   27  S1  UNL     1      27.144  10.014  -2.030  1.00  0.00     0.264 S
HETATM   28  O1  UNL     1      28.156   8.997  -1.515  1.00  0.00    -0.200 OA
HETATM   29  O2  UNL     1      25.779   9.431  -1.682  1.00  0.00    -0.200 OA
BRANCH  27  30
HETATM   30  C11 UNL     1      27.385  11.450  -1.058  1.00  0.00     0.085 A
HETATM   31  C12 UNL     1      27.839  12.594  -1.667  1.00  0.00     0.026 A
HETATM   32  C13 UNL     1      28.052  13.767  -0.947  1.00  0.00     0.002 A
HETATM   33  C14 UNL     1      27.793  13.757   0.414  1.00  0.00     0.001 A
HETATM   34  C15 UNL     1      27.336  12.601   1.014  1.00  0.00     0.008 A
HETATM   35  C16 UNL     1      27.125  11.424   0.274  1.00  0.00    -0.039 A
HETATM   36  C17 UNL     1      26.632  10.203   0.953  1.00  0.00     0.050 C
ENDBRANCH  27  30
ENDBRANCH  25  27
ENDBRANCH  14  25
BRANCH  21  37
HETATM   37  C5  UNL     1      21.727  11.012  -8.808  1.00  0.00     0.160 C
BRANCH  37  38
HETATM   38  N1  UNL     1      22.347  10.684 -10.051  1.00  0.00    -0.390 N
BRANCH  38  39
HETATM   39  C2  UNL     1      21.789   9.588 -10.741  1.00  0.00     0.054 C
HETATM   40  C1  UNL     1      22.658   8.363 -10.849  1.00  0.00     0.054 C
ENDBRANCH  38  39
BRANCH  38  41
HETATM   41  C3  UNL     1      22.829  11.757 -10.831  1.00  0.00     0.118 C
HETATM   42  C4  UNL     1      24.291  11.726 -11.190  1.00  0.00     0.026 C
ENDBRANCH  38  41
ENDBRANCH  37  38
ENDBRANCH  21  37
ENDBRANCH  11  13
ENDBRANCH   1  11
TORSDOF 9
ENDMDL