MODEL 3
REMARK VINA RESULT: -7.776637864      2.468      6.426
REMARK  9 active torsions:
REMARK  status: ('A' for Active; 'I' for Inactive)
REMARK    1  A    between atoms: C2_2  and  C3_3
REMARK    2  A    between atoms: C3_3  and  C6_6
REMARK    3  A    between atoms: C11_11  and  C12_12
REMARK    4  A    between atoms: C15_15  and  N1_16
REMARK    5  A    between atoms: C16_17  and  N2_18
REMARK    6  A    between atoms: C17_20  and  O1_21
REMARK    7  A    between atoms: C17_20  and  C18_23
REMARK    8  A    between atoms: C18_23  and  C19_24
REMARK    9  A    between atoms: C19_24  and  C20_25
ROOT
HETATM    1  N1  UNL     1      25.192  10.356  -7.299  1.00  0.00    -0.215 N
HETATM    2  C16 UNL     1      25.712  11.680  -7.593  1.00  0.00     0.154 A
HETATM    3  C25 UNL     1      25.778  11.966  -9.012  1.00  0.00     0.122 A
HETATM    4  N4  UNL     1      26.110  12.979  -9.857  1.00  0.00    -0.303 N
ATOM      5  H4  UNL     1      26.469  13.886  -9.560  1.00  0.00     0.171 HD
HETATM    6  C26 UNL     1      25.898  12.620 -11.152  1.00  0.00     0.326 A
HETATM    7  O2  UNL     1      26.094  13.307 -12.184  1.00  0.00    -0.247 OA
HETATM    8  N5  UNL     1      25.431  11.376 -11.146  1.00  0.00    -0.296 N
ATOM      9  H5  UNL     1      25.174  10.819 -11.961  1.00  0.00     0.171 HD
HETATM   10  C27 UNL     1      25.362  10.985  -9.842  1.00  0.00     0.184 A
HETATM   11  S1  UNL     1      24.972   9.650  -8.803  1.00  0.00     0.289 S
HETATM   12  O3  UNL     1      23.551   9.292  -9.210  1.00  0.00    -0.198 OA
HETATM   13  O4  UNL     1      25.717   8.414  -9.173  1.00  0.00    -0.198 OA
ENDROOT
BRANCH   1  14
HETATM   14  C15 UNL     1      24.981   9.924  -5.948  1.00  0.00     0.070 A
HETATM   15  C6  UNL     1      25.918   9.147  -5.306  1.00  0.00    -0.015 A
HETATM   16  C7  UNL     1      25.835   8.936  -3.897  1.00  0.00    -0.053 A
HETATM   17  C8  UNL     1      26.750   8.171  -3.087  1.00  0.00     0.049 C
HETATM   18  C9  UNL     1      24.784   9.523  -3.205  1.00  0.00     0.008 A
HETATM   19  C10 UNL     1      23.870  10.266  -3.839  1.00  0.00     0.014 A
HETATM   20  C11 UNL     1      23.931  10.496  -5.256  1.00  0.00    -0.006 A
BRANCH  15  21
HETATM   21  C3  UNL     1      26.913   8.342  -5.916  1.00  0.00    -0.018 C
HETATM   22  C4  UNL     1      28.127   8.362  -4.929  1.00  0.00     0.020 C
HETATM   23  C5  UNL     1      26.438   6.858  -6.072  1.00  0.00     0.020 C
BRANCH  21  24
HETATM   24  C2  UNL     1      27.696   8.547  -7.136  1.00  0.00     0.009 C
HETATM   25  C1  UNL     1      28.692   7.358  -7.378  1.00  0.00     0.006 C
ENDBRANCH  21  24
ENDBRANCH  15  21
BRANCH  20  26
HETATM   26  C12 UNL     1      22.756  11.187  -5.709  1.00  0.00    -0.075 C
HETATM   27  C13 UNL     1      22.742  12.688  -5.366  1.00  0.00     0.044 C
HETATM   28  C14 UNL     1      21.918  10.919  -6.859  1.00  0.00     0.044 C
ENDBRANCH  20  26
ENDBRANCH   1  14
BRANCH   2  29
HETATM   29  N2  UNL     1      26.063  12.493  -6.703  1.00  0.00    -0.324 N
HETATM   30  C17 UNL     1      26.382  12.946  -5.519  1.00  0.00     0.117 C
ATOM     31  H2  UNL     1      26.162  13.343  -7.259  1.00  0.00     0.169 HD
BRANCH  30  32
HETATM   32  O1  UNL     1      26.073  14.195  -5.211  1.00  0.00    -0.349 OA
ATOM     33  H1  UNL     1      26.523  14.611  -4.484  1.00  0.00     0.219 HD
ENDBRANCH  30  32
BRANCH  30  34
HETATM   34  C18 UNL     1      27.077  12.284  -4.359  1.00  0.00     0.088 C
BRANCH  34  35
HETATM   35  C19 UNL     1      27.433  13.372  -3.369  1.00  0.00     0.048 C
BRANCH  35  36
HETATM   36  C20 UNL     1      27.504  12.959  -1.980  1.00  0.00    -0.042 A
HETATM   37  C21 UNL     1      27.420  11.626  -1.627  1.00  0.00     0.010 A
HETATM   38  C22 UNL     1      27.472  11.254  -0.274  1.00  0.00     0.018 A
HETATM   39  C23 UNL     1      27.605  12.224   0.686  1.00  0.00     0.087 A
HETATM   40  N3  UNL     1      27.686  13.520   0.332  1.00  0.00    -0.375 N
HETATM   41  C24 UNL     1      27.637  13.882  -0.975  1.00  0.00     0.094 A
ATOM     42  H3  UNL     1      27.784  14.235   1.052  1.00  0.00     0.164 HD
ENDBRANCH  35  36
ENDBRANCH  34  35
ENDBRANCH  30  34
ENDBRANCH   2  29
TORSDOF 9
ENDMDL