MODEL 2
REMARK VINA RESULT: -10.014246981      3.260      8.460
REMARK  10 active torsions:
REMARK  status: ('A' for Active; 'I' for Inactive)
REMARK    1  A    between atoms: C2_2  and  C3_3
REMARK    2  A    between atoms: C2_2  and  C25_31
REMARK    3  A    between atoms: C3_3  and  C4_4
REMARK    4  A    between atoms: C5_7  and  C6_8
REMARK    5  A    between atoms: C11_13  and  N2_14
REMARK    6  A    between atoms: C15_18  and  C16_19
REMARK    7  A    between atoms: C16_19  and  C17_20
REMARK    8  A    between atoms: C17_20  and  O1_21
REMARK    9  A    between atoms: C17_20  and  C18_23
REMARK       I    between atoms: C25_31  and  N4_33
REMARK   10  A    between atoms: N4_33  and  C27_35
ROOT
HETATM    1  C18 UNL     1      27.696  11.502  -1.281  1.00  0.00    -0.025 A
HETATM    2  C19 UNL     1      27.692  11.578   0.101  1.00  0.00     0.010 A
HETATM    3  C20 UNL     1      27.693  12.775   0.782  1.00  0.00     0.002 A
HETATM    4  C21 UNL     1      27.698  13.939   0.048  1.00  0.00     0.022 A
HETATM    5  C22 UNL     1      27.702  13.934  -1.332  1.00  0.00     0.045 A
HETATM    6  C23 UNL     1      27.709  15.172  -2.077  1.00  0.00     0.099 C
HETATM    7  N3  UNL     1      27.695  16.170  -2.673  1.00  0.00    -0.191 NA
HETATM    8  C24 UNL     1      27.701  12.711  -1.954  1.00  0.00     0.032 A
ENDROOT
BRANCH   1   9
HETATM    9  C17 UNL     1      27.694  10.235  -2.021  1.00  0.00     0.175 C
BRANCH   9  10
HETATM   10  C16 UNL     1      26.374   9.966  -2.596  1.00  0.00     0.023 C
BRANCH  10  11
HETATM   11  C15 UNL     1      26.140   9.957  -3.909  1.00  0.00    -0.009 A
HETATM   12  C4  UNL     1      26.083   8.885  -4.751  1.00  0.00     0.039 A
HETATM   13  N1  UNL     1      25.821   9.332  -5.988  1.00  0.00    -0.355 N
HETATM   14  C5  UNL     1      25.698  10.691  -6.005  1.00  0.00     0.046 A
ATOM     15  H1  UNL     1      25.726   8.734  -6.809  1.00  0.00     0.166 HD
HETATM   16  C14 UNL     1      25.897  11.084  -4.709  1.00  0.00     0.044 A
BRANCH  12  17
HETATM   17  C3  UNL     1      26.258   7.631  -4.384  1.00  0.00     0.017 C
BRANCH  17  18
HETATM   18  C2  UNL     1      26.938   6.601  -5.224  1.00  0.00     0.099 C
HETATM   19  C1  UNL     1      26.716   5.273  -4.548  1.00  0.00     0.024 C
BRANCH  18  20
HETATM   20  C25 UNL     1      26.380   6.550  -6.580  1.00  0.00     0.231 C
HETATM   21  O2  UNL     1      25.193   6.158  -6.809  1.00  0.00    -0.272 OA
HETATM   22  N4  UNL     1      27.139   6.933  -7.699  1.00  0.00    -0.322 N
HETATM   23  C26 UNL     1      28.482   7.429  -7.554  1.00  0.00     0.159 C
BRANCH  22  24
HETATM   24  C27 UNL     1      26.587   6.851  -9.025  1.00  0.00     0.036 A
HETATM   25  C28 UNL     1      26.186   8.021  -9.625  1.00  0.00     0.031 A
HETATM   26  C29 UNL     1      25.655   7.953 -10.891  1.00  0.00     0.025 A
HETATM   27  C30 UNL     1      25.542   6.730 -11.514  1.00  0.00     0.044 A
HETATM   28  C31 UNL     1      24.983   6.707 -12.832  1.00  0.00     0.099 C
HETATM   29  C32 UNL     1      25.956   5.551 -10.885  1.00  0.00     0.025 A
HETATM   30  N5  UNL     1      24.524   6.712 -13.910  1.00  0.00    -0.191 NA
HETATM   31  C33 UNL     1      26.485   5.621  -9.621  1.00  0.00     0.031 A
ENDBRANCH  22  24
ENDBRANCH  18  20
ENDBRANCH  17  18
ENDBRANCH  12  17
BRANCH  14  32
HETATM   32  C6  UNL     1      25.478  11.448  -7.237  1.00  0.00     0.017 A
HETATM   33  C7  UNL     1      26.488  11.423  -8.218  1.00  0.00     0.016 A
HETATM   34  C8  UNL     1      26.416  12.060  -9.417  1.00  0.00     0.001 A
HETATM   35  C9  UNL     1      25.294  12.779  -9.705  1.00  0.00     0.002 A
HETATM   36  C10 UNL     1      24.283  12.834  -8.783  1.00  0.00     0.030 A
HETATM   37  C11 UNL     1      24.370  12.163  -7.536  1.00  0.00     0.042 A
BRANCH  37  38
HETATM   38  N2  UNL     1      23.222  12.234  -6.710  1.00  0.00    -0.389 N
HETATM   39  C12 UNL     1      22.151  11.277  -6.855  1.00  0.00     0.149 C
HETATM   40  C13 UNL     1      23.094  13.292  -5.738  1.00  0.00     0.149 C
ENDBRANCH  37  38
ENDBRANCH  14  32
ENDBRANCH  10  11
ENDBRANCH   9  10
BRANCH   9  41
HETATM   41  O1  UNL     1      28.146   9.229  -1.173  1.00  0.00    -0.387 OA
ATOM     42  H1  UNL     1      28.900   8.760  -1.510  1.00  0.00     0.210 HD
ENDBRANCH   9  41
ENDBRANCH   1   9
TORSDOF 10
ENDMDL