MODEL 1
REMARK VINA RESULT: -9.523800900      0.000      0.000
REMARK  9 active torsions:
REMARK  status: ('A' for Active; 'I' for Inactive)
REMARK    1  A    between atoms: C2_2  and  C3_3
REMARK    2  A    between atoms: C3_3  and  C4_4
REMARK    3  A    between atoms: C4_4  and  N1_5
REMARK    4  A    between atoms: N1_5  and  C6_7
REMARK    5  A    between atoms: C6_7  and  O1_8
REMARK    6  A    between atoms: C6_7  and  C7_10
REMARK       I    between atoms: N4_24  and  C18_26
REMARK    7  A    between atoms: C18_26  and  C19_28
REMARK    8  A    between atoms: C21_30  and  C22_31
REMARK    9  A    between atoms: C22_31  and  C23_32
ROOT
HETATM    1  C7  UNL     1      27.824  14.719  -2.775  1.00  0.00     0.092 A
HETATM    2  C8  UNL     1      27.113  14.191  -3.882  1.00  0.00    -0.018 A
HETATM    3  C9  UNL     1      26.597  14.995  -4.985  1.00  0.00     0.052 C
HETATM    4  C10 UNL     1      26.958  12.858  -3.621  1.00  0.00     0.006 A
HETATM    5  C11 UNL     1      27.532  12.587  -2.426  1.00  0.00     0.023 A
HETATM    6  N2  UNL     1      28.074  13.748  -1.899  1.00  0.00    -0.350 N
HETATM    7  C12 UNL     1      28.811  13.701  -0.643  1.00  0.00     0.156 C
HETATM    8  C13 UNL     1      27.548  11.251  -1.834  1.00  0.00     0.063 A
HETATM    9  C14 UNL     1      26.838  10.165  -2.504  1.00  0.00     0.047 A
HETATM   10  C15 UNL     1      26.286  10.477  -3.837  1.00  0.00    -0.031 A
HETATM   11  C16 UNL     1      25.715   9.499  -4.591  1.00  0.00     0.097 A
HETATM   12  N3  UNL     1      25.175   9.675  -5.805  1.00  0.00    -0.352 N
ATOM     13  H3  UNL     1      24.763   8.894  -6.316  1.00  0.00     0.166 HD
HETATM   14  C17 UNL     1      25.194  10.898  -6.323  1.00  0.00     0.108 A
HETATM   15  N4  UNL     1      24.708  11.164  -7.463  1.00  0.00    -0.308 N
ATOM     16  H4  UNL     1      24.769  12.133  -7.773  1.00  0.00     0.170 HD
HETATM   17  C18 UNL     1      24.094  10.260  -8.341  1.00  0.00     0.274 C
HETATM   18  O2  UNL     1      22.840  10.284  -8.423  1.00  0.00    -0.266 OA
HETATM   19  C29 UNL     1      25.765  11.964  -5.606  1.00  0.00     0.061 A
HETATM   20  C30 UNL     1      26.316  11.777  -4.364  1.00  0.00    -0.012 A
ENDROOT
BRANCH  17  21
HETATM   21  C19 UNL     1      24.806   9.295  -9.162  1.00  0.00     0.103 A
HETATM   22  C20 UNL     1      24.893   7.949  -8.802  1.00  0.00     0.044 A
HETATM   23  C21 UNL     1      25.631   7.347  -9.800  1.00  0.00    -0.035 A
HETATM   24  C27 UNL     1      25.960   8.330 -10.713  1.00  0.00     0.098 A
HETATM   25  N7  UNL     1      25.454   9.510 -10.317  1.00  0.00    -0.356 N
HETATM   26  C28 UNL     1      25.600  10.749 -11.024  1.00  0.00     0.156 C
BRANCH  23  27
HETATM   27  C22 UNL     1      25.998   5.897  -9.866  1.00  0.00     0.098 C
BRANCH  27  28
HETATM   28  C23 UNL     1      25.864   5.248  -8.538  1.00  0.00     0.032 A
HETATM   29  C24 UNL     1      26.597   5.472  -7.392  1.00  0.00     0.052 A
HETATM   30  C25 UNL     1      26.070   4.605  -6.435  1.00  0.00     0.024 A
HETATM   31  C26 UNL     1      26.557   4.505  -5.044  1.00  0.00     0.070 C
HETATM   32  N5  UNL     1      25.078   3.909  -6.999  1.00  0.00    -0.305 N
HETATM   33  N6  UNL     1      24.954   4.297  -8.268  1.00  0.00    -0.304 N
ATOM     34  H5  UNL     1      24.510   3.199  -6.535  1.00  0.00     0.186 HD
ATOM     35  H6  UNL     1      24.272   3.929  -8.932  1.00  0.00     0.186 HD
ENDBRANCH  27  28
ENDBRANCH  23  27
ENDBRANCH  17  21
BRANCH   1  36
HETATM   36  C6  UNL     1      28.349  16.066  -2.739  1.00  0.00     0.166 C
BRANCH  36  37
HETATM   37  N1  UNL     1      29.523  16.674  -3.124  1.00  0.00    -0.364 N
HETATM   38  C5  UNL     1      30.010  17.989  -2.911  1.00  0.00     0.151 C
BRANCH  37  39
HETATM   39  C4  UNL     1      30.424  15.852  -4.016  1.00  0.00     0.124 C
BRANCH  39  40
HETATM   40  C3  UNL     1      30.450  16.614  -5.321  1.00  0.00     0.019 C
BRANCH  40  41
HETATM   41  C2  UNL     1      31.878  16.649  -5.873  1.00  0.00    -0.003 C
HETATM   42  C1  UNL     1      32.279  18.129  -5.876  1.00  0.00     0.005 C
ENDBRANCH  40  41
ENDBRANCH  39  40
ENDBRANCH  37  39
ENDBRANCH  36  37
BRANCH  36  43
HETATM   43  O1  UNL     1      27.503  16.951  -2.189  1.00  0.00    -0.344 OA
ATOM     44  H1  UNL     1      26.871  16.519  -1.628  1.00  0.00     0.219 HD
ENDBRANCH  36  43
ENDBRANCH   1  36
TORSDOF 9
ENDMDL