MODEL 1
REMARK VINA RESULT: -9.853345752      0.000      0.000
REMARK  9 active torsions:
REMARK  status: ('A' for Active; 'I' for Inactive)
REMARK    1  A    between atoms: C4_4  and  O1_5
REMARK    2  A    between atoms: C10_12  and  C11_13
REMARK    3  A    between atoms: C11_13  and  C13_15
REMARK    4  A    between atoms: C13_15  and  C14_16
REMARK       I    between atoms: C14_16  and  N1_18
REMARK    5  A    between atoms: C23_27  and  O3_28
REMARK    6  A    between atoms: O3_28  and  C24_29
REMARK    7  A    between atoms: C24_29  and  C25_31
REMARK    8  A    between atoms: C25_31  and  C26_32
REMARK    9  A    between atoms: C30_36  and  C31_37
ROOT
HETATM    1  C1  UNL     1      27.844   3.030  -6.721  1.00  0.00     0.015 C
HETATM    2  C2  UNL     1      27.639   4.280  -6.426  1.00  0.00    -0.071 C
HETATM    3  C3  UNL     1      27.160   4.827  -5.125  1.00  0.00     0.073 C
HETATM    4  C4  UNL     1      26.493   6.123  -5.482  1.00  0.00     0.076 C
HETATM    5  C5  UNL     1      27.203   7.338  -4.974  1.00  0.00     0.026 C
HETATM    6  C6  UNL     1      27.360   7.275  -3.478  1.00  0.00     0.009 C
HETATM    7  C7  UNL     1      27.846   8.572  -2.878  1.00  0.00     0.010 C
HETATM    8  C8  UNL     1      26.999   9.736  -3.222  1.00  0.00    -0.036 C
HETATM    9  C9  UNL     1      25.592   9.661  -2.754  1.00  0.00     0.016 C
HETATM   10  C10 UNL     1      27.663  11.070  -3.117  1.00  0.00    -0.002 C
HETATM   11  C18 UNL     1      26.665  11.942  -3.850  1.00  0.00     0.006 C
HETATM   12  C19 UNL     1      26.287  11.031  -5.035  1.00  0.00     0.006 C
HETATM   13  C20 UNL     1      26.913   9.716  -4.768  1.00  0.00    -0.001 C
HETATM   14  C21 UNL     1      26.215   8.498  -5.219  1.00  0.00    -0.000 C
HETATM   15  C22 UNL     1      25.743   8.548  -6.628  1.00  0.00     0.039 C
HETATM   16  C23 UNL     1      26.576   7.620  -7.490  1.00  0.00     0.144 C
HETATM   17  C28 UNL     1      26.529   6.196  -7.025  1.00  0.00     0.032 C
HETATM   18  C29 UNL     1      25.304   5.468  -7.482  1.00  0.00     0.022 C
HETATM   19  C30 UNL     1      27.812   5.512  -7.268  1.00  0.00     0.128 C
ENDROOT
BRANCH  10  20
HETATM   20  C11 UNL     1      28.140  11.542  -1.846  1.00  0.00    -0.005 C
HETATM   21  C12 UNL     1      28.005  10.672  -0.641  1.00  0.00     0.011 C
BRANCH  20  22
HETATM   22  C13 UNL     1      27.526  12.879  -1.484  1.00  0.00     0.107 C
BRANCH  22  23
HETATM   23  C14 UNL     1      28.481  13.953  -1.255  1.00  0.00     0.220 C
HETATM   24  O2  UNL     1      28.743  14.331  -0.093  1.00  0.00    -0.273 OA
HETATM   25  N1  UNL     1      29.133  14.592  -2.336  1.00  0.00    -0.352 N
HETATM   26  C15 UNL     1      29.142  14.490  -3.800  1.00  0.00     0.127 C
HETATM   27  C17 UNL     1      30.102  15.656  -2.491  1.00  0.00     0.127 C
HETATM   28  C16 UNL     1      29.373  16.006  -3.794  1.00  0.00     0.040 C
ENDBRANCH  22  23
ENDBRANCH  20  22
ENDBRANCH  10  20
BRANCH   4  29
HETATM   29  O1  UNL     1      25.230   6.099  -4.967  1.00  0.00    -0.388 OA
ATOM     30  H1  UNL     1      25.244   6.569  -4.141  1.00  0.00     0.210 HD
ENDBRANCH   4  29
BRANCH  16  31
HETATM   31  O3  UNL     1      26.200   7.657  -8.837  1.00  0.00    -0.315 OA
BRANCH  31  32
HETATM   32  C24 UNL     1      26.458   8.681  -9.704  1.00  0.00     0.259 C
HETATM   33  O4  UNL     1      26.054   8.515 -10.878  1.00  0.00    -0.265 OA
BRANCH  32  34
HETATM   34  C25 UNL     1      27.175   9.917  -9.284  1.00  0.00     0.111 C
BRANCH  34  35
HETATM   35  C26 UNL     1      26.416  11.156  -9.759  1.00  0.00     0.005 C
HETATM   36  C27 UNL     1      26.357  12.162  -8.629  1.00  0.00     0.005 C
ENDBRANCH  34  35
ENDBRANCH  32  34
ENDBRANCH  31  32
ENDBRANCH  16  31
BRANCH  19  37
HETATM   37  C31 UNL     1      28.221   5.208  -8.627  1.00  0.00     0.182 C
HETATM   38  O5  UNL     1      29.467   5.203  -8.938  1.00  0.00    -0.647 OA
HETATM   39  O6  UNL     1      27.394   4.902  -9.699  1.00  0.00    -0.647 OA
ENDBRANCH  19  37
TORSDOF 9
ENDMDL