MODEL 5
REMARK VINA RESULT: -8.521821582      1.991      9.232
REMARK  10 active torsions:
REMARK  status: ('A' for Active; 'I' for Inactive)
REMARK    1  A    between atoms: C2_2  and  C4_4
REMARK    2  A    between atoms: C4_4  and  C5_5
REMARK    3  A    between atoms: C5_5  and  N1_6
REMARK    4  A    between atoms: C5_5  and  C27_34
REMARK    5  A    between atoms: N1_6  and  C6_8
REMARK    6  A    between atoms: C6_8  and  O1_9
REMARK    7  A    between atoms: C6_8  and  C7_11
REMARK    8  A    between atoms: C14_19  and  C15_20
REMARK    9  A    between atoms: C15_20  and  N2_21
REMARK   10  A    between atoms: C30_37  and  N4_38
ROOT
HETATM    1  C7  UNL     1      26.329   8.644  -6.068  1.00  0.00     0.008 C
HETATM    2  C8  UNL     1      26.392   7.829  -5.076  1.00  0.00     0.007 C
HETATM    3  C9  UNL     1      26.178   6.371  -5.226  1.00  0.00     0.157 C
HETATM    4  O2  UNL     1      26.749   5.732  -6.125  1.00  0.00    -0.293 OA
HETATM    5  C10 UNL     1      25.236   5.957  -4.148  1.00  0.00     0.085 C
HETATM    6  C11 UNL     1      25.485   7.017  -3.079  1.00  0.00     0.022 C
HETATM    7  C12 UNL     1      26.601   7.932  -3.589  1.00  0.00    -0.007 C
HETATM    8  C13 UNL     1      27.904   7.249  -3.204  1.00  0.00     0.021 C
HETATM    9  C14 UNL     1      26.494   9.303  -3.048  1.00  0.00     0.027 C
HETATM   10  C21 UNL     1      25.349  10.004  -3.748  1.00  0.00     0.013 C
HETATM   11  C22 UNL     1      25.985  10.829  -4.834  1.00  0.00     0.004 A
HETATM   12  C23 UNL     1      26.580  10.129  -5.932  1.00  0.00     0.036 A
HETATM   13  C24 UNL     1      25.309  10.943  -6.140  1.00  0.00    -0.035 A
HETATM   14  C25 UNL     1      25.441  12.282  -6.839  1.00  0.00     0.016 C
HETATM   15  C26 UNL     1      23.965  10.303  -6.211  1.00  0.00     0.016 C
ENDROOT
BRANCH   1  16
HETATM   16  C6  UNL     1      26.033   8.276  -7.401  1.00  0.00     0.143 C
BRANCH  16  17
HETATM   17  N1  UNL     1      25.134   7.611  -8.196  1.00  0.00    -0.366 N
ATOM     18  H1  UNL     1      24.737   6.729  -7.870  1.00  0.00     0.162 HD
BRANCH  17  19
HETATM   19  C5  UNL     1      24.721   8.152  -9.539  1.00  0.00     0.088 C
BRANCH  19  20
HETATM   20  C4  UNL     1      23.929   9.406  -9.310  1.00  0.00     0.029 C
BRANCH  20  21
HETATM   21  C2  UNL     1      24.534  10.643  -9.928  1.00  0.00    -0.021 C
HETATM   22  C1  UNL     1      23.466  11.337 -10.797  1.00  0.00     0.009 C
HETATM   23  C3  UNL     1      25.629  10.275 -10.930  1.00  0.00     0.009 C
ENDBRANCH  20  21
ENDBRANCH  19  20
BRANCH  19  24
HETATM   24  C27 UNL     1      23.941   7.071 -10.256  1.00  0.00     0.008 C
HETATM   25  C28 UNL     1      24.854   6.089 -10.951  1.00  0.00     0.009 C
HETATM   26  C29 UNL     1      25.292   6.537 -12.307  1.00  0.00     0.033 C
HETATM   27  C30 UNL     1      24.067   6.746 -13.166  1.00  0.00     0.183 C
HETATM   28  C31 UNL     1      23.307   7.907 -12.534  1.00  0.00     0.033 C
HETATM   29  C32 UNL     1      22.851   7.560 -11.138  1.00  0.00     0.009 C
BRANCH  27  30
HETATM   30  N4  UNL     1      23.278   5.532 -13.128  1.00  0.00    -0.075 N
ATOM     31  H43 UNL     1      23.849   4.689 -13.182  1.00  0.00     0.274 HD
ATOM     32  H42 UNL     1      22.865   5.359 -12.211  1.00  0.00     0.274 HD
ATOM     33  H41 UNL     1      22.581   5.583 -13.870  1.00  0.00     0.274 HD
ENDBRANCH  27  30
ENDBRANCH  19  24
ENDBRANCH  17  19
ENDBRANCH  16  17
BRANCH  16  34
HETATM   34  O1  UNL     1      27.020   8.754  -8.198  1.00  0.00    -0.346 OA
ATOM     35  H1  UNL     1      26.796   9.646  -8.437  1.00  0.00     0.219 HD
ENDBRANCH  16  34
ENDBRANCH   1  16
BRANCH   9  36
HETATM   36  C15 UNL     1      26.308   9.282  -1.551  1.00  0.00     0.278 C
BRANCH  36  37
HETATM   37  N2  UNL     1      26.563  10.571  -0.938  1.00  0.00     0.092 N
HETATM   38  C16 UNL     1      26.759  10.299   0.493  1.00  0.00     0.302 C
HETATM   39  C17 UNL     1      26.891  11.647   1.166  1.00  0.00     0.302 C
HETATM   40  N3  UNL     1      28.159  12.204   0.756  1.00  0.00     0.087 N
HETATM   41  C18 UNL     1      28.347  13.536   1.330  1.00  0.00     0.310 C
HETATM   42  C19 UNL     1      28.226  12.333  -0.665  1.00  0.00     0.302 C
HETATM   43  C20 UNL     1      27.821  11.102  -1.423  1.00  0.00     0.302 C
ENDBRANCH  36  37
ENDBRANCH   9  36
TORSDOF 10
ENDMDL