MODEL 2
REMARK VINA RESULT: -9.452490017      1.546      3.754
REMARK  9 active torsions:
REMARK  status: ('A' for Active; 'I' for Inactive)
REMARK    1  A    between atoms: N1_5  and  C5_6
REMARK    2  A    between atoms: C5_6  and  C6_7
REMARK    3  A    between atoms: C6_7  and  C7_8
REMARK    4  A    between atoms: C7_8  and  C8_9
REMARK    5  A    between atoms: C8_9  and  N2_10
REMARK    6  A    between atoms: N2_10  and  C11_13
REMARK    7  A    between atoms: C11_13  and  C12_14
REMARK    8  A    between atoms: C25_30  and  O2_31
REMARK    9  A    between atoms: C33_40  and  O3_41
ROOT
HETATM    1  C1  UNL     1      24.599   6.962  -2.904  1.00  0.00     0.019 C
HETATM    2  C2  UNL     1      25.965   7.321  -3.525  1.00  0.00    -0.009 C
HETATM    3  C3  UNL     1      26.743   6.052  -3.548  1.00  0.00     0.019 C
HETATM    4  C4  UNL     1      25.633   7.752  -4.937  1.00  0.00     0.106 C
HETATM    5  N1  UNL     1      26.836   7.694  -5.694  1.00  0.00    -0.291 NA
HETATM    6  C17 UNL     1      27.620   8.864  -5.717  1.00  0.00     0.071 C
HETATM    7  C18 UNL     1      27.670   9.753  -4.530  1.00  0.00     0.009 C
HETATM    8  C19 UNL     1      26.783  10.920  -4.617  1.00  0.00     0.157 C
HETATM    9  O1  UNL     1      26.183  11.142  -5.648  1.00  0.00    -0.293 OA
HETATM   10  C20 UNL     1      26.602  11.831  -3.481  1.00  0.00     0.089 C
HETATM   11  C21 UNL     1      27.151  11.391  -2.185  1.00  0.00     0.003 C
HETATM   12  C22 UNL     1      27.994  12.529  -1.607  1.00  0.00     0.001 C
HETATM   13  C23 UNL     1      27.310  13.813  -1.460  1.00  0.00     0.008 C
HETATM   14  C24 UNL     1      27.902  14.415  -0.208  1.00  0.00     0.033 C
HETATM   15  C25 UNL     1      28.886  13.368   0.337  1.00  0.00     0.126 C
HETATM   16  C26 UNL     1      28.238  12.112  -0.152  1.00  0.00    -0.014 C
HETATM   17  C27 UNL     1      26.938  11.948   0.594  1.00  0.00     0.018 C
HETATM   18  C28 UNL     1      29.073  10.885  -0.085  1.00  0.00     0.012 C
HETATM   19  C29 UNL     1      28.362   9.765  -0.831  1.00  0.00     0.007 C
HETATM   20  C30 UNL     1      28.075  10.235  -2.213  1.00  0.00     0.006 C
HETATM   21  C31 UNL     1      27.696   9.132  -3.194  1.00  0.00     0.018 C
HETATM   22  C32 UNL     1      28.925   8.192  -3.116  1.00  0.00     0.023 C
HETATM   23  C33 UNL     1      26.518   8.422  -2.691  1.00  0.00     0.140 C
ENDROOT
BRANCH   5  24
HETATM   24  C5  UNL     1      26.468   7.371  -7.074  1.00  0.00     0.095 C
BRANCH  24  25
HETATM   25  C6  UNL     1      25.439   8.334  -7.640  1.00  0.00     0.016 C
BRANCH  25  26
HETATM   26  C7  UNL     1      25.565   8.493  -9.112  1.00  0.00     0.029 C
BRANCH  26  27
HETATM   27  C8  UNL     1      25.969   7.294  -9.876  1.00  0.00     0.237 C
BRANCH  27  28
HETATM   28  N2  UNL     1      25.049   6.711 -10.782  1.00  0.00    -0.070 N
HETATM   29  C9  UNL     1      25.366   7.055 -12.181  1.00  0.00     0.272 C
HETATM   30  C10 UNL     1      23.667   7.008 -10.591  1.00  0.00     0.272 C
BRANCH  28  31
HETATM   31  C11 UNL     1      25.182   5.237 -10.754  1.00  0.00     0.293 C
BRANCH  31  32
HETATM   32  C12 UNL     1      25.801   4.741  -9.522  1.00  0.00     0.035 A
HETATM   33  C13 UNL     1      27.148   4.473  -9.434  1.00  0.00     0.027 A
HETATM   34  C14 UNL     1      27.704   4.005  -8.262  1.00  0.00     0.003 A
HETATM   35  C15 UNL     1      26.917   3.800  -7.162  1.00  0.00     0.017 A
HETATM   36  C16 UNL     1      25.564   4.076  -7.268  1.00  0.00     0.088 A
HETATM   37  N3  UNL     1      25.070   4.525  -8.419  1.00  0.00    -0.368 N
ATOM     38  H3  UNL     1      24.069   4.717  -8.465  1.00  0.00     0.165 HD
ENDBRANCH  31  32
ENDBRANCH  28  31
ENDBRANCH  27  28
ENDBRANCH  26  27
ENDBRANCH  25  26
ENDBRANCH  24  25
ENDBRANCH   5  24
BRANCH  23  39
HETATM   39  O3  UNL     1      25.447   9.218  -2.336  1.00  0.00    -0.394 OA
ATOM     40  H3  UNL     1      25.796   9.908  -1.784  1.00  0.00     0.210 HD
ENDBRANCH  23  39
BRANCH  15  41
HETATM   41  O2  UNL     1      28.903  13.457   1.719  1.00  0.00    -0.395 OA
ATOM     42  H2  UNL     1      29.169  12.616   2.072  1.00  0.00     0.210 HD
ENDBRANCH  15  41
TORSDOF 9
ENDMDL