MODEL 4
REMARK VINA RESULT: -8.217357494      3.001      6.957
REMARK  9 active torsions:
REMARK  status: ('A' for Active; 'I' for Inactive)
REMARK    1  A    between atoms: N1_2  and  C3_4
REMARK    2  A    between atoms: C6_7  and  O1_8
REMARK    3  A    between atoms: N2_13  and  C10_14
REMARK    4  A    between atoms: C10_14  and  C11_15
REMARK    5  A    between atoms: C11_15  and  C12_16
REMARK    6  A    between atoms: C12_16  and  C13_17
REMARK    7  A    between atoms: C13_17  and  C14_18
REMARK    8  A    between atoms: C14_18  and  N3_19
REMARK    9  A    between atoms: C29_35  and  O3_36
ROOT
HETATM    1  C3  UNL     1      27.477  10.989  -2.635  1.00  0.00     0.109 C
HETATM    2  C4  UNL     1      27.433  12.214  -3.514  1.00  0.00     0.030 C
HETATM    3  C5  UNL     1      26.209  12.035  -4.370  1.00  0.00     0.044 C
HETATM    4  C6  UNL     1      26.355  10.655  -5.086  1.00  0.00     0.108 C
HETATM    5  C7  UNL     1      25.767   9.721  -4.068  1.00  0.00     0.054 C
HETATM    6  C8  UNL     1      24.247   9.783  -4.047  1.00  0.00     0.050 C
HETATM    7  C9  UNL     1      23.578  10.509  -5.149  1.00  0.00     0.275 C
HETATM    8  N2  UNL     1      24.339  11.362  -5.957  1.00  0.00     0.101 N
HETATM    9  C17 UNL     1      25.652  10.929  -6.349  1.00  0.00     0.188 C
HETATM   10  C18 UNL     1      26.386  12.159  -6.953  1.00  0.00     0.053 C
HETATM   11  C19 UNL     1      25.530   9.992  -7.461  1.00  0.00     0.045 C
HETATM   12  C20 UNL     1      26.746   9.253  -7.882  1.00  0.00     0.008 C
HETATM   13  C21 UNL     1      26.810   7.821  -7.438  1.00  0.00    -0.006 C
HETATM   14  C22 UNL     1      26.523   6.924  -8.665  1.00  0.00     0.005 C
HETATM   15  C23 UNL     1      25.106   6.442  -8.316  1.00  0.00     0.001 C
HETATM   16  C24 UNL     1      25.466   6.016  -6.871  1.00  0.00     0.010 C
HETATM   17  C25 UNL     1      25.924   7.408  -6.370  1.00  0.00     0.023 C
HETATM   18  C26 UNL     1      26.405   7.373  -4.979  1.00  0.00    -0.043 A
HETATM   19  C27 UNL     1      26.984   6.143  -4.627  1.00  0.00     0.011 A
HETATM   20  C28 UNL     1      27.415   5.858  -3.347  1.00  0.00     0.040 A
HETATM   21  C29 UNL     1      27.258   6.838  -2.406  1.00  0.00     0.099 A
HETATM   22  C30 UNL     1      26.681   8.068  -2.754  1.00  0.00     0.110 A
HETATM   23  C31 UNL     1      26.256   8.344  -4.040  1.00  0.00    -0.001 A
HETATM   24  O4  UNL     1      26.464   9.111  -1.881  1.00  0.00    -0.339 OA
HETATM   25  C32 UNL     1      26.183  10.221  -2.690  1.00  0.00     0.167 C
ENDROOT
BRANCH   8  26
HETATM   26  C10 UNL     1      23.569  11.909  -7.033  1.00  0.00     0.273 C
BRANCH  26  27
HETATM   27  C11 UNL     1      22.542  12.899  -6.496  1.00  0.00     0.030 C
BRANCH  27  28
HETATM   28  C12 UNL     1      23.327  13.917  -5.655  1.00  0.00     0.004 C
BRANCH  28  29
HETATM   29  C13 UNL     1      23.241  15.285  -6.308  1.00  0.00     0.036 C
BRANCH  29  30
HETATM   30  C14 UNL     1      23.624  16.313  -5.264  1.00  0.00     0.311 C
BRANCH  30  31
HETATM   31  N3  UNL     1      22.750  17.449  -5.458  1.00  0.00     0.005 N
HETATM   32  C15 UNL     1      22.271  17.431  -6.836  1.00  0.00     0.355 C
HETATM   33  C16 UNL     1      23.521  18.660  -5.219  1.00  0.00     0.355 C
HETATM   34  O2  UNL     1      21.684  17.360  -4.653  1.00  0.00    -0.065 OA
ENDBRANCH  30  31
ENDBRANCH  29  30
ENDBRANCH  28  29
ENDBRANCH  27  28
ENDBRANCH  26  27
ENDBRANCH   8  26
BRANCH   4  35
HETATM   35  O1  UNL     1      27.709  10.482  -5.209  1.00  0.00    -0.386 OA
ATOM     36  H1  UNL     1      27.799   9.828  -5.893  1.00  0.00     0.210 HD
ENDBRANCH   4  35
BRANCH   1  37
HETATM   37  N1  UNL     1      27.780  11.474  -1.336  1.00  0.00    -0.414 N
HETATM   38  C1  UNL     1      27.476  12.845  -1.109  1.00  0.00     0.143 C
HETATM   39  C2  UNL     1      28.529  10.776  -0.421  1.00  0.00     0.143 C
ENDBRANCH   1  37
BRANCH  21  40
HETATM   40  O3  UNL     1      27.671   6.605  -1.104  1.00  0.00    -0.358 OA
ATOM     41  H3  UNL     1      27.839   5.715  -0.818  1.00  0.00     0.217 HD
ENDBRANCH  21  40
TORSDOF 9
ENDMDL