MODEL 4
REMARK VINA RESULT: -7.331232742      2.420      5.600
REMARK  1 active torsions:
REMARK  status: ('A' for Active; 'I' for Inactive)
REMARK    1  A    between atoms: C15_16  and  O2_17
ROOT
HETATM    1  C1  UNL     1       1.172  -7.713 -13.313  1.00  0.00     0.017 C
HETATM    2  C2  UNL     1       0.896  -8.563 -12.358  1.00  0.00    -0.052 C
HETATM    3  C3  UNL     1       0.783 -10.066 -12.454  1.00  0.00     0.074 C
HETATM    4  C4  UNL     1       1.335 -10.434 -11.086  1.00  0.00     0.066 C
HETATM    5  C5  UNL     1       2.828 -10.582 -11.268  1.00  0.00     0.038 C
HETATM    6  C6  UNL     1       3.602 -10.416 -10.003  1.00  0.00     0.003 C
HETATM    7  C7  UNL     1       3.767 -11.813  -9.394  1.00  0.00     0.000 C
HETATM    8  C8  UNL     1       2.371 -12.186  -8.880  1.00  0.00     0.000 C
HETATM    9  C9  UNL     1       1.602 -12.710 -10.050  1.00  0.00     0.003 C
HETATM   10  C10 UNL     1       0.665 -11.703 -10.660  1.00  0.00     0.038 C
HETATM   11  O1  UNL     1       1.001  -9.434 -10.218  1.00  0.00    -0.364 OA
HETATM   12  C11 UNL     1       0.611  -8.323 -10.910  1.00  0.00     0.085 C
HETATM   13  C12 UNL     1       1.430  -7.141 -10.468  1.00  0.00     0.043 C
HETATM   14  C13 UNL     1       1.144  -6.808  -9.011  1.00  0.00     0.006 C
HETATM   15  C14 UNL     1       0.009  -5.837  -8.970  1.00  0.00     0.032 C
HETATM   16  C15 UNL     1      -1.342  -6.455  -8.946  1.00  0.00     0.118 C
HETATM   17  C16 UNL     1      -1.355  -7.895  -9.405  1.00  0.00     0.035 C
HETATM   18  C17 UNL     1      -0.876  -8.060 -10.808  1.00  0.00     0.045 C
ENDROOT
BRANCH  16  19
HETATM   19  O2  UNL     1      -1.895  -6.412  -7.675  1.00  0.00    -0.396 OA
ATOM     20  H2  UNL     1      -2.491  -7.138  -7.531  1.00  0.00     0.210 HD
ENDBRANCH  16  19
TORSDOF 1
ENDMDL