MODEL 1
REMARK VINA RESULT: -8.589404885      0.000      0.000
REMARK  0 active torsions:
REMARK  status: ('A' for Active; 'I' for Inactive)
ROOT
HETATM    1  C1  UNL     1       2.208  -7.136 -11.478  1.00  0.00     0.015 C
HETATM    2  C2  UNL     1       2.272  -8.500 -10.721  1.00  0.00    -0.043 C
HETATM    3  C3  UNL     1       1.534  -8.029  -9.432  1.00  0.00     0.015 C
HETATM    4  C4  UNL     1       3.674  -8.598 -10.271  1.00  0.00     0.009 C
HETATM    5  C5  UNL     1       3.899  -9.104  -8.868  1.00  0.00     0.001 C
HETATM    6  C6  UNL     1       3.661 -10.513  -8.595  1.00  0.00     0.000 C
HETATM    7  C7  UNL     1       3.787 -11.351  -9.821  1.00  0.00     0.007 C
HETATM    8  C8  UNL     1       2.415 -11.698 -10.382  1.00  0.00     0.018 C
HETATM    9  C9  UNL     1       2.395 -13.171 -10.414  1.00  0.00     0.142 C
HETATM   10  N1  UNL     1       3.093 -13.850 -11.464  1.00  0.00    -0.092 NA
HETATM   11  O1  UNL     1       2.198 -14.882 -11.305  1.00  0.00    -0.279 OA
HETATM   12  C10 UNL     1       1.257 -13.878 -10.973  1.00  0.00     0.169 C
HETATM   13  C11 UNL     1       0.880 -13.143 -12.222  1.00  0.00     0.036 C
HETATM   14  C12 UNL     1       0.731 -11.678 -12.064  1.00  0.00     0.013 C
HETATM   15  C13 UNL     1       1.982 -10.947 -11.555  1.00  0.00    -0.031 C
HETATM   16  C14 UNL     1       2.861 -10.892 -12.746  1.00  0.00     0.010 C
HETATM   17  C15 UNL     1       2.095  -9.931 -13.649  1.00  0.00     0.001 C
HETATM   18  C16 UNL     1       1.107  -9.197 -12.788  1.00  0.00     0.006 C
HETATM   19  C17 UNL     1       1.534  -9.541 -11.353  1.00  0.00     0.002 C
ENDROOT
TORSDOF 0
ENDMDL