MODEL 1
REMARK VINA RESULT: -7.801021029      0.000      0.000
REMARK  0 active torsions:
REMARK  status: ('A' for Active; 'I' for Inactive)
ROOT
HETATM    1  C1  UNL     1       2.655  -6.635 -11.595  1.00  0.00     0.156 C
HETATM    2  N1  UNL     1       2.529  -7.669 -10.610  1.00  0.00    -0.349 N
HETATM    3  C2  UNL     1       3.478  -7.944  -9.615  1.00  0.00     0.080 C
HETATM    4  S1  UNL     1       4.503  -6.898  -8.851  1.00  0.00    -0.065 SA
HETATM    5  C3  UNL     1       3.430  -9.390  -9.334  1.00  0.00     0.080 C
HETATM    6  C4  UNL     1       1.924  -9.649  -9.444  1.00  0.00     0.042 C
HETATM    7  C5  UNL     1       1.566 -11.062  -9.660  1.00  0.00     0.011 C
HETATM    8  C6  UNL     1       2.624 -12.066  -9.255  1.00  0.00     0.001 C
HETATM    9  C7  UNL     1       3.302 -12.758 -10.389  1.00  0.00     0.000 C
HETATM   10  C8  UNL     1       2.421 -13.397 -11.409  1.00  0.00     0.000 C
HETATM   11  C9  UNL     1       2.843 -13.044 -12.840  1.00  0.00     0.000 C
HETATM   12  C10 UNL     1       1.814 -12.305 -13.610  1.00  0.00     0.000 C
HETATM   13  C11 UNL     1       2.227 -11.015 -14.195  1.00  0.00     0.000 C
HETATM   14  C12 UNL     1       2.463  -9.905 -13.185  1.00  0.00     0.004 C
HETATM   15  C13 UNL     1       1.268  -9.063 -12.931  1.00  0.00     0.029 C
HETATM   16  C14 UNL     1       0.686  -9.000 -11.576  1.00  0.00    -0.001 C
HETATM   17  C15 UNL     1       1.461  -8.606 -10.407  1.00  0.00     0.013 C
ENDROOT
TORSDOF 0
ENDMDL