MODEL 4
REMARK VINA RESULT: -7.598731884      2.288      3.414
REMARK  1 active torsions:
REMARK  status: ('A' for Active; 'I' for Inactive)
REMARK    1  A    between atoms: C14_15  and  O2_16
ROOT
HETATM    1  C1  UNL     1       2.126 -13.862 -10.160  1.00  0.00     0.010 C
HETATM    2  C2  UNL     1       1.585 -12.547 -10.727  1.00  0.00    -0.014 C
HETATM    3  C3  UNL     1       1.073 -12.757 -12.085  1.00  0.00     0.005 C
HETATM    4  C4  UNL     1       1.250 -11.673 -13.068  1.00  0.00     0.001 C
HETATM    5  C5  UNL     1       2.525 -10.873 -12.879  1.00  0.00     0.005 C
HETATM    6  C6  UNL     1       2.508 -10.332 -11.481  1.00  0.00    -0.004 C
HETATM    7  C7  UNL     1       2.640 -11.517 -10.545  1.00  0.00    -0.006 C
HETATM    8  C8  UNL     1       2.724 -11.139  -9.110  1.00  0.00     0.008 C
HETATM    9  C9  UNL     1       3.479  -9.906  -8.801  1.00  0.00     0.033 C
HETATM   10  C10 UNL     1       3.329  -8.811  -9.802  1.00  0.00     0.127 C
HETATM   11  O1  UNL     1       4.279  -7.832  -9.752  1.00  0.00    -0.374 OA
HETATM   12  C11 UNL     1       4.081  -7.133 -10.951  1.00  0.00     0.064 C
HETATM   13  C12 UNL     1       2.972  -6.151 -10.773  1.00  0.00     0.040 C
HETATM   14  C13 UNL     1       3.485  -4.903 -11.473  1.00  0.00     0.035 C
HETATM   15  C14 UNL     1       4.954  -4.920 -11.049  1.00  0.00     0.121 C
HETATM   16  C15 UNL     1       5.319  -6.370 -11.323  1.00  0.00     0.069 C
HETATM   17  C16 UNL     1       3.733  -8.190 -12.002  1.00  0.00     0.045 C
HETATM   18  C17 UNL     1       3.651  -9.426 -11.175  1.00  0.00     0.022 C
ENDROOT
BRANCH  15  19
HETATM   19  O2  UNL     1       5.713  -4.034 -11.780  1.00  0.00    -0.395 OA
ATOM     20  H2  UNL     1       5.324  -3.842 -12.625  1.00  0.00     0.210 HD
ENDBRANCH  15  19
TORSDOF 1
ENDMDL