MODEL 5
REMARK VINA RESULT: -7.739560838      1.780      5.185
REMARK  1 active torsions:
REMARK  status: ('A' for Active; 'I' for Inactive)
REMARK    1  A    between atoms: O1_1  and  C1_3
ROOT
HETATM    1  C1  UNL     1       0.979  -9.092 -11.092  1.00  0.00     0.068 C
HETATM    2  C2  UNL     1       0.656  -9.936  -9.892  1.00  0.00     0.039 C
HETATM    3  C3  UNL     1       0.074 -11.255 -10.294  1.00  0.00     0.006 C
HETATM    4  C4  UNL     1       0.417 -11.677 -11.681  1.00  0.00     0.038 C
HETATM    5  C5  UNL     1       1.800 -11.231 -12.117  1.00  0.00     0.067 C
HETATM    6  C6  UNL     1       1.947 -11.664 -13.566  1.00  0.00     0.038 C
HETATM    7  C7  UNL     1       2.953 -12.753 -13.752  1.00  0.00     0.005 C
HETATM    8  C8  UNL     1       2.890 -13.775 -12.654  1.00  0.00     0.026 C
HETATM    9  C9  UNL     1       2.792 -13.151 -11.285  1.00  0.00     0.168 C
HETATM   10  O2  UNL     1       2.740 -11.787 -11.290  1.00  0.00    -0.380 OA
HETATM   11  C10 UNL     1       1.963  -9.729 -12.021  1.00  0.00     0.055 C
HETATM   12  C11 UNL     1       3.403  -9.366 -11.686  1.00  0.00     0.015 C
HETATM   13  C12 UNL     1       3.553  -7.889 -11.898  1.00  0.00    -0.014 C
HETATM   14  C13 UNL     1       4.354  -7.232 -10.765  1.00  0.00     0.005 C
HETATM   15  C14 UNL     1       3.421  -6.615  -9.775  1.00  0.00     0.001 C
HETATM   16  C15 UNL     1       2.185  -7.502  -9.544  1.00  0.00     0.007 C
HETATM   17  C16 UNL     1       1.402  -7.711 -10.778  1.00  0.00     0.021 C
HETATM   18  C17 UNL     1       2.229  -7.161 -11.948  1.00  0.00     0.012 C
ENDROOT
BRANCH   1  19
HETATM   19  O1  UNL     1      -0.234  -8.991 -11.821  1.00  0.00    -0.389 OA
ATOM     20  H1  UNL     1      -0.380  -9.854 -12.191  1.00  0.00     0.210 HD
ENDBRANCH   1  19
TORSDOF 1
ENDMDL