MODEL 2
REMARK VINA RESULT: -8.563739671      2.289      4.980
REMARK  0 active torsions:
REMARK  status: ('A' for Active; 'I' for Inactive)
ROOT
HETATM    1  C1  UNL     1       3.372 -13.160 -10.380  1.00  0.00     0.016 C
HETATM    2  C2  UNL     1       2.417 -12.349 -11.296  1.00  0.00    -0.036 C
HETATM    3  C3  UNL     1       1.120 -12.965 -11.091  1.00  0.00     0.010 C
HETATM    4  C4  UNL     1       1.319 -14.381 -11.658  1.00  0.00     0.001 C
HETATM    5  C5  UNL     1       2.574 -14.341 -12.489  1.00  0.00     0.005 C
HETATM    6  C6  UNL     1       2.801 -12.869 -12.693  1.00  0.00    -0.006 C
HETATM    7  C7  UNL     1       1.873 -12.257 -13.673  1.00  0.00     0.006 C
HETATM    8  C8  UNL     1       2.154 -10.796 -13.724  1.00  0.00     0.009 C
HETATM    9  C9  UNL     1       2.643 -10.142 -12.510  1.00  0.00     0.029 C
HETATM   10  C10 UNL     1       2.668 -10.918 -11.226  1.00  0.00     0.008 C
HETATM   11  C11 UNL     1       1.816  -9.927 -10.593  1.00  0.00     0.029 C
HETATM   12  C12 UNL     1       0.496 -10.219  -9.989  1.00  0.00     0.011 C
HETATM   13  C13 UNL     1       0.024  -8.906  -9.325  1.00  0.00     0.035 C
HETATM   14  C14 UNL     1       0.205  -7.827 -10.403  1.00  0.00     0.160 C
HETATM   15  C15 UNL     1      -0.573  -8.262 -11.589  1.00  0.00     0.038 C
HETATM   16  C16 UNL     1       0.269  -9.176 -12.452  1.00  0.00     0.044 C
HETATM   17  C17 UNL     1       1.637  -9.220 -11.885  1.00  0.00     0.104 C
HETATM   18  O1  UNL     1       2.041  -7.892 -11.726  1.00  0.00    -0.228 OA
HETATM   19  O2  UNL     1       1.502  -7.485 -10.600  1.00  0.00    -0.235 OA
ENDROOT
TORSDOF 0
ENDMDL