MODEL 3
REMARK VINA RESULT: -7.975798544      2.468      5.489
REMARK  0 active torsions:
REMARK  status: ('A' for Active; 'I' for Inactive)
ROOT
HETATM    1  C1  UNL     1       2.967 -13.829 -13.050  1.00  0.00     0.018 C
HETATM    2  C2  UNL     1       2.056 -12.742 -12.463  1.00  0.00    -0.015 C
HETATM    3  C3  UNL     1       1.436 -12.022 -13.606  1.00  0.00     0.012 C
HETATM    4  C4  UNL     1       0.826 -10.708 -13.160  1.00  0.00     0.008 C
HETATM    5  C5  UNL     1       1.961  -9.859 -12.675  1.00  0.00     0.027 C
HETATM    6  C6  UNL     1       2.764 -10.478 -11.593  1.00  0.00     0.198 C
HETATM    7  N1  UNL     1       2.360  -9.745 -10.379  1.00  0.00    -0.061 N
ATOM      8  H11 UNL     1       2.941  -9.897  -9.553  1.00  0.00     0.278 HD
ATOM      9  H12 UNL     1       1.500 -10.063  -9.933  1.00  0.00     0.278 HD
HETATM   10  C7  UNL     1       2.341  -8.411 -10.890  1.00  0.00     0.130 C
HETATM   11  C8  UNL     1       3.739  -7.986 -11.258  1.00  0.00     0.047 C
HETATM   12  C9  UNL     1       1.738  -7.381 -10.020  1.00  0.00     0.039 C
HETATM   13  C10 UNL     1       1.506  -6.120 -10.755  1.00  0.00     0.002 C
HETATM   14  C11 UNL     1       1.704  -6.104 -12.208  1.00  0.00     0.001 C
HETATM   15  C12 UNL     1       1.521  -7.391 -12.940  1.00  0.00     0.012 C
HETATM   16  C13 UNL     1       1.442  -8.592 -12.087  1.00  0.00    -0.005 C
HETATM   17  C14 UNL     1       0.033  -8.797 -11.621  1.00  0.00     0.018 C
HETATM   18  C15 UNL     1       2.712 -11.928 -11.438  1.00  0.00     0.051 C
HETATM   19  C16 UNL     1       1.931 -12.273 -10.163  1.00  0.00     0.175 C
HETATM   20  O1  UNL     1       1.570 -13.592 -10.405  1.00  0.00    -0.390 OA
HETATM   21  C17 UNL     1       0.993 -13.506 -11.663  1.00  0.00     0.177 C
ENDROOT
TORSDOF 0
ENDMDL