MODEL 5
REMARK VINA RESULT: -6.804479999      1.810      6.309
REMARK  3 active torsions:
REMARK  status: ('A' for Active; 'I' for Inactive)
REMARK    1  A    between atoms: C2_2  and  O1_5
REMARK    2  A    between atoms: O1_5  and  C5_6
REMARK       I    between atoms: C5_6  and  N1_8
REMARK    3  A    between atoms: N1_8  and  C6_10
ROOT
HETATM    1  C6  UNL     1       3.958  -7.782 -11.239  1.00  0.00     0.036 C
HETATM    2  C7  UNL     1       2.793  -7.024 -11.775  1.00  0.00     0.035 C
HETATM    3  C8  UNL     1       2.602  -5.657 -11.176  1.00  0.00    -0.012 C
HETATM    4  C9  UNL     1       3.325  -4.570 -11.904  1.00  0.00     0.005 C
HETATM    5  C10 UNL     1       4.778  -4.632 -11.959  1.00  0.00     0.005 C
HETATM    6  C11 UNL     1       5.461  -5.748 -11.242  1.00  0.00    -0.012 C
HETATM    7  C12 UNL     1       5.288  -5.670  -9.742  1.00  0.00     0.009 C
HETATM    8  C13 UNL     1       4.056  -6.352  -9.261  1.00  0.00    -0.012 C
HETATM    9  C14 UNL     1       2.805  -5.646  -9.690  1.00  0.00     0.009 C
HETATM   10  C15 UNL     1       4.019  -7.770  -9.728  1.00  0.00     0.035 C
HETATM   11  C16 UNL     1       5.197  -7.105 -11.806  1.00  0.00     0.035 C
ENDROOT
BRANCH   1  12
HETATM   12  N1  UNL     1       3.937  -9.138 -11.681  1.00  0.00    -0.328 N
HETATM   13  C5  UNL     1       2.886 -10.061 -11.409  1.00  0.00     0.361 C
HETATM   14  O2  UNL     1       1.855  -9.806 -10.753  1.00  0.00    -0.238 OA
ATOM     15  H1  UNL     1       4.731  -9.470 -12.229  1.00  0.00     0.165 HD
BRANCH  13  16
HETATM   16  O1  UNL     1       2.960 -11.382 -11.893  1.00  0.00    -0.294 OA
BRANCH  16  17
HETATM   17  C2  UNL     1       2.324 -11.764 -13.096  1.00  0.00     0.061 C
HETATM   18  C1  UNL     1       1.001 -12.374 -12.776  1.00  0.00     0.046 C
HETATM   19  C3  UNL     1       3.146 -12.821 -13.838  1.00  0.00     0.046 C
HETATM   20  C4  UNL     1       2.115 -10.616 -14.039  1.00  0.00     0.046 C
ENDBRANCH  16  17
ENDBRANCH  13  16
ENDBRANCH   1  12
TORSDOF 3
ENDMDL