MODEL 4
REMARK VINA RESULT: -8.025765515      2.220      4.770
REMARK  1 active torsions:
REMARK  status: ('A' for Active; 'I' for Inactive)
REMARK    1  A    between atoms: C11_11  and  N1_12
ROOT
HETATM    1  C1  UNL     1       3.125  -6.711 -11.413  1.00  0.00     0.011 C
HETATM    2  C2  UNL     1       2.506  -8.099 -11.158  1.00  0.00    -0.008 C
HETATM    3  C3  UNL     1       3.581  -9.105 -10.970  1.00  0.00     0.006 C
HETATM    4  C4  UNL     1       3.315 -10.299 -10.146  1.00  0.00     0.010 C
HETATM    5  C5  UNL     1       2.811 -11.548 -10.632  1.00  0.00    -0.033 C
HETATM    6  C6  UNL     1       3.809 -12.660 -10.213  1.00  0.00     0.016 C
HETATM    7  C7  UNL     1       1.524 -11.945  -9.857  1.00  0.00     0.018 C
HETATM    8  C8  UNL     1       1.282 -13.327 -10.454  1.00  0.00     0.008 C
HETATM    9  C9  UNL     1       2.115 -13.430 -11.727  1.00  0.00     0.008 C
HETATM   10  C10 UNL     1       2.281 -11.906 -11.931  1.00  0.00     0.024 C
HETATM   11  C11 UNL     1       2.813 -11.452 -13.196  1.00  0.00     0.188 C
HETATM   12  C12 UNL     1       1.890 -10.401 -13.808  1.00  0.00     0.034 C
HETATM   13  C13 UNL     1       2.015  -9.014 -13.442  1.00  0.00     0.013 C
HETATM   14  C14 UNL     1       1.482  -8.388 -12.249  1.00  0.00    -0.019 C
HETATM   15  C15 UNL     1       0.967  -6.974 -12.635  1.00  0.00     0.018 C
HETATM   16  C16 UNL     1       0.285  -8.980 -11.530  1.00  0.00     0.177 C
HETATM   17  O1  UNL     1       0.748  -9.731 -10.520  1.00  0.00    -0.390 OA
HETATM   18  C17 UNL     1       0.388 -10.964 -10.201  1.00  0.00     0.172 C
ENDROOT
BRANCH  11  19
HETATM   19  N1  UNL     1       2.677 -12.620 -14.108  1.00  0.00    -0.075 N
ATOM     20  H13 UNL     1       1.760 -12.697 -14.549  1.00  0.00     0.274 HD
ATOM     21  H12 UNL     1       3.214 -12.537 -14.971  1.00  0.00     0.274 HD
ATOM     22  H11 UNL     1       2.930 -13.428 -13.539  1.00  0.00     0.274 HD
ENDBRANCH  11  19
TORSDOF 1
ENDMDL