MODEL 1
REMARK VINA RESULT: -8.340904598      0.000      0.000
REMARK  1 active torsions:
REMARK  status: ('A' for Active; 'I' for Inactive)
REMARK    1  A    between atoms: C3_5  and  C4_6
ROOT
HETATM    1  C1  UNL     1       4.038  -8.154  -9.458  1.00  0.00     0.062 C
HETATM    2  C2  UNL     1       2.982  -8.849 -10.246  1.00  0.00    -0.021 C
HETATM    3  N1  UNL     1       1.754  -8.798  -9.959  1.00  0.00    -0.391 N
ATOM      4  H1  UNL     1       1.364  -8.283  -9.169  1.00  0.00     0.159 HD
HETATM    5  C3  UNL     1       0.972  -9.573 -10.907  1.00  0.00     0.097 C
HETATM    6  C8  UNL     1       1.909 -10.630 -11.304  1.00  0.00    -0.011 C
HETATM    7  C9  UNL     1       2.303 -11.575 -10.237  1.00  0.00     0.015 C
HETATM    8  C10 UNL     1       3.295 -12.622 -10.678  1.00  0.00     0.033 C
HETATM    9  C11 UNL     1       2.593 -13.885 -11.157  1.00  0.00     0.121 C
HETATM   10  C12 UNL     1       1.249 -13.540 -11.742  1.00  0.00     0.039 C
HETATM   11  C13 UNL     1       1.658 -12.646 -12.863  1.00  0.00     0.016 C
HETATM   12  C14 UNL     1       2.974 -13.262 -13.273  1.00  0.00     0.173 C
HETATM   13  O1  UNL     1       3.277 -14.262 -12.339  1.00  0.00    -0.385 OA
HETATM   14  C15 UNL     1       1.659 -11.204 -12.654  1.00  0.00    -0.002 C
HETATM   15  C16 UNL     1       2.570 -10.597 -13.738  1.00  0.00     0.011 C
HETATM   16  C17 UNL     1       3.142  -9.700 -11.470  1.00  0.00     0.063 C
ENDROOT
BRANCH   5  17
HETATM   17  C4  UNL     1      -0.347  -9.779 -10.364  1.00  0.00    -0.030 C
HETATM   18  C5  UNL     1      -0.875 -11.182 -10.264  1.00  0.00     0.016 C
HETATM   19  C6  UNL     1      -0.276  -9.307  -8.888  1.00  0.00     0.016 C
HETATM   20  C7  UNL     1      -1.456  -8.923 -10.933  1.00  0.00     0.016 C
ENDBRANCH   5  17
TORSDOF 1
ENDMDL