MODEL 3
REMARK VINA RESULT: -6.009355164      0.135      1.951
REMARK  4 active torsions:
REMARK  status: ('A' for Active; 'I' for Inactive)
REMARK    1  A    between atoms: N1_1  and  C1_5
REMARK    2  A    between atoms: C1_5  and  C2_6
REMARK    3  A    between atoms: C2_6  and  C3_7
REMARK    4  A    between atoms: C3_7  and  C4_8
ROOT
HETATM    1  C4  UNL     1      23.686 -43.550 -11.366  1.00  0.00    -0.039 C
HETATM    2  C5  UNL     1      24.165 -43.436  -9.960  1.00  0.00     0.014 C
HETATM    3  C6  UNL     1      23.909 -44.755  -9.265  1.00  0.00    -0.013 C
HETATM    4  C7  UNL     1      24.592 -45.904  -9.954  1.00  0.00     0.009 C
HETATM    5  C8  UNL     1      24.156 -45.995 -11.389  1.00  0.00    -0.013 C
HETATM    6  C9  UNL     1      22.677 -46.290 -11.403  1.00  0.00     0.009 C
HETATM    7  C10 UNL     1      21.959 -45.187 -10.670  1.00  0.00    -0.013 C
HETATM    8  C11 UNL     1      22.422 -45.036  -9.246  1.00  0.00     0.009 C
HETATM    9  C12 UNL     1      22.198 -43.892 -11.381  1.00  0.00     0.014 C
HETATM   10  C13 UNL     1      24.421 -44.667 -12.071  1.00  0.00     0.014 C
ENDROOT
BRANCH   1  11
HETATM   11  C3  UNL     1      23.853 -42.290 -12.166  1.00  0.00     0.011 C
BRANCH  11  12
HETATM   12  C2  UNL     1      24.467 -41.169 -11.399  1.00  0.00     0.028 C
BRANCH  12  13
HETATM   13  C1  UNL     1      25.763 -40.785 -12.109  1.00  0.00     0.229 C
BRANCH  13  14
HETATM   14  N1  UNL     1      26.747 -41.842 -12.003  1.00  0.00    -0.079 N
ATOM     15  H13 UNL     1      27.385 -41.843 -12.798  1.00  0.00     0.274 HD
ATOM     16  H12 UNL     1      27.423 -41.653 -11.263  1.00  0.00     0.274 HD
ATOM     17  H11 UNL     1      26.299 -42.750 -11.879  1.00  0.00     0.274 HD
ENDBRANCH  13  14
ENDBRANCH  12  13
ENDBRANCH  11  12
ENDBRANCH   1  11
TORSDOF 4
ENDMDL