MODEL 3
REMARK VINA RESULT: -6.331723469      1.347      1.712
REMARK  5 active torsions:
REMARK  status: ('A' for Active; 'I' for Inactive)
REMARK    1  A    between atoms: C2_2  and  N1_3
REMARK    2  A    between atoms: C2_2  and  C3_7
REMARK    3  A    between atoms: C3_7  and  N2_8
REMARK    4  A    between atoms: C3_7  and  C4_12
REMARK    5  A    between atoms: C4_12  and  C5_13
ROOT
HETATM    1  C3  UNL     1      32.639 -48.273 -12.667  1.00  0.00     0.213 C
ENDROOT
BRANCH   1   2
HETATM    2  C2  UNL     1      32.407 -49.369 -11.646  1.00  0.00     0.209 C
HETATM    3  C1  UNL     1      33.703 -50.183 -11.602  1.00  0.00     0.042 C
BRANCH   2   4
HETATM    4  N1  UNL     1      32.211 -48.809 -10.320  1.00  0.00    -0.073 N
ATOM      5  H13 UNL     1      32.606 -47.874 -10.216  1.00  0.00     0.274 HD
ATOM      6  H12 UNL     1      31.240 -48.561 -10.128  1.00  0.00     0.274 HD
ATOM      7  H11 UNL     1      32.592 -49.481  -9.654  1.00  0.00     0.274 HD
ENDBRANCH   2   4
ENDBRANCH   1   2
BRANCH   1   8
HETATM    8  N2  UNL     1      32.382 -47.004 -12.037  1.00  0.00    -0.073 N
ATOM      9  H23 UNL     1      32.874 -46.899 -11.151  1.00  0.00     0.274 HD
ATOM     10  H22 UNL     1      32.817 -46.225 -12.531  1.00  0.00     0.274 HD
ATOM     11  H21 UNL     1      31.373 -46.892 -11.941  1.00  0.00     0.274 HD
ENDBRANCH   1   8
BRANCH   1  12
HETATM   12  C4  UNL     1      31.809 -48.466 -13.914  1.00  0.00     0.040 C
BRANCH  12  13
HETATM   13  C5  UNL     1      30.490 -49.041 -13.517  1.00  0.00    -0.008 C
HETATM   14  C6  UNL     1      29.530 -48.101 -12.902  1.00  0.00     0.005 C
HETATM   15  C7  UNL     1      28.183 -48.773 -13.114  1.00  0.00     0.005 C
HETATM   16  C8  UNL     1      28.426 -50.008 -13.918  1.00  0.00    -0.010 C
HETATM   17  C9  UNL     1      27.474 -50.210 -15.051  1.00  0.00     0.005 C
HETATM   18  C12 UNL     1      29.721 -49.652 -14.652  1.00  0.00    -0.006 C
HETATM   19  C10 UNL     1      27.816 -49.110 -16.014  1.00  0.00     0.001 C
HETATM   20  C11 UNL     1      29.243 -48.668 -15.665  1.00  0.00     0.005 C
ENDBRANCH  12  13
ENDBRANCH   1  12
TORSDOF 5
ENDMDL