MODEL 5
REMARK VINA RESULT: -5.490377484      1.400      2.157
REMARK  3 active torsions:
REMARK  status: ('A' for Active; 'I' for Inactive)
REMARK    1  A    between atoms: C2_2  and  C3_3
REMARK    2  A    between atoms: C8_11  and  N2_13
REMARK    3  A    between atoms: N2_13  and  C10_15
ROOT
HETATM    1  C3  UNL     1      23.691 -44.992 -10.928  1.00  0.00     0.192 C
HETATM    2  N1  UNL     1      23.299 -43.716 -10.356  1.00  0.00    -0.064 N
ATOM      3  H11 UNL     1      23.821 -43.472  -9.515  1.00  0.00     0.278 HD
ATOM      4  H12 UNL     1      22.374 -43.732  -9.929  1.00  0.00     0.278 HD
HETATM    5  C4  UNL     1      23.426 -42.741 -11.414  1.00  0.00     0.214 C
HETATM    6  C5  UNL     1      24.890 -42.583 -11.733  1.00  0.00     0.036 C
HETATM    7  C6  UNL     1      25.275 -43.886 -12.408  1.00  0.00     0.011 C
HETATM    8  C7  UNL     1      23.996 -44.706 -12.358  1.00  0.00     0.046 C
HETATM    9  C8  UNL     1      22.990 -43.576 -12.634  1.00  0.00     0.056 C
HETATM   10  C9  UNL     1      21.587 -44.005 -12.475  1.00  0.00     0.041 C
ENDROOT
BRANCH   9  11
HETATM   11  N2  UNL     1      23.308 -42.822 -13.780  1.00  0.00    -0.407 N
ATOM     12  H2  UNL     1      24.217 -42.920 -14.232  1.00  0.00     0.154 HD
BRANCH  11  13
HETATM   13  C10 UNL     1      22.340 -41.926 -14.292  1.00  0.00     0.069 C
HETATM   14  C11 UNL     1      23.079 -40.653 -14.724  1.00  0.00     0.031 C
HETATM   15  C12 UNL     1      21.549 -42.399 -15.465  1.00  0.00     0.031 C
ENDBRANCH  11  13
ENDBRANCH   9  11
BRANCH   1  16
HETATM   16  C2  UNL     1      24.826 -45.542 -10.130  1.00  0.00     0.029 C
HETATM   17  C1  UNL     1      25.294 -46.891 -10.606  1.00  0.00     0.007 C
ENDBRANCH   1  16
TORSDOF 3
ENDMDL