MODEL 3
REMARK VINA RESULT: -6.652646896      0.487      1.893
REMARK  3 active torsions:
REMARK  status: ('A' for Active; 'I' for Inactive)
REMARK    1  A    between atoms: C2_2  and  N1_4
REMARK    2  A    between atoms: N1_4  and  C4_6
REMARK    3  A    between atoms: C4_6  and  C5_7
ROOT
HETATM    1  C5  UNL     1      23.648 -43.600 -11.839  1.00  0.00    -0.008 C
HETATM    2  C6  UNL     1      24.431 -44.883 -12.198  1.00  0.00     0.019 C
HETATM    3  C7  UNL     1      24.149 -45.989 -11.237  1.00  0.00    -0.013 C
HETATM    4  C8  UNL     1      24.545 -45.568  -9.855  1.00  0.00     0.009 C
HETATM    5  C9  UNL     1      23.720 -44.323  -9.508  1.00  0.00    -0.013 C
HETATM    6  C10 UNL     1      22.283 -44.738  -9.526  1.00  0.00     0.009 C
HETATM    7  C11 UNL     1      21.890 -45.139 -10.958  1.00  0.00    -0.013 C
HETATM    8  C12 UNL     1      22.681 -46.325 -11.371  1.00  0.00     0.009 C
HETATM    9  C13 UNL     1      22.174 -43.886 -11.803  1.00  0.00     0.019 C
HETATM   10  C14 UNL     1      24.057 -43.196 -10.441  1.00  0.00     0.019 C
ENDROOT
BRANCH   1  11
HETATM   11  C4  UNL     1      24.047 -42.612 -12.874  1.00  0.00     0.065 C
BRANCH  11  12
HETATM   12  N1  UNL     1      23.340 -41.443 -13.072  1.00  0.00    -0.398 N
ATOM     13  H1  UNL     1      23.188 -40.848 -12.257  1.00  0.00     0.159 HD
BRANCH  12  14
HETATM   14  C2  UNL     1      22.816 -41.005 -14.285  1.00  0.00     0.072 C
HETATM   15  C1  UNL     1      22.011 -42.033 -15.059  1.00  0.00     0.031 C
HETATM   16  C3  UNL     1      24.031 -40.669 -15.193  1.00  0.00     0.031 C
ENDBRANCH  12  14
ENDBRANCH  11  12
ENDBRANCH   1  11
TORSDOF 3
ENDMDL