MODEL 2
REMARK VINA RESULT: -6.558654268      1.120      2.060
REMARK  3 active torsions:
REMARK  status: ('A' for Active; 'I' for Inactive)
REMARK    1  A    between atoms: C3_3  and  N1_4
REMARK    2  A    between atoms: N1_4  and  C4_7
REMARK    3  A    between atoms: C4_7  and  C5_8
ROOT
HETATM    1  C5  UNL     1      23.726 -43.679 -11.257  1.00  0.00    -0.009 C
HETATM    2  C6  UNL     1      24.432 -44.698 -12.125  1.00  0.00     0.016 C
HETATM    3  C7  UNL     1      24.065 -45.983 -11.372  1.00  0.00    -0.011 C
HETATM    4  C8  UNL     1      22.592 -46.221 -11.358  1.00  0.00     0.029 C
HETATM    5  C9  UNL     1      21.778 -45.074 -10.809  1.00  0.00     0.077 C
HETATM    6  C10 UNL     1      22.242 -43.815 -11.490  1.00  0.00     0.036 C
HETATM    7  N2  UNL     1      21.887 -44.900  -9.401  1.00  0.00    -0.417 N
ATOM      8  H2  UNL     1      21.293 -45.399  -8.738  1.00  0.00     0.153 HD
HETATM    9  C11 UNL     1      22.902 -43.963  -8.981  1.00  0.00     0.119 C
HETATM   10  C12 UNL     1      24.132 -44.125  -9.886  1.00  0.00     0.013 C
HETATM   11  C13 UNL     1      24.523 -45.583  -9.976  1.00  0.00     0.011 C
ENDROOT
BRANCH   1  12
HETATM   12  C4  UNL     1      24.173 -42.270 -11.588  1.00  0.00     0.242 C
BRANCH  12  13
HETATM   13  N1  UNL     1      24.228 -42.220 -13.041  1.00  0.00    -0.070 N
ATOM     14  H12 UNL     1      23.878 -43.089 -13.444  1.00  0.00     0.277 HD
ATOM     15  H11 UNL     1      25.195 -42.257 -13.365  1.00  0.00     0.277 HD
BRANCH  13  16
HETATM   16  C3  UNL     1      23.547 -41.087 -13.611  1.00  0.00     0.186 A
HETATM   17  C1  UNL     1      23.974 -40.708 -15.008  1.00  0.00     0.035 A
HETATM   18  C2  UNL     1      22.645 -41.338 -14.792  1.00  0.00     0.035 A
ENDBRANCH  13  16
ENDBRANCH  12  13
ENDBRANCH   1  12
TORSDOF 3
ENDMDL