MODEL 4
REMARK VINA RESULT: -6.355920858      2.030      4.141
REMARK  3 active torsions:
REMARK  status: ('A' for Active; 'I' for Inactive)
REMARK    1  A    between atoms: C2_2  and  C3_3
REMARK    2  A    between atoms: C12_12  and  N1_13
REMARK    3  A    between atoms: N1_13  and  C13_16
ROOT
HETATM    1  C3  UNL     1      22.505 -44.991 -12.296  1.00  0.00     0.016 C
HETATM    2  C4  UNL     1      22.138 -45.579 -10.927  1.00  0.00    -0.006 C
HETATM    3  C5  UNL     1      22.199 -44.591  -9.828  1.00  0.00     0.012 C
HETATM    4  C6  UNL     1      23.545 -44.150  -9.363  1.00  0.00     0.017 C
HETATM    5  C7  UNL     1      24.641 -45.120  -9.617  1.00  0.00     0.011 C
HETATM    6  C8  UNL     1      24.444 -45.573 -11.071  1.00  0.00    -0.009 C
HETATM    7  C9  UNL     1      23.297 -46.594 -10.911  1.00  0.00     0.010 C
HETATM    8  C10 UNL     1      23.892 -44.506 -11.962  1.00  0.00    -0.000 C
HETATM    9  C11 UNL     1      24.002 -43.107 -11.531  1.00  0.00     0.039 C
HETATM   10  C12 UNL     1      23.967 -42.857 -10.054  1.00  0.00     0.190 C
ENDROOT
BRANCH  10  11
HETATM   11  N1  UNL     1      25.337 -42.583  -9.610  1.00  0.00    -0.071 N
ATOM     12  H12 UNL     1      25.559 -43.095  -8.756  1.00  0.00     0.277 HD
ATOM     13  H11 UNL     1      26.021 -43.010 -10.236  1.00  0.00     0.277 HD
BRANCH  11  14
HETATM   14  C13 UNL     1      25.583 -41.160  -9.453  1.00  0.00     0.228 C
HETATM   15  C14 UNL     1      26.868 -40.852 -10.219  1.00  0.00     0.034 C
ENDBRANCH  11  14
ENDBRANCH  10  11
BRANCH   1  16
HETATM   16  C2  UNL     1      21.561 -44.002 -12.772  1.00  0.00    -0.031 C
HETATM   17  C1  UNL     1      21.548 -43.709 -14.075  1.00  0.00     0.007 C
ENDBRANCH   1  16
TORSDOF 3
ENDMDL