MODEL 1
REMARK VINA RESULT: -6.884081053      0.000      0.000
REMARK  3 active torsions:
REMARK  status: ('A' for Active; 'I' for Inactive)
REMARK    1  A    between atoms: C3_3  and  C4_4
REMARK    2  A    between atoms: C4_4  and  N1_5
REMARK    3  A    between atoms: N1_5  and  C5_7
ROOT
HETATM    1  C1  UNL     1      21.170 -42.599 -15.457  1.00  0.00     0.012 C
HETATM    2  C2  UNL     1      22.052 -41.907 -15.016  1.00  0.00    -0.116 C
HETATM    3  C3  UNL     1      23.121 -41.097 -14.514  1.00  0.00     0.112 C
ENDROOT
BRANCH   3   4
HETATM    4  C4  UNL     1      23.405 -41.391 -13.029  1.00  0.00     0.126 C
BRANCH   4   5
HETATM    5  N1  UNL     1      23.896 -42.737 -13.033  1.00  0.00    -0.412 N
ATOM      6  H1  UNL     1      24.480 -43.063 -13.803  1.00  0.00     0.154 HD
BRANCH   5   7
HETATM    7  C5  UNL     1      23.574 -43.607 -11.981  1.00  0.00     0.026 C
HETATM    8  C6  UNL     1      24.405 -44.880 -12.227  1.00  0.00     0.035 C
HETATM    9  C7  UNL     1      24.141 -45.929 -11.197  1.00  0.00    -0.012 C
HETATM   10  C8  UNL     1      22.695 -46.336 -11.286  1.00  0.00     0.009 C
HETATM   11  C12 UNL     1      24.469 -45.350  -9.831  1.00  0.00     0.009 C
HETATM   12  C9  UNL     1      21.829 -45.136 -11.077  1.00  0.00    -0.012 C
HETATM   13  C10 UNL     1      22.088 -44.626  -9.676  1.00  0.00     0.009 C
HETATM   14  C14 UNL     1      22.134 -44.022 -12.040  1.00  0.00     0.035 C
HETATM   15  C11 UNL     1      23.523 -44.200  -9.594  1.00  0.00    -0.012 C
HETATM   16  C13 UNL     1      23.850 -43.095 -10.593  1.00  0.00     0.035 C
ENDBRANCH   5   7
ENDBRANCH   4   5
ENDBRANCH   3   4
TORSDOF 3
ENDMDL