MODEL 4
REMARK VINA RESULT: -5.771076902      1.546      1.885
REMARK  4 active torsions:
REMARK  status: ('A' for Active; 'I' for Inactive)
REMARK    1  A    between atoms: C2_2  and  N1_4
REMARK    2  A    between atoms: N1_4  and  C4_6
REMARK    3  A    between atoms: C4_6  and  N2_8
REMARK    4  A    between atoms: N2_8  and  C5_10
ROOT
HETATM    1  N2  UNL     1      30.103 -48.962 -13.253  1.00  0.00    -0.363 N
ATOM      2  H2  UNL     1      30.891 -49.532 -13.561  1.00  0.00     0.162 HD
ENDROOT
BRANCH   1   3
HETATM    3  C4  UNL     1      30.265 -48.287 -12.041  1.00  0.00     0.168 C
HETATM    4  S1  UNL     1      29.027 -47.482 -11.342  1.00  0.00    -0.041 SA
BRANCH   3   5
HETATM    5  N1  UNL     1      31.500 -48.260 -11.351  1.00  0.00    -0.363 N
ATOM      6  H1  UNL     1      31.697 -47.453 -10.759  1.00  0.00     0.162 HD
BRANCH   5   7
HETATM    7  C2  UNL     1      32.490 -49.291 -11.428  1.00  0.00     0.075 C
HETATM    8  C1  UNL     1      33.580 -48.915 -12.418  1.00  0.00     0.032 C
HETATM    9  C3  UNL     1      33.094 -49.507 -10.054  1.00  0.00     0.032 C
ENDBRANCH   5   7
ENDBRANCH   3   5
ENDBRANCH   1   3
BRANCH   1  10
HETATM   10  C5  UNL     1      28.956 -48.945 -14.112  1.00  0.00     0.083 C
HETATM   11  C6  UNL     1      29.242 -48.738 -15.566  1.00  0.00     0.025 C
HETATM   12  C7  UNL     1      27.885 -48.540 -16.248  1.00  0.00     0.002 C
HETATM   13  C8  UNL     1      26.926 -49.641 -15.935  1.00  0.00     0.000 C
HETATM   14  C9  UNL     1      27.678 -50.772 -15.273  1.00  0.00     0.002 C
HETATM   15  C10 UNL     1      28.197 -50.241 -13.936  1.00  0.00     0.025 C
ENDBRANCH   1  10
TORSDOF 4
ENDMDL