MODEL 5
REMARK VINA RESULT: -6.039716911      1.717      3.336
REMARK  2 active torsions:
REMARK  status: ('A' for Active; 'I' for Inactive)
REMARK    1  A    between atoms: C2_2  and  C3_3
REMARK    2  A    between atoms: C11_11  and  N1_12
ROOT
HETATM    1  C3  UNL     1      24.791 -45.727 -10.948  1.00  0.00    -0.010 C
HETATM    2  C4  UNL     1      23.738 -46.295 -10.073  1.00  0.00     0.011 C
HETATM    3  C5  UNL     1      22.553 -45.384  -9.952  1.00  0.00     0.017 C
HETATM    4  C6  UNL     1      21.980 -45.122 -11.323  1.00  0.00     0.011 C
HETATM    5  C7  UNL     1      22.980 -44.573 -12.275  1.00  0.00    -0.009 C
HETATM    6  C8  UNL     1      23.047 -43.054 -12.034  1.00  0.00     0.010 C
HETATM    7  C9  UNL     1      24.256 -43.293 -11.200  1.00  0.00    -0.007 C
HETATM    8  C10 UNL     1      24.006 -43.341  -9.729  1.00  0.00     0.038 C
HETATM    9  C11 UNL     1      22.817 -44.085  -9.293  1.00  0.00     0.190 C
HETATM   10  C13 UNL     1      24.393 -44.637 -11.855  1.00  0.00    -0.002 C
ENDROOT
BRANCH   9  11
HETATM   11  N1  UNL     1      22.829 -44.194  -7.843  1.00  0.00    -0.074 N
HETATM   12  C12 UNL     1      23.912 -43.381  -7.278  1.00  0.00     0.267 C
ATOM     13  H12 UNL     1      21.924 -43.958  -7.437  1.00  0.00     0.277 HD
ATOM     14  H11 UNL     1      22.883 -45.165  -7.537  1.00  0.00     0.277 HD
ENDBRANCH   9  11
BRANCH   1  15
HETATM   15  C2  UNL     1      25.540 -46.782 -11.758  1.00  0.00     0.000 C
HETATM   16  C1  UNL     1      26.890 -47.078 -11.149  1.00  0.00     0.005 C
ENDBRANCH   1  15
TORSDOF 2
ENDMDL