MODEL 3
REMARK VINA RESULT: -6.363593906      7.491      9.263
REMARK  3 active torsions:
REMARK  status: ('A' for Active; 'I' for Inactive)
REMARK    1  A    between atoms: C1_4  and  C2_5
REMARK    2  A    between atoms: C2_5  and  C3_6
REMARK    3  A    between atoms: C3_6  and  N2_7
ROOT
HETATM    1  N2  UNL     1      31.123 -49.089 -13.437  1.00  0.00     0.094 N
HETATM    2  C4  UNL     1      31.086 -49.598 -14.824  1.00  0.00     0.280 C
HETATM    3  C5  UNL     1      29.693 -49.033 -14.848  1.00  0.00     0.051 C
HETATM    4  C6  UNL     1      28.638 -49.689 -15.636  1.00  0.00    -0.006 C
HETATM    5  C7  UNL     1      27.810 -48.585 -16.310  1.00  0.00     0.005 C
HETATM    6  C8  UNL     1      26.516 -48.481 -15.572  1.00  0.00     0.005 C
HETATM    7  C9  UNL     1      26.850 -49.179 -14.242  1.00  0.00    -0.014 C
HETATM    8  C10 UNL     1      27.573 -48.214 -13.418  1.00  0.00     0.007 C
HETATM    9  C11 UNL     1      28.760 -48.673 -12.656  1.00  0.00     0.036 C
HETATM   10  C12 UNL     1      29.756 -49.445 -13.391  1.00  0.00     0.229 C
HETATM   11  C13 UNL     1      27.587 -50.342 -14.804  1.00  0.00     0.010 C
ENDROOT
BRANCH   1  12
HETATM   12  C3  UNL     1      31.564 -47.761 -13.290  1.00  0.00     0.278 C
BRANCH  12  13
HETATM   13  C2  UNL     1      32.677 -47.745 -12.233  1.00  0.00     0.074 C
BRANCH  13  14
HETATM   14  C1  UNL     1      32.563 -48.930 -11.323  1.00  0.00     0.054 C
HETATM   15  N1  UNL     1      32.142 -48.704 -10.141  1.00  0.00    -0.411 N
ATOM     16  H12 UNL     1      31.899 -47.759  -9.845  1.00  0.00     0.155 HD
ATOM     17  H11 UNL     1      32.064 -49.511  -9.522  1.00  0.00     0.155 HD
ENDBRANCH  13  14
ENDBRANCH  12  13
ENDBRANCH   1  12
TORSDOF 3
ENDMDL