MODEL 2
REMARK VINA RESULT: -5.324382903      3.568      4.899
REMARK  1 active torsions:
REMARK  status: ('A' for Active; 'I' for Inactive)
REMARK    1  A    between atoms: O1_1  and  C1_3
ROOT
HETATM    1  C1  UNL     1     -27.534   3.555 -13.564  1.00  0.00     0.318 C
HETATM    2  C2  UNL     1     -28.587   4.432 -12.927  1.00  0.00     0.061 C
HETATM    3  C3  UNL     1     -28.938   5.580 -13.820  1.00  0.00     0.004 C
HETATM    4  C4  UNL     1     -27.817   6.569 -14.031  1.00  0.00     0.000 C
HETATM    5  C5  UNL     1     -27.331   7.250 -12.836  1.00  0.00     0.000 C
HETATM    6  C6  UNL     1     -26.106   6.787 -12.153  1.00  0.00     0.000 C
HETATM    7  C7  UNL     1     -24.970   6.322 -12.962  1.00  0.00     0.002 C
HETATM    8  C8  UNL     1     -24.502   4.909 -12.578  1.00  0.00     0.027 C
HETATM    9  C9  UNL     1     -25.183   3.871 -13.415  1.00  0.00     0.235 C
HETATM   10  N1  UNL     1     -26.360   3.395 -12.768  1.00  0.00    -0.049 N
ATOM     11  H11 UNL     1     -26.248   2.425 -12.475  1.00  0.00     0.280 HD
ATOM     12  H12 UNL     1     -26.476   3.831 -11.853  1.00  0.00     0.280 HD
ENDROOT
BRANCH   1  13
HETATM   13  O1  UNL     1     -28.024   2.278 -13.862  1.00  0.00    -0.370 OA
ATOM     14  H1  UNL     1     -28.885   2.310 -14.262  1.00  0.00     0.212 HD
ENDBRANCH   1  13
TORSDOF 1
ENDMDL