MODEL 5
REMARK VINA RESULT: -4.986644143      4.254      5.379
REMARK  1 active torsions:
REMARK  status: ('A' for Active; 'I' for Inactive)
REMARK    1  A    between atoms: O1_1  and  C1_3
ROOT
HETATM    1  C1  UNL     1     -27.703   3.500 -13.408  1.00  0.00     0.150 C
HETATM    2  C2  UNL     1     -28.963   4.169 -13.814  1.00  0.00     0.062 C
HETATM    3  C3  UNL     1     -29.060   5.626 -13.635  1.00  0.00     0.005 C
HETATM    4  C4  UNL     1     -27.899   6.455 -13.999  1.00  0.00     0.003 C
HETATM    5  C5  UNL     1     -26.925   6.667 -12.843  1.00  0.00     0.034 C
HETATM    6  C6  UNL     1     -26.039   5.463 -12.627  1.00  0.00     0.152 C
HETATM    7  C7  UNL     1     -26.595   4.657 -11.476  1.00  0.00     0.039 C
HETATM    8  C8  UNL     1     -27.469   3.533 -11.905  1.00  0.00     0.065 C
HETATM    9  O2  UNL     1     -25.754   4.754 -13.741  1.00  0.00    -0.277 OA
HETATM   10  N1  UNL     1     -26.551   3.829 -14.154  1.00  0.00    -0.267 N
ATOM     11  H1  UNL     1     -26.349   3.334 -15.022  1.00  0.00     0.191 HD
ENDROOT
BRANCH   1  12
HETATM   12  O1  UNL     1     -27.924   2.117 -13.673  1.00  0.00    -0.369 OA
ATOM     13  H1  UNL     1     -28.590   2.105 -14.350  1.00  0.00     0.212 HD
ENDBRANCH   1  12
TORSDOF 1
ENDMDL