MODEL 1
REMARK VINA RESULT: -5.087485439      0.000      0.000
REMARK  1 active torsions:
REMARK  status: ('A' for Active; 'I' for Inactive)
REMARK    1  A    between atoms: C5_5  and  N1_6
ROOT
HETATM    1  C1  UNL     1     -26.384   5.009 -13.048  1.00  0.00     0.037 C
HETATM    2  C2  UNL     1     -25.365   3.880 -12.812  1.00  0.00     0.021 C
HETATM    3  C3  UNL     1     -24.025   4.556 -12.686  1.00  0.00     0.037 C
HETATM    4  C4  UNL     1     -25.745   3.311 -11.462  1.00  0.00     0.062 C
HETATM    5  C5  UNL     1     -25.097   1.981 -11.209  1.00  0.00     0.188 C
HETATM    6  C6  UNL     1     -25.149   1.048 -12.356  1.00  0.00     0.062 C
HETATM    7  C7  UNL     1     -25.133   1.636 -13.706  1.00  0.00     0.021 C
HETATM    8  C8  UNL     1     -23.783   1.384 -14.399  1.00  0.00     0.037 C
HETATM    9  C9  UNL     1     -26.099   0.802 -14.574  1.00  0.00     0.037 C
HETATM   10  N2  UNL     1     -25.486   2.973 -13.875  1.00  0.00    -0.405 N
ATOM     11  H2  UNL     1     -25.835   3.295 -14.778  1.00  0.00     0.154 HD
ENDROOT
BRANCH   5  12
HETATM   12  N1  UNL     1     -23.725   2.119 -10.742  1.00  0.00    -0.075 N
ATOM     13  H13 UNL     1     -23.352   3.042 -10.961  1.00  0.00     0.274 HD
ATOM     14  H12 UNL     1     -23.685   2.167  -9.723  1.00  0.00     0.274 HD
ATOM     15  H11 UNL     1     -23.121   1.381 -11.101  1.00  0.00     0.274 HD
ENDBRANCH   5  12
TORSDOF 1
ENDMDL