MODEL 4
REMARK VINA RESULT: -5.047934713      1.620      3.372
REMARK  0 active torsions:
REMARK  status: ('A' for Active; 'I' for Inactive)
ROOT
HETATM    1  C1  UNL     1     -27.360   3.220  -9.772  1.00  0.00     0.071 C
HETATM    2  C2  UNL     1     -26.999   3.587 -11.190  1.00  0.00     0.322 C
HETATM    3  N1  UNL     1     -28.128   3.537 -12.090  1.00  0.00    -0.024 N
ATOM      4  H11 UNL     1     -28.826   4.253 -11.889  1.00  0.00     0.283 HD
ATOM      5  H12 UNL     1     -28.721   2.722 -11.936  1.00  0.00     0.283 HD
HETATM    6  C3  UNL     1     -27.624   3.613 -13.434  1.00  0.00     0.191 C
HETATM    7  C4  UNL     1     -28.818   3.981 -14.328  1.00  0.00     0.070 C
HETATM    8  C5  UNL     1     -27.179   2.245 -13.952  1.00  0.00     0.070 C
HETATM    9  N2  UNL     1     -26.586   4.538 -13.650  1.00  0.00    -0.361 N
ATOM     10  H2  UNL     1     -26.367   4.866 -14.591  1.00  0.00     0.158 HD
HETATM   11  C6  UNL     1     -25.857   4.999 -12.538  1.00  0.00     0.127 C
HETATM   12  C7  UNL     1     -24.443   4.406 -12.452  1.00  0.00     0.070 C
HETATM   13  C8  UNL     1     -25.621   6.507 -12.723  1.00  0.00     0.070 C
HETATM   14  O1  UNL     1     -26.433   4.838 -11.309  1.00  0.00    -0.330 OA
ENDROOT
TORSDOF 0
ENDMDL