MODEL 1
REMARK VINA RESULT: -5.763603153      0.000      0.000
REMARK  0 active torsions:
REMARK  status: ('A' for Active; 'I' for Inactive)
ROOT
HETATM    1  C1  UNL     1     -29.233   8.715 -16.297  1.00  0.00     0.002 C
HETATM    2  C2  UNL     1     -28.981   7.693 -17.315  1.00  0.00     0.004 C
HETATM    3  C3  UNL     1     -29.643   6.310 -17.107  1.00  0.00     0.054 C
HETATM    4  C4  UNL     1     -28.889   5.709 -16.020  1.00  0.00     0.280 C
HETATM    5  N1  UNL     1     -29.024   4.511 -15.363  1.00  0.00    -0.396 N
ATOM      6  H1  UNL     1     -29.727   3.786 -15.506  1.00  0.00     0.155 HD
HETATM    7  C5  UNL     1     -27.902   4.522 -14.399  1.00  0.00     0.116 C
HETATM    8  C6  UNL     1     -28.023   5.386 -13.229  1.00  0.00     0.021 C
HETATM    9  C7  UNL     1     -27.594   6.857 -13.398  1.00  0.00     0.035 C
HETATM   10  C8  UNL     1     -27.969   7.350 -14.729  1.00  0.00     0.188 C
HETATM   11  C9  UNL     1     -28.285   8.722 -15.079  1.00  0.00     0.033 C
HETATM   12  N2  UNL     1     -29.201   6.661 -14.977  1.00  0.00    -0.050 N
ATOM     13  H21 UNL     1     -29.617   6.243 -14.145  1.00  0.00     0.280 HD
ATOM     14  H22 UNL     1     -29.983   7.278 -15.200  1.00  0.00     0.280 HD
ENDROOT
TORSDOF 0
ENDMDL