MODEL 3
REMARK VINA RESULT: -5.176581036      1.181      1.415
REMARK  2 active torsions:
REMARK  status: ('A' for Active; 'I' for Inactive)
REMARK    1  A    between atoms: N2_4  and  C1_6
REMARK    2  A    between atoms: C1_6  and  O1_7
ROOT
HETATM    1  C1  UNL     1     -25.163   1.336 -10.924  1.00  0.00     0.144 C
HETATM    2  C2  UNL     1     -25.504   0.296  -9.859  1.00  0.00     0.067 C
HETATM    3  C3  UNL     1     -26.998   0.318  -9.758  1.00  0.00    -0.006 C
HETATM    4  C4  UNL     1     -27.505   0.037  -8.375  1.00  0.00     0.005 C
HETATM    5  C5  UNL     1     -27.627   1.372  -7.666  1.00  0.00     0.001 C
HETATM    6  C6  UNL     1     -26.990   2.367  -8.616  1.00  0.00     0.005 C
HETATM    7  C7  UNL     1     -27.340   1.783  -9.958  1.00  0.00    -0.006 C
HETATM    8  C8  UNL     1     -26.413   2.202 -11.048  1.00  0.00     0.067 C
ENDROOT
BRANCH   1   9
HETATM    9  N2  UNL     1     -24.053   2.133 -10.515  1.00  0.00    -0.308 N
HETATM   10  N1  UNL     1     -23.526   1.985  -9.386  1.00  0.00    -0.347 N
ATOM     11  H12 UNL     1     -23.910   1.276  -8.761  1.00  0.00     0.176 HD
ATOM     12  H11 UNL     1     -22.732   2.555  -9.093  1.00  0.00     0.176 HD
ATOM     13  H2  UNL     1     -23.681   2.838 -11.152  1.00  0.00     0.183 HD
ENDBRANCH   1   9
BRANCH   1  14
HETATM   14  O1  UNL     1     -24.870   0.722 -12.149  1.00  0.00    -0.370 OA
ATOM     15  H1  UNL     1     -25.676   0.574 -12.630  1.00  0.00     0.212 HD
ENDBRANCH   1  14
TORSDOF 2
ENDMDL