MODEL 3
REMARK VINA RESULT: -4.845547791      8.315      9.616
REMARK  1 active torsions:
REMARK  status: ('A' for Active; 'I' for Inactive)
REMARK    1  A    between atoms: O1_1  and  C1_3
ROOT
HETATM    1  C1  UNL     1     -28.981   6.043 -14.643  1.00  0.00     0.118 C
HETATM    2  C2  UNL     1     -28.108   6.626 -13.574  1.00  0.00     0.034 C
HETATM    3  C3  UNL     1     -26.904   7.242 -14.300  1.00  0.00     0.032 C
HETATM    4  C4  UNL     1     -27.417   8.470 -14.989  1.00  0.00     0.059 C
HETATM    5  C5  UNL     1     -26.309   8.982 -15.921  1.00  0.00     0.057 C
HETATM    6  C6  UNL     1     -25.331   9.428 -14.825  1.00  0.00     0.198 C
HETATM    7  O2  UNL     1     -26.070   9.595 -13.684  1.00  0.00    -0.286 OA
HETATM    8  N1  UNL     1     -27.371   9.558 -13.998  1.00  0.00    -0.091 NA
HETATM    9  C7  UNL     1     -28.721   8.331 -15.651  1.00  0.00     0.032 C
HETATM   10  C8  UNL     1     -29.250   6.948 -15.789  1.00  0.00     0.034 C
ENDROOT
BRANCH   1  11
HETATM   11  O1  UNL     1     -28.297   4.914 -15.151  1.00  0.00    -0.396 OA
ATOM     12  H1  UNL     1     -28.832   4.157 -14.942  1.00  0.00     0.210 HD
ENDBRANCH   1  11
TORSDOF 1
ENDMDL