MODEL 5
REMARK VINA RESULT: -4.969049715      0.249      1.044
REMARK  2 active torsions:
REMARK  status: ('A' for Active; 'I' for Inactive)
REMARK    1  A    between atoms: C1_4  and  O1_6
REMARK    2  A    between atoms: O1_6  and  N3_7
ROOT
HETATM    1  N3  UNL     1     -27.465   7.942 -14.708  1.00  0.00    -0.188 NA
HETATM    2  C2  UNL     1     -28.070   6.748 -14.250  1.00  0.00     0.121 C
HETATM    3  C3  UNL     1     -28.874   5.965 -15.215  1.00  0.00     0.017 C
HETATM    4  C4  UNL     1     -29.828   6.731 -16.064  1.00  0.00     0.001 C
HETATM    5  C5  UNL     1     -29.069   7.350 -17.210  1.00  0.00     0.001 C
HETATM    6  C6  UNL     1     -28.442   8.652 -16.850  1.00  0.00     0.017 C
HETATM    7  C7  UNL     1     -28.338   8.874 -15.351  1.00  0.00     0.121 C
ENDROOT
BRANCH   1   8
HETATM    8  O1  UNL     1     -26.971   8.594 -13.573  1.00  0.00    -0.228 OA
BRANCH   8   9
HETATM    9  C1  UNL     1     -25.633   8.691 -13.293  1.00  0.00     0.243 C
HETATM   10  N1  UNL     1     -24.932   9.617 -13.835  1.00  0.00    -0.367 N
ATOM     11  H12 UNL     1     -23.936   9.689 -13.626  1.00  0.00     0.159 HD
ATOM     12  H11 UNL     1     -25.332  10.300 -14.479  1.00  0.00     0.159 HD
HETATM   13  N2  UNL     1     -25.071   7.729 -12.388  1.00  0.00    -0.055 NA
ENDBRANCH   8   9
ENDBRANCH   1   8
TORSDOF 2
ENDMDL