MODEL 5
REMARK VINA RESULT: -5.069720715      4.922      6.250
REMARK  1 active torsions:
REMARK  status: ('A' for Active; 'I' for Inactive)
REMARK    1  A    between atoms: O1_1  and  C1_3
ROOT
HETATM    1  C1  UNL     1     -25.135   7.805 -12.561  1.00  0.00     0.146 C
HETATM    2  C2  UNL     1     -25.249   7.324 -14.008  1.00  0.00     0.264 C
HETATM    3  N1  UNL     1     -25.877   6.040 -13.827  1.00  0.00    -0.064 N
ATOM      4  H11 UNL     1     -25.206   5.286 -13.676  1.00  0.00     0.278 HD
ATOM      5  H12 UNL     1     -26.295   5.676 -14.683  1.00  0.00     0.278 HD
HETATM    6  C3  UNL     1     -26.817   6.170 -12.760  1.00  0.00     0.128 C
HETATM    7  C4  UNL     1     -26.699   5.100 -11.711  1.00  0.00     0.039 C
HETATM    8  C5  UNL     1     -27.074   3.737 -12.194  1.00  0.00     0.002 C
HETATM    9  C6  UNL     1     -27.800   3.740 -13.511  1.00  0.00     0.000 C
HETATM   10  C7  UNL     1     -28.827   4.856 -13.460  1.00  0.00     0.002 C
HETATM   11  C8  UNL     1     -28.204   6.211 -13.340  1.00  0.00     0.039 C
HETATM   12  C9  UNL     1     -26.556   7.501 -12.079  1.00  0.00     0.072 C
ENDROOT
BRANCH   1  13
HETATM   13  O1  UNL     1     -24.274   7.030 -11.818  1.00  0.00    -0.394 OA
ATOM     14  H1  UNL     1     -23.375   7.100 -12.118  1.00  0.00     0.210 HD
ENDBRANCH   1  13
TORSDOF 1
ENDMDL