MODEL 4
REMARK VINA RESULT: -4.974106170      2.291      3.359
REMARK  1 active torsions:
REMARK  status: ('A' for Active; 'I' for Inactive)
REMARK    1  A    between atoms: C5_7  and  O1_8
ROOT
HETATM    1  C1  UNL     1     -24.380   2.049  -9.640  1.00  0.00     0.145 C
HETATM    2  N1  UNL     1     -23.842   1.948 -10.963  1.00  0.00    -0.401 N
ATOM      3  H1  UNL     1     -23.016   1.380 -11.150  1.00  0.00     0.158 HD
HETATM    4  C2  UNL     1     -24.420   2.583 -11.894  1.00  0.00    -0.018 C
HETATM    5  C3  UNL     1     -23.877   2.493 -13.268  1.00  0.00     0.054 C
HETATM    6  C4  UNL     1     -23.789   3.804 -13.964  1.00  0.00     0.038 C
HETATM    7  C5  UNL     1     -24.665   4.870 -13.361  1.00  0.00     0.126 C
HETATM    8  C6  UNL     1     -25.932   4.260 -12.835  1.00  0.00    -0.017 C
HETATM    9  C7  UNL     1     -26.683   3.462 -13.867  1.00  0.00     0.018 C
HETATM   10  C8  UNL     1     -26.848   5.371 -12.324  1.00  0.00     0.018 C
HETATM   11  C9  UNL     1     -25.606   3.398 -11.632  1.00  0.00     0.063 C
ENDROOT
BRANCH   7  12
HETATM   12  O1  UNL     1     -24.052   5.572 -12.347  1.00  0.00    -0.395 OA
ATOM     13  H1  UNL     1     -23.499   6.279 -12.660  1.00  0.00     0.210 HD
ENDBRANCH   7  12
TORSDOF 1
ENDMDL