MODEL 4
REMARK VINA RESULT: -4.153033763      1.216      2.835
REMARK  2 active torsions:
REMARK  status: ('A' for Active; 'I' for Inactive)
REMARK    1  A    between atoms: N1_1  and  C1_5
REMARK    2  A    between atoms: C1_5  and  C10_14
ROOT
HETATM    1  C1  UNL     1     -27.922   5.581 -33.847  1.00  0.00     0.128 C
HETATM    2  C2  UNL     1     -28.086   6.802 -34.687  1.00  0.00     0.039 C
HETATM    3  C3  UNL     1     -26.905   7.709 -34.478  1.00  0.00     0.007 C
HETATM    4  C4  UNL     1     -26.549   7.584 -32.988  1.00  0.00    -0.010 C
HETATM    5  C5  UNL     1     -27.819   8.009 -32.315  1.00  0.00     0.010 C
HETATM    6  C6  UNL     1     -28.410   6.804 -31.660  1.00  0.00    -0.007 C
HETATM    7  C7  UNL     1     -27.393   6.517 -30.534  1.00  0.00     0.010 C
HETATM    8  C8  UNL     1     -26.503   5.590 -31.388  1.00  0.00    -0.009 C
HETATM    9  C9  UNL     1     -27.658   4.606 -31.671  1.00  0.00     0.012 C
HETATM   10  C10 UNL     1     -28.506   5.588 -32.502  1.00  0.00     0.026 C
HETATM   11  C11 UNL     1     -26.016   6.254 -32.626  1.00  0.00    -0.004 C
HETATM   12  C12 UNL     1     -26.403   5.332 -33.797  1.00  0.00     0.044 C
ENDROOT
BRANCH   1  13
HETATM   13  N1  UNL     1     -28.500   4.446 -34.579  1.00  0.00    -0.070 N
ATOM     14  H13 UNL     1     -28.775   4.688 -35.531  1.00  0.00     0.275 HD
ATOM     15  H12 UNL     1     -27.809   3.734 -34.814  1.00  0.00     0.275 HD
ATOM     16  H11 UNL     1     -29.275   4.076 -34.028  1.00  0.00     0.275 HD
ENDBRANCH   1  13
TORSDOF 2
ENDMDL