MODEL 1
REMARK VINA RESULT: -4.067455430      0.000      0.000
REMARK  1 active torsions:
REMARK  status: ('A' for Active; 'I' for Inactive)
REMARK    1  A    between atoms: N1_9  and  C9_10
ROOT
HETATM    1  C1  UNL     1     -28.937   6.698 -31.906  1.00  0.00     0.002 C
HETATM    2  C2  UNL     1     -29.482   5.744 -32.917  1.00  0.00     0.002 C
HETATM    3  C3  UNL     1     -28.658   5.632 -34.162  1.00  0.00     0.025 C
HETATM    4  C4  UNL     1     -27.384   4.795 -33.951  1.00  0.00     0.080 C
HETATM    5  C5  UNL     1     -26.231   5.749 -34.131  1.00  0.00     0.027 C
HETATM    6  C6  UNL     1     -26.055   6.372 -32.776  1.00  0.00     0.027 C
HETATM    7  C7  UNL     1     -26.757   5.447 -31.826  1.00  0.00     0.080 C
HETATM    8  C8  UNL     1     -27.858   6.129 -31.039  1.00  0.00     0.025 C
HETATM    9  N1  UNL     1     -27.375   4.405 -32.596  1.00  0.00    -0.400 N
ENDROOT
BRANCH   9  10
HETATM   10  C9  UNL     1     -27.035   3.092 -32.244  1.00  0.00     0.080 A
HETATM   11  C10 UNL     1     -28.219   2.142 -32.004  1.00  0.00     0.027 A
HETATM   12  C11 UNL     1     -27.207   2.446 -30.938  1.00  0.00     0.027 A
ENDBRANCH   9  10
TORSDOF 1
ENDMDL