MODEL 4
REMARK VINA RESULT: -4.534729462      2.372      5.086
REMARK  1 active torsions:
REMARK  status: ('A' for Active; 'I' for Inactive)
REMARK    1  A    between atoms: N2_7  and  C4_8
ROOT
HETATM    1  N1  UNL     1     -29.192   1.224 -33.334  1.00  0.00    -0.404 N
ATOM      2  H11 UNL     1     -29.768   1.464 -34.142  1.00  0.00     0.155 HD
ATOM      3  H12 UNL     1     -29.174   0.205 -33.291  1.00  0.00     0.155 HD
HETATM    4  C1  UNL     1     -28.615   2.004 -32.533  1.00  0.00     0.010 C
HETATM    5  C2  UNL     1     -27.783   1.657 -31.364  1.00  0.00     0.084 C
HETATM    6  C3  UNL     1     -26.958   2.921 -31.134  1.00  0.00     0.279 C
HETATM    7  N2  UNL     1     -27.270   3.781 -32.223  1.00  0.00     0.098 N
HETATM    8  C10 UNL     1     -28.641   3.486 -32.596  1.00  0.00     0.324 C
ENDROOT
BRANCH   7   9
HETATM    9  C4  UNL     1     -26.948   5.144 -32.107  1.00  0.00     0.223 C
HETATM   10  C5  UNL     1     -28.152   5.936 -31.704  1.00  0.00     0.036 C
HETATM   11  C6  UNL     1     -27.592   7.290 -31.257  1.00  0.00     0.002 C
HETATM   12  C7  UNL     1     -27.180   7.966 -32.550  1.00  0.00     0.000 C
HETATM   13  C8  UNL     1     -26.111   7.212 -33.279  1.00  0.00     0.002 C
HETATM   14  C9  UNL     1     -26.264   5.739 -33.291  1.00  0.00     0.036 C
ENDBRANCH   7   9
TORSDOF 1
ENDMDL