MODEL 4
REMARK VINA RESULT: -4.521391038      2.067      4.291
REMARK  2 active torsions:
REMARK  status: ('A' for Active; 'I' for Inactive)
REMARK    1  A    between atoms: C7_7  and  C8_8
REMARK    2  A    between atoms: C12_12  and  N1_13
ROOT
HETATM    1  C1  UNL     1     -25.829   4.156 -35.946  1.00  0.00     0.013 C
HETATM    2  C2  UNL     1     -26.390   4.223 -34.871  1.00  0.00    -0.105 C
HETATM    3  C3  UNL     1     -27.044   4.298 -33.572  1.00  0.00     0.052 C
HETATM    4  C4  UNL     1     -26.973   3.019 -32.828  1.00  0.00     0.025 C
HETATM    5  C5  UNL     1     -27.116   3.075 -31.367  1.00  0.00     0.003 C
HETATM    6  C6  UNL     1     -26.999   4.400 -30.721  1.00  0.00     0.016 C
HETATM    7  C7  UNL     1     -27.375   5.540 -31.648  1.00  0.00     0.006 C
HETATM    8  C10 UNL     1     -28.736   5.258 -32.251  1.00  0.00     0.017 C
HETATM    9  C11 UNL     1     -28.460   4.826 -33.680  1.00  0.00     0.026 C
HETATM   10  C12 UNL     1     -26.406   5.465 -32.802  1.00  0.00     0.216 C
ENDROOT
BRANCH  10  11
HETATM   11  N1  UNL     1     -26.457   6.592 -33.672  1.00  0.00    -0.072 N
ATOM     12  H13 UNL     1     -25.601   7.148 -33.666  1.00  0.00     0.274 HD
ATOM     13  H12 UNL     1     -26.437   6.342 -34.661  1.00  0.00     0.274 HD
ATOM     14  H11 UNL     1     -27.286   7.122 -33.406  1.00  0.00     0.274 HD
ENDBRANCH  10  11
BRANCH   7  15
HETATM   15  C8  UNL     1     -27.342   6.840 -30.939  1.00  0.00    -0.025 C
HETATM   16  C9  UNL     1     -28.231   7.243 -30.067  1.00  0.00     0.008 C
ENDBRANCH   7  15
TORSDOF 2
ENDMDL