MODEL 4
REMARK VINA RESULT: -4.335639360      1.713      2.923
REMARK  1 active torsions:
REMARK  status: ('A' for Active; 'I' for Inactive)
REMARK    1  A    between atoms: N1_1  and  C1_5
ROOT
HETATM    1  C1  UNL     1     -26.975   4.060 -32.976  1.00  0.00     0.188 C
HETATM    2  C2  UNL     1     -28.443   4.289 -32.624  1.00  0.00     0.039 C
HETATM    3  C3  UNL     1     -28.279   5.708 -32.960  1.00  0.00     0.002 C
HETATM    4  C4  UNL     1     -26.870   5.450 -33.512  1.00  0.00     0.021 C
HETATM    5  C5  UNL     1     -25.958   6.390 -32.776  1.00  0.00     0.008 C
HETATM    6  C6  UNL     1     -26.904   7.529 -32.426  1.00  0.00     0.010 C
HETATM    7  C7  UNL     1     -28.116   6.730 -31.929  1.00  0.00    -0.036 C
HETATM    8  C8  UNL     1     -29.353   7.600 -31.873  1.00  0.00     0.010 C
HETATM    9  C9  UNL     1     -29.773   7.638 -30.417  1.00  0.00     0.001 C
HETATM   10  C10 UNL     1     -28.423   7.465 -29.722  1.00  0.00     0.001 C
HETATM   11  C11 UNL     1     -27.847   6.305 -30.549  1.00  0.00     0.010 C
ENDROOT
BRANCH   1  12
HETATM   12  N1  UNL     1     -26.866   3.055 -34.015  1.00  0.00    -0.075 N
ATOM     13  H13 UNL     1     -26.993   2.112 -33.650  1.00  0.00     0.274 HD
ATOM     14  H12 UNL     1     -27.662   3.076 -34.653  1.00  0.00     0.274 HD
ATOM     15  H11 UNL     1     -25.979   3.158 -34.507  1.00  0.00     0.274 HD
ENDBRANCH   1  12
TORSDOF 1
ENDMDL