MODEL 2
REMARK VINA RESULT: -4.695996299      1.232      1.869
REMARK  1 active torsions:
REMARK  status: ('A' for Active; 'I' for Inactive)
REMARK    1  A    between atoms: C3_3  and  C4_4
ROOT
HETATM    1  C4  UNL     1     -26.924   4.154 -31.946  1.00  0.00    -0.010 C
HETATM    2  C5  UNL     1     -27.024   2.934 -31.096  1.00  0.00     0.005 C
HETATM    3  C6  UNL     1     -27.883   1.842 -31.593  1.00  0.00     0.007 C
HETATM    4  C7  UNL     1     -29.010   2.221 -32.455  1.00  0.00     0.017 C
HETATM    5  C8  UNL     1     -29.578   1.183 -33.336  1.00  0.00     0.237 C
HETATM    6  N1  UNL     1     -30.318   1.969 -34.334  1.00  0.00    -0.074 N
ATOM      7  H11 UNL     1     -31.318   2.025 -34.143  1.00  0.00     0.277 HD
ATOM      8  H12 UNL     1     -30.387   1.507 -35.241  1.00  0.00     0.277 HD
HETATM    9  C9  UNL     1     -29.672   3.269 -34.401  1.00  0.00     0.237 C
HETATM   10  C10 UNL     1     -28.491   3.222 -33.504  1.00  0.00     0.017 C
HETATM   11  C11 UNL     1     -28.190   4.455 -32.730  1.00  0.00     0.011 C
ENDROOT
BRANCH   1  12
HETATM   12  C3  UNL     1     -26.603   5.391 -31.144  1.00  0.00    -0.010 A
HETATM   13  C1  UNL     1     -27.054   6.727 -31.599  1.00  0.00     0.005 A
HETATM   14  C2  UNL     1     -27.787   6.040 -30.460  1.00  0.00     0.005 A
ENDBRANCH   1  12
TORSDOF 1
ENDMDL