MODEL 5
REMARK VINA RESULT: -3.881591691      1.181      3.138
REMARK  3 active torsions:
REMARK  status: ('A' for Active; 'I' for Inactive)
REMARK    1  A    between atoms: N1_1  and  C1_5
REMARK    2  A    between atoms: C6_10  and  C11_15
REMARK    3  A    between atoms: C8_12  and  C9_13
ROOT
HETATM    1  C1  UNL     1     -28.413   5.246 -32.729  1.00  0.00     0.128 C
HETATM    2  C2  UNL     1     -27.830   3.996 -32.062  1.00  0.00     0.039 C
HETATM    3  C3  UNL     1     -26.889   4.459 -30.997  1.00  0.00     0.007 C
HETATM    4  C4  UNL     1     -26.770   5.959 -31.302  1.00  0.00    -0.008 C
HETATM    5  C5  UNL     1     -28.270   6.177 -31.556  1.00  0.00     0.044 C
HETATM    6  C6  UNL     1     -25.928   6.250 -32.489  1.00  0.00    -0.005 C
HETATM    7  C7  UNL     1     -26.804   6.922 -33.537  1.00  0.00     0.013 C
HETATM    8  C8  UNL     1     -27.624   5.689 -33.937  1.00  0.00     0.026 C
ENDROOT
BRANCH   1   9
HETATM    9  N1  UNL     1     -29.755   4.971 -33.108  1.00  0.00    -0.070 N
ATOM     10  H13 UNL     1     -30.417   5.126 -32.347  1.00  0.00     0.275 HD
ATOM     11  H12 UNL     1     -30.127   5.661 -33.759  1.00  0.00     0.275 HD
ATOM     12  H11 UNL     1     -29.799   4.021 -33.477  1.00  0.00     0.275 HD
ENDBRANCH   1   9
BRANCH   8  13
HETATM   13  C9  UNL     1     -26.522   4.728 -34.285  1.00  0.00    -0.003 A
HETATM   14  C10 UNL     1     -26.665   3.606 -35.202  1.00  0.00     0.011 A
HETATM   15  C11 UNL     1     -26.321   4.954 -35.709  1.00  0.00    -0.005 A
ENDBRANCH   8  13
TORSDOF 3
ENDMDL