MODEL 4
REMARK VINA RESULT: -4.101810949      3.779      5.422
REMARK  2 active torsions:
REMARK  status: ('A' for Active; 'I' for Inactive)
REMARK    1  A    between atoms: O1_1  and  C1_3
REMARK    2  A    between atoms: C4_6  and  N1_7
ROOT
HETATM    1  C1  UNL     1     -30.780   1.165 -34.769  1.00  0.00     0.120 C
HETATM    2  C2  UNL     1     -29.658   1.286 -35.785  1.00  0.00     0.034 C
HETATM    3  C3  UNL     1     -28.990   2.576 -35.321  1.00  0.00     0.038 C
HETATM    4  C4  UNL     1     -29.297   2.744 -33.877  1.00  0.00     0.225 C
HETATM    5  C10 UNL     1     -30.005   1.452 -33.487  1.00  0.00     0.067 C
ENDROOT
BRANCH   4   6
HETATM    6  N1  UNL     1     -28.206   3.017 -33.012  1.00  0.00     0.093 N
HETATM    7  C5  UNL     1     -28.241   2.060 -31.933  1.00  0.00     0.273 C
HETATM    8  C6  UNL     1     -27.074   2.156 -31.000  1.00  0.00     0.030 C
HETATM    9  C7  UNL     1     -26.937   3.553 -30.491  1.00  0.00     0.003 C
HETATM   10  C8  UNL     1     -27.087   4.623 -31.512  1.00  0.00     0.030 C
HETATM   11  C9  UNL     1     -28.061   4.375 -32.601  1.00  0.00     0.273 C
ENDBRANCH   4   6
BRANCH   1  12
HETATM   12  O1  UNL     1     -31.657   2.206 -34.996  1.00  0.00    -0.396 OA
ATOM     13  H1  UNL     1     -31.431   2.904 -34.393  1.00  0.00     0.210 HD
ENDBRANCH   1  12
TORSDOF 2
ENDMDL