MODEL 3
REMARK VINA RESULT: -4.267746937      1.917      3.311
REMARK  2 active torsions:
REMARK  status: ('A' for Active; 'I' for Inactive)
REMARK    1  A    between atoms: N1_1  and  C1_5
REMARK    2  A    between atoms: C1_5  and  C2_6
ROOT
HETATM    1  C2  UNL     1     -28.164   5.840 -31.133  1.00  0.00     0.019 C
HETATM    2  C3  UNL     1     -26.806   5.179 -31.051  1.00  0.00    -0.008 C
HETATM    3  C4  UNL     1     -26.964   3.769 -31.569  1.00  0.00     0.010 C
HETATM    4  C5  UNL     1     -27.368   3.691 -32.997  1.00  0.00    -0.014 C
HETATM    5  C6  UNL     1     -28.883   3.775 -33.174  1.00  0.00     0.005 C
HETATM    6  C7  UNL     1     -29.287   5.215 -33.236  1.00  0.00     0.006 C
HETATM    7  C8  UNL     1     -28.289   6.143 -32.589  1.00  0.00    -0.004 C
HETATM    8  C9  UNL     1     -26.928   6.075 -33.200  1.00  0.00    -0.009 C
HETATM    9  C10 UNL     1     -26.760   4.736 -33.878  1.00  0.00     0.009 C
HETATM   10  C11 UNL     1     -25.987   6.037 -31.986  1.00  0.00     0.010 C
ENDROOT
BRANCH   1  11
HETATM   11  C1  UNL     1     -28.243   7.078 -30.272  1.00  0.00     0.234 C
BRANCH  11  12
HETATM   12  N1  UNL     1     -29.609   7.211 -29.804  1.00  0.00    -0.079 N
ATOM     13  H13 UNL     1     -30.122   7.949 -30.286  1.00  0.00     0.274 HD
ATOM     14  H12 UNL     1     -30.200   6.429 -30.084  1.00  0.00     0.274 HD
ATOM     15  H11 UNL     1     -29.583   7.343 -28.793  1.00  0.00     0.274 HD
ENDBRANCH  11  12
ENDBRANCH   1  11
TORSDOF 2
ENDMDL