MODEL 1
REMARK VINA RESULT: -4.756049430      0.000      0.000
REMARK  2 active torsions:
REMARK  status: ('A' for Active; 'I' for Inactive)
REMARK    1  A    between atoms: C2_2  and  C3_3
REMARK    2  A    between atoms: C3_3  and  N1_4
ROOT
HETATM    1  C3  UNL     1     -27.225   3.957 -32.941  1.00  0.00     0.145 C
HETATM    2  C4  UNL     1     -26.280   5.071 -32.953  1.00  0.00     0.048 C
HETATM    3  C5  UNL     1     -26.363   6.119 -31.945  1.00  0.00    -0.011 C
HETATM    4  C6  UNL     1     -27.447   6.087 -30.959  1.00  0.00     0.009 C
HETATM    5  C7  UNL     1     -28.217   7.026 -31.854  1.00  0.00    -0.013 C
HETATM    6  C8  UNL     1     -26.999   7.351 -32.617  1.00  0.00     0.009 C
HETATM    7  C9  UNL     1     -29.394   6.477 -32.492  1.00  0.00     0.010 C
HETATM    8  C10 UNL     1     -29.494   5.192 -33.146  1.00  0.00    -0.007 A
HETATM    9  C11 UNL     1     -28.884   4.908 -34.510  1.00  0.00     0.013 A
HETATM   10  C12 UNL     1     -28.639   4.116 -33.178  1.00  0.00     0.030 A
ENDROOT
BRANCH   1  11
HETATM   11  C2  UNL     1     -26.976   3.006 -31.805  1.00  0.00     0.002 C
HETATM   12  C1  UNL     1     -27.771   1.984 -31.535  1.00  0.00     0.009 C
ENDBRANCH   1  11
BRANCH   1  13
HETATM   13  N1  UNL     1     -26.773   3.152 -34.122  1.00  0.00    -0.067 N
ATOM     14  H13 UNL     1     -27.045   2.170 -34.105  1.00  0.00     0.275 HD
ATOM     15  H12 UNL     1     -27.247   3.367 -34.999  1.00  0.00     0.275 HD
ATOM     16  H11 UNL     1     -25.768   3.324 -34.120  1.00  0.00     0.275 HD
ENDBRANCH   1  13
TORSDOF 2
ENDMDL