MODEL 4
REMARK VINA RESULT: -4.434147507      2.056      2.416
REMARK  3 active torsions:
REMARK  status: ('A' for Active; 'I' for Inactive)
REMARK       I    between atoms: C1_2  and  N1_3
REMARK    1  A    between atoms: C1_2  and  C4_8
REMARK    2  A    between atoms: N1_3  and  C2_5
REMARK    3  A    between atoms: C2_5  and  C3_6
ROOT
HETATM    1  C4  UNL     1     124.133 106.769 -43.655  1.00  0.00     0.045 A
HETATM    2  C5  UNL     1     122.842 107.480 -43.980  1.00  0.00     0.020 C
HETATM    3  C6  UNL     1     123.063 108.695 -44.847  1.00  0.00     0.001 C
HETATM    4  C7  UNL     1     123.999 109.681 -44.207  1.00  0.00     0.000 C
HETATM    5  C8  UNL     1     124.727 109.119 -43.025  1.00  0.00     0.006 C
HETATM    6  C9  UNL     1     125.169 107.702 -43.211  1.00  0.00     0.004 A
HETATM    7  C10 UNL     1     124.556 106.732 -42.206  1.00  0.00     0.025 A
ENDROOT
BRANCH   1   8
HETATM    8  C1  UNL     1     124.409 105.548 -44.408  1.00  0.00     0.226 C
HETATM    9  O1  UNL     1     124.591 105.613 -45.649  1.00  0.00    -0.273 OA
HETATM   10  N1  UNL     1     124.482 104.283 -43.786  1.00  0.00    -0.360 N
ATOM     11  H1  UNL     1     124.337 104.225 -42.778  1.00  0.00     0.162 HD
BRANCH  10  12
HETATM   12  C2  UNL     1     124.757 103.059 -44.523  1.00  0.00     0.133 C
BRANCH  12  13
HETATM   13  C3  UNL     1     125.475 102.083 -43.627  1.00  0.00     0.104 C
HETATM   14 BR1  UNL     1     125.412 102.628 -41.776  1.00  0.00    -0.095 Br
ENDBRANCH  12  13
ENDBRANCH  10  12
ENDBRANCH   1   8
TORSDOF 3
ENDMDL