MODEL 5
REMARK VINA RESULT: -4.997631418      2.138      3.296
REMARK  3 active torsions:
REMARK  status: ('A' for Active; 'I' for Inactive)
REMARK       I    between atoms: C1_2  and  N1_3
REMARK    1  A    between atoms: C1_2  and  C4_8
REMARK    2  A    between atoms: N1_3  and  C2_5
REMARK    3  A    between atoms: C2_5  and  C3_6
ROOT
HETATM    1  C4  UNL     1     124.577 107.834 -42.467  1.00  0.00     0.042 C
HETATM    2  C5  UNL     1     125.305 107.733 -43.786  1.00  0.00     0.024 C
HETATM    3  C6  UNL     1     125.046 108.960 -44.647  1.00  0.00    -0.013 C
HETATM    4  C7  UNL     1     125.885 110.129 -44.256  1.00  0.00     0.005 C
HETATM    5  C8  UNL     1     125.421 110.957 -43.148  1.00  0.00     0.005 C
HETATM    6  C9  UNL     1     124.461 110.335 -42.182  1.00  0.00    -0.013 C
HETATM    7  C10 UNL     1     123.046 110.299 -42.689  1.00  0.00     0.009 C
HETATM    8  C11 UNL     1     122.783 109.089 -43.566  1.00  0.00    -0.013 C
HETATM    9  C12 UNL     1     123.595 109.262 -44.805  1.00  0.00     0.009 C
HETATM   10  C13 UNL     1     123.096 107.863 -42.777  1.00  0.00     0.024 C
HETATM   11  C14 UNL     1     124.982 109.036 -41.696  1.00  0.00     0.024 C
ENDROOT
BRANCH   1  12
HETATM   12  C1  UNL     1     124.941 106.629 -41.678  1.00  0.00     0.226 C
HETATM   13  O1  UNL     1     125.606 106.695 -40.613  1.00  0.00    -0.273 OA
HETATM   14  N1  UNL     1     124.535 105.339 -42.116  1.00  0.00    -0.359 N
ATOM     15  H1  UNL     1     123.994 105.256 -42.976  1.00  0.00     0.162 HD
BRANCH  14  16
HETATM   16  C2  UNL     1     124.868 104.145 -41.377  1.00  0.00     0.137 C
BRANCH  16  17
HETATM   17  C3  UNL     1     124.879 102.977 -42.334  1.00  0.00     0.134 C
HETATM   18 CL1  UNL     1     124.667 103.491 -44.013  1.00  0.00    -0.129 Cl
ENDBRANCH  16  17
ENDBRANCH  14  16
ENDBRANCH   1  12
TORSDOF 3
ENDMDL