MODEL 2
REMARK VINA RESULT: -5.010428539      3.757      4.889
REMARK  3 active torsions:
REMARK  status: ('A' for Active; 'I' for Inactive)
REMARK    1  A    between atoms: C1_2  and  C2_3
REMARK       I    between atoms: C1_2  and  N1_6
REMARK    2  A    between atoms: C2_3  and  C3_4
REMARK       I    between atoms: N1_6  and  C4_8
REMARK    3  A    between atoms: C4_8  and  C5_10
ROOT
HETATM    1  O1  UNL     1     124.805 102.258 -43.258  1.00  0.00    -0.273 OA
HETATM    2  C1  UNL     1     124.609 103.127 -44.146  1.00  0.00     0.224 C
HETATM    3  N1  UNL     1     124.685 104.498 -43.831  1.00  0.00    -0.297 N
ATOM      4  H1  UNL     1     124.901 104.747 -42.866  1.00  0.00     0.171 HD
HETATM    5  C4  UNL     1     124.484 105.553 -44.744  1.00  0.00     0.228 C
HETATM    6  O2  UNL     1     124.217 105.305 -45.936  1.00  0.00    -0.273 OA
ENDROOT
BRANCH   5   7
HETATM    7  C5  UNL     1     124.594 106.940 -44.277  1.00  0.00     0.078 C
HETATM    8  C6  UNL     1     125.795 107.648 -44.913  1.00  0.00     0.014 C
HETATM    9  C7  UNL     1     125.860 109.017 -44.315  1.00  0.00     0.001 C
HETATM   10  C8  UNL     1     124.614 109.387 -43.551  1.00  0.00     0.000 C
HETATM   11  C9  UNL     1     124.316 108.473 -42.410  1.00  0.00     0.001 C
HETATM   12  C10 UNL     1     124.743 107.071 -42.796  1.00  0.00     0.014 C
ENDBRANCH   5   7
BRANCH   2  13
HETATM   13  C2  UNL     1     124.297 102.704 -45.526  1.00  0.00     0.114 C
BRANCH  13  14
HETATM   14  C3  UNL     1     124.626 101.214 -45.696  1.00  0.00     0.094 C
HETATM   15 BR1  UNL     1     124.394 100.746 -47.564  1.00  0.00    -0.096 Br
ENDBRANCH  13  14
ENDBRANCH   2  13
TORSDOF 3
ENDMDL