MODEL 2
REMARK VINA RESULT: -4.999177647      2.525      3.266
REMARK  4 active torsions:
REMARK  status: ('A' for Active; 'I' for Inactive)
REMARK    1  A    between atoms: C1_2  and  C2_3
REMARK       I    between atoms: C1_2  and  N1_9
REMARK    2  A    between atoms: C2_3  and  C3_4
REMARK    3  A    between atoms: C3_4  and  C4_5
REMARK    4  A    between atoms: N1_9  and  C7_11
ROOT
HETATM    1  O1  UNL     1     122.956 105.238 -45.563  1.00  0.00    -0.274 OA
HETATM    2  C1  UNL     1     124.134 104.856 -45.529  1.00  0.00     0.218 C
HETATM    3  N1  UNL     1     125.139 105.768 -45.138  1.00  0.00    -0.356 N
ATOM      4  H1  UNL     1     126.111 105.458 -45.108  1.00  0.00     0.162 HD
ENDROOT
BRANCH   2   5
HETATM    5  C2  UNL     1     124.502 103.491 -45.883  1.00  0.00     0.113 C
BRANCH   5   6
HETATM    6  C3  UNL     1     124.721 102.518 -44.789  1.00  0.00    -0.023 A
HETATM    7  C5  UNL     1     125.797 102.736 -43.751  1.00  0.00     0.011 A
HETATM    8  C6  UNL     1     124.317 102.654 -43.395  1.00  0.00     0.011 A
BRANCH   6   9
HETATM    9  C4  UNL     1     124.725 101.062 -45.315  1.00  0.00     0.095 C
HETATM   10 BR1  UNL     1     124.448 101.022 -47.217  1.00  0.00    -0.096 Br
ENDBRANCH   6   9
ENDBRANCH   5   6
ENDBRANCH   2   5
BRANCH   3  11
HETATM   11  C7  UNL     1     124.821 107.120 -44.782  1.00  0.00     0.084 C
HETATM   12  C8  UNL     1     126.053 108.021 -44.900  1.00  0.00     0.025 C
HETATM   13  C9  UNL     1     125.611 109.222 -44.090  1.00  0.00     0.002 C
HETATM   14  C10 UNL     1     124.858 108.619 -42.951  1.00  0.00     0.002 C
HETATM   15  C11 UNL     1     124.566 107.183 -43.291  1.00  0.00     0.025 C
ENDBRANCH   3  11
TORSDOF 4
ENDMDL