MODEL 1
REMARK VINA RESULT: -4.498493151      0.000      0.000
REMARK  4 active torsions:
REMARK  status: ('A' for Active; 'I' for Inactive)
REMARK    1  A    between atoms: C2_2  and  C3_3
REMARK    2  A    between atoms: C3_3  and  C4_4
REMARK    3  A    between atoms: C6_6  and  C7_7
REMARK    4  A    between atoms: C8_10  and  C9_11
ROOT
HETATM    1  C3  UNL     1     124.030 106.898 -44.300  1.00  0.00    -0.002 A
HETATM    2  C6  UNL     1     124.120 106.440 -42.909  1.00  0.00     0.098 A
HETATM    3  C8  UNL     1     124.879 105.759 -43.972  1.00  0.00     0.052 A
ENDROOT
BRANCH   1   4
HETATM    4  C2  UNL     1     124.790 108.077 -44.833  1.00  0.00    -0.026 C
HETATM    5  C1  UNL     1     126.077 108.068 -45.089  1.00  0.00     0.008 C
ENDBRANCH   1   4
BRANCH   1   6
HETATM    6  C4  UNL     1     122.638 106.846 -44.880  1.00  0.00     0.010 C
HETATM    7  C5  UNL     1     121.797 107.963 -44.239  1.00  0.00     0.006 C
ENDBRANCH   1   6
BRANCH   2   8
HETATM    8  C7  UNL     1     124.789 107.227 -41.861  1.00  0.00     0.237 C
HETATM    9  N1  UNL     1     125.559 106.587 -40.879  1.00  0.00    -0.062 NA
HETATM   10  O1  UNL     1     124.669 108.465 -41.849  1.00  0.00    -0.276 OA
ENDBRANCH   2   8
BRANCH   3  11
HETATM   11  C9  UNL     1     124.634 104.417 -44.489  1.00  0.00    -0.009 C
HETATM   12 BR1  UNL     1     124.573 102.888 -43.384  1.00  0.00    -0.056 Br
HETATM   13  C10 UNL     1     124.414 104.243 -45.814  1.00  0.00    -0.016 C
HETATM   14  C11 UNL     1     124.166 102.886 -46.344  1.00  0.00     0.037 C
ENDBRANCH   3  11
TORSDOF 4
ENDMDL