MODEL 2
REMARK VINA RESULT: -5.916003141      1.062      1.839
REMARK  5 active torsions:
REMARK  status: ('A' for Active; 'I' for Inactive)
REMARK    1  A    between atoms: C1_2  and  C2_3
REMARK       I    between atoms: C1_2  and  N1_6
REMARK    2  A    between atoms: C2_3  and  C3_4
REMARK    3  A    between atoms: N1_6  and  C4_8
REMARK    4  A    between atoms: C4_8  and  C5_9
REMARK    5  A    between atoms: C5_9  and  C6_10
ROOT
HETATM    1  C6  UNL     1     124.489 107.336 -42.807  1.00  0.00    -0.032 C
HETATM    2  C7  UNL     1     123.161 107.970 -42.362  1.00  0.00     0.015 C
HETATM    3  C8  UNL     1     122.743 108.672 -43.657  1.00  0.00    -0.006 C
HETATM    4  C9  UNL     1     122.133 107.552 -44.514  1.00  0.00     0.048 C
HETATM    5  C10 UNL     1     123.416 106.917 -45.030  1.00  0.00     0.105 C
HETATM    6  F1  UNL     1     123.207 105.979 -45.984  1.00  0.00    -0.243 F
HETATM    7  C11 UNL     1     124.112 108.171 -45.574  1.00  0.00     0.048 C
HETATM    8  C12 UNL     1     124.031 109.054 -44.322  1.00  0.00    -0.006 C
HETATM    9  C13 UNL     1     125.155 108.547 -43.405  1.00  0.00     0.015 C
HETATM   10  C14 UNL     1     124.235 106.352 -43.904  1.00  0.00     0.053 C
ENDROOT
BRANCH   1  11
HETATM   11  C5  UNL     1     125.211 106.734 -41.653  1.00  0.00     0.054 C
BRANCH  11  12
HETATM   12  C4  UNL     1     124.543 105.577 -41.019  1.00  0.00     0.064 C
BRANCH  12  13
HETATM   13  N1  UNL     1     125.238 104.355 -40.955  1.00  0.00    -0.341 N
HETATM   14  C1  UNL     1     124.984 103.174 -41.684  1.00  0.00     0.222 C
HETATM   15  O1  UNL     1     124.061 103.045 -42.528  1.00  0.00    -0.273 OA
ATOM     16  H1  UNL     1     126.021 104.319 -40.303  1.00  0.00     0.167 HD
BRANCH  14  17
HETATM   17  C2  UNL     1     125.815 101.959 -41.502  1.00  0.00     0.118 C
BRANCH  17  18
HETATM   18  C3  UNL     1     127.240 102.259 -41.177  1.00  0.00     0.124 C
HETATM   19 CL1  UNL     1     128.227 100.801 -41.490  1.00  0.00    -0.130 Cl
ENDBRANCH  17  18
ENDBRANCH  14  17
ENDBRANCH  12  13
ENDBRANCH  11  12
ENDBRANCH   1  11
TORSDOF 5
ENDMDL