MODEL 2
REMARK VINA RESULT: -4.526269621      1.237      2.449
REMARK  4 active torsions:
REMARK  status: ('A' for Active; 'I' for Inactive)
REMARK    1  A    between atoms: C2_2  and  C4_4
REMARK    2  A    between atoms: C4_4  and  N1_5
REMARK    3  A    between atoms: N1_5  and  C5_7
REMARK    4  A    between atoms: C5_7  and  C7_11
ROOT
HETATM    1  C4  UNL     1     124.437 109.870 -41.960  1.00  0.00     0.100 A
HETATM    2  C10 UNL     1     124.882 110.496 -40.711  1.00  0.00     0.023 A
HETATM    3  C11 UNL     1     126.226 109.981 -40.148  1.00  0.00     0.021 C
HETATM    4  C12 UNL     1     124.025 111.073 -39.651  1.00  0.00     0.021 C
HETATM    5  C13 UNL     1     125.116 111.262 -41.990  1.00  0.00     0.152 A
HETATM    6 CL1  UNL     1     124.090 112.684 -42.178  1.00  0.00    -0.098 Cl
HETATM    7 CL2  UNL     1     126.715 111.374 -42.704  1.00  0.00    -0.098 Cl
ENDROOT
BRANCH   1   8
HETATM    8  C2  UNL     1     123.110 109.927 -42.555  1.00  0.00    -0.061 C
HETATM    9  C1  UNL     1     121.934 109.729 -41.992  1.00  0.00     0.016 C
HETATM   10  C3  UNL     1     123.052 110.260 -44.037  1.00  0.00     0.045 C
ENDBRANCH   1   8
BRANCH   1  11
HETATM   11  N1  UNL     1     125.327 108.794 -42.432  1.00  0.00    -0.363 N
ATOM     12  H1  UNL     1     126.303 109.041 -42.597  1.00  0.00     0.162 HD
BRANCH  11  13
HETATM   13  C5  UNL     1     124.959 107.470 -42.675  1.00  0.00     0.076 C
HETATM   14  N2  UNL     1     124.864 106.482 -41.930  1.00  0.00    -0.384 N
HETATM   15  C6  UNL     1     125.040 106.136 -40.597  1.00  0.00     0.147 C
ATOM     16  H2  UNL     1     124.562 105.669 -42.466  1.00  0.00     0.160 HD
BRANCH  13  17
HETATM   17  C7  UNL     1     124.624 107.161 -44.139  1.00  0.00     0.044 C
HETATM   18  C8  UNL     1     125.693 107.642 -45.061  1.00  0.00     0.017 C
HETATM   19  C9  UNL     1     124.429 105.672 -44.220  1.00  0.00     0.017 C
ENDBRANCH  13  17
ENDBRANCH  11  13
ENDBRANCH   1  11
TORSDOF 4
ENDMDL