MODEL 1
REMARK VINA RESULT: -4.782941587      0.000      0.000
REMARK  3 active torsions:
REMARK  status: ('A' for Active; 'I' for Inactive)
REMARK    1  A    between atoms: C1_2  and  C2_3
REMARK       I    between atoms: C1_2  and  N1_5
REMARK    2  A    between atoms: N1_5  and  C3_7
REMARK    3  A    between atoms: C3_7  and  C4_8
ROOT
HETATM    1  C3  UNL     1     117.781  96.629 -39.639  1.00  0.00     0.043 C
HETATM    2  C5  UNL     1     117.853  95.115 -39.641  1.00  0.00     0.032 C
HETATM    3  C6  UNL     1     119.030  94.902 -40.580  1.00  0.00     0.012 C
HETATM    4  C7  UNL     1     120.054  95.794 -39.912  1.00  0.00    -0.038 C
HETATM    5  C8  UNL     1     121.346  95.969 -40.605  1.00  0.00     0.010 C
HETATM    6  C9  UNL     1     121.882  94.787 -39.817  1.00  0.00     0.002 C
HETATM    7  C10 UNL     1     120.764  95.032 -38.821  1.00  0.00     0.010 C
HETATM    8  C11 UNL     1     119.270  96.977 -39.509  1.00  0.00     0.041 C
ENDROOT
BRANCH   1   9
HETATM    9  N1  UNL     1     117.272  97.054 -40.901  1.00  0.00    -0.349 N
HETATM   10  C1  UNL     1     117.518  98.308 -41.524  1.00  0.00     0.246 C
HETATM   11  O1  UNL     1     118.251  99.124 -40.916  1.00  0.00    -0.271 OA
ATOM     12  H1  UNL     1     116.676  96.396 -41.405  1.00  0.00     0.163 HD
BRANCH  10  13
HETATM   13  C2  UNL     1     116.948  98.669 -42.838  1.00  0.00     0.324 C
HETATM   14  F1  UNL     1     116.612  97.595 -43.605  1.00  0.00    -0.246 F
ENDBRANCH  10  13
ENDBRANCH   1   9
BRANCH   1  15
HETATM   15  C4  UNL     1     117.004  97.145 -38.452  1.00  0.00     0.116 C
HETATM   16 BR1  UNL     1     117.200  95.952 -36.948  1.00  0.00    -0.094 Br
ENDBRANCH   1  15
TORSDOF 3
ENDMDL