MODEL 5
REMARK VINA RESULT: -5.169849816      1.860      3.100
REMARK  4 active torsions:
REMARK  status: ('A' for Active; 'I' for Inactive)
REMARK    1  A    between atoms: C3_3  and  C4_4
REMARK    2  A    between atoms: C5_7  and  C6_8
REMARK       I    between atoms: C6_8  and  N2_10
REMARK    3  A    between atoms: C7_12  and  C8_13
REMARK    4  A    between atoms: C8_13  and  C9_14
ROOT
HETATM    1  C6  UNL     1     124.700 104.311 -41.646  1.00  0.00     0.226 C
HETATM    2  O2  UNL     1     124.094 103.682 -40.767  1.00  0.00    -0.273 OA
HETATM    3  N2  UNL     1     124.790 105.720 -41.475  1.00  0.00    -0.340 N
ATOM      4  H2  UNL     1     125.058 106.120 -40.576  1.00  0.00     0.167 HD
HETATM    5  C7  UNL     1     124.529 106.473 -42.474  1.00  0.00     0.067 C
ENDROOT
BRANCH   1   6
HETATM    6  C5  UNL     1     125.312 103.687 -42.824  1.00  0.00     0.095 A
HETATM    7  C2  UNL     1     124.715 102.430 -43.387  1.00  0.00     0.009 A
HETATM    8  C1  UNL     1     124.456 102.369 -44.866  1.00  0.00     0.011 C
HETATM    9  C3  UNL     1     126.101 102.459 -42.854  1.00  0.00     0.093 A
BRANCH   9  10
HETATM   10  C4  UNL     1     126.387 101.565 -41.724  1.00  0.00     0.236 C
HETATM   11  N1  UNL     1     127.701 101.523 -41.184  1.00  0.00    -0.062 NA
HETATM   12  O1  UNL     1     125.532 100.802 -41.173  1.00  0.00    -0.276 OA
ENDBRANCH   9  10
ENDBRANCH   1   6
BRANCH   5  13
HETATM   13  C8  UNL     1     124.593 107.958 -42.402  1.00  0.00     0.074 C
BRANCH  13  14
HETATM   14  C9  UNL     1     123.928 108.487 -43.610  1.00  0.00     0.015 C
HETATM   15  C10 UNL     1     124.609 108.717 -44.726  1.00  0.00     0.100 C
HETATM   16 CL1  UNL     1     126.321 108.398 -44.798  1.00  0.00    -0.071 Cl
HETATM   17 CL2  UNL     1     123.786 109.347 -46.145  1.00  0.00    -0.071 Cl
ENDBRANCH  13  14
ENDBRANCH   5  13
TORSDOF 4
ENDMDL