MODEL 1
REMARK VINA RESULT: -4.890827598      0.000      0.000
REMARK  5 active torsions:
REMARK  status: ('A' for Active; 'I' for Inactive)
REMARK    1  A    between atoms: C2_2  and  C3_3
REMARK    2  A    between atoms: C3_3  and  N1_5
REMARK    3  A    between atoms: N1_5  and  C4_7
REMARK    4  A    between atoms: C4_7  and  C5_8
REMARK    5  A    between atoms: C5_8  and  C6_9
ROOT
HETATM    1  C3  UNL     1     124.235 105.960 -43.805  1.00  0.00     0.082 C
HETATM    2  S1  UNL     1     123.523 106.254 -45.251  1.00  0.00    -0.065 SA
ENDROOT
BRANCH   1   3
HETATM    3  C2  UNL     1     124.481 107.048 -42.836  1.00  0.00     0.015 C
HETATM    4  C1  UNL     1     125.020 106.531 -41.526  1.00  0.00     0.023 C
HETATM    5  C9  UNL     1     125.236 108.222 -43.405  1.00  0.00     0.058 C
HETATM    6  C10 UNL     1     124.246 109.142 -42.761  1.00  0.00     0.115 C
HETATM    7 CL1  UNL     1     124.735 109.830 -41.204  1.00  0.00    -0.102 Cl
HETATM    8 CL2  UNL     1     123.616 110.412 -43.846  1.00  0.00    -0.102 Cl
HETATM    9  C11 UNL     1     123.277 107.985 -42.668  1.00  0.00     0.058 C
ENDBRANCH   1   3
BRANCH   1  10
HETATM   10  N1  UNL     1     124.614 104.630 -43.494  1.00  0.00    -0.384 N
ATOM     11  H1  UNL     1     124.916 104.427 -42.541  1.00  0.00     0.160 HD
BRANCH  10  12
HETATM   12  C4  UNL     1     124.599 103.557 -44.437  1.00  0.00     0.120 C
BRANCH  12  13
HETATM   13  C5  UNL     1     125.256 102.329 -43.795  1.00  0.00     0.024 C
BRANCH  13  14
HETATM   14  C6  UNL     1     125.419 102.666 -42.325  1.00  0.00    -0.013 A
HETATM   15  C7  UNL     1     125.486 101.455 -41.370  1.00  0.00     0.005 A
HETATM   16  C8  UNL     1     126.689 102.331 -41.636  1.00  0.00     0.005 A
ENDBRANCH  13  14
ENDBRANCH  12  13
ENDBRANCH  10  12
ENDBRANCH   1  10
TORSDOF 5
ENDMDL