MODEL 4
REMARK VINA RESULT: -5.212027561      0.839      1.440
REMARK  4 active torsions:
REMARK  status: ('A' for Active; 'I' for Inactive)
REMARK    1  A    between atoms: C3_3  and  N1_4
REMARK       I    between atoms: N1_4  and  C4_6
REMARK    2  A    between atoms: C4_6  and  C5_8
REMARK    3  A    between atoms: C11_14  and  C12_15
REMARK    4  A    between atoms: C12_15  and  C13_17
ROOT
HETATM    1  C1  UNL     1     126.561 101.957 -41.958  1.00  0.00     0.014 C
HETATM    2  C2  UNL     1     125.681 102.347 -42.674  1.00  0.00    -0.098 C
HETATM    3  C3  UNL     1     124.621 102.836 -43.567  1.00  0.00     0.216 C
ENDROOT
BRANCH   3   4
HETATM    4  N1  UNL     1     124.653 102.065 -44.792  1.00  0.00    -0.350 N
HETATM    5  C4  UNL     1     124.277 102.613 -46.048  1.00  0.00     0.222 C
HETATM    6  O1  UNL     1     123.906 103.819 -46.065  1.00  0.00    -0.273 OA
ATOM      7  H1  UNL     1     124.956 101.093 -44.752  1.00  0.00     0.163 HD
BRANCH   5   8
HETATM    8  C5  UNL     1     124.306 101.838 -47.300  1.00  0.00     0.078 C
HETATM    9  C6  UNL     1     123.107 102.247 -48.127  1.00  0.00     0.014 C
HETATM   10  C7  UNL     1     123.261 101.601 -49.470  1.00  0.00     0.006 C
HETATM   11  C8  UNL     1     123.545 100.145 -49.442  1.00  0.00    -0.004 A
HETATM   12  C9  UNL     1     123.960  99.516 -48.213  1.00  0.00    -0.003 A
HETATM   13  C11 UNL     1     122.599  99.266 -48.711  1.00  0.00     0.014 A
HETATM   14  C10 UNL     1     124.196 100.383 -47.017  1.00  0.00     0.019 C
BRANCH  13  15
HETATM   15  C12 UNL     1     122.074  98.010 -49.271  1.00  0.00     0.101 C
HETATM   16 CL1  UNL     1     121.494  98.354 -50.942  1.00  0.00    -0.123 Cl
BRANCH  15  17
HETATM   17  C13 UNL     1     122.922  96.808 -49.320  1.00  0.00     0.135 C
HETATM   18 CL2  UNL     1     122.234  95.439 -50.218  1.00  0.00    -0.129 Cl
ENDBRANCH  15  17
ENDBRANCH  13  15
ENDBRANCH   5   8
ENDBRANCH   3   4
TORSDOF 4
ENDMDL