MODEL 5
REMARK VINA RESULT: -4.480475129      2.077      3.000
REMARK  6 active torsions:
REMARK  status: ('A' for Active; 'I' for Inactive)
REMARK    1  A    between atoms: C2_2  and  C3_3
REMARK    2  A    between atoms: C6_6  and  N1_7
REMARK    3  A    between atoms: N1_7  and  C8_9
REMARK    4  A    between atoms: C8_9  and  N2_11
REMARK    5  A    between atoms: N2_11  and  C9_13
REMARK    6  A    between atoms: C9_13  and  C10_14
ROOT
HETATM    1  C8  UNL     1     124.389 104.555 -45.175  1.00  0.00     0.169 C
HETATM    2  S1  UNL     1     123.280 104.485 -46.400  1.00  0.00    -0.041 SA
ENDROOT
BRANCH   1   3
HETATM    3  N1  UNL     1     124.822 103.354 -44.548  1.00  0.00    -0.357 N
HETATM    4  C7  UNL     1     124.526 102.104 -45.212  1.00  0.00     0.152 C
BRANCH   3   5
HETATM    5  C6  UNL     1     125.519 103.439 -43.309  1.00  0.00     0.093 C
HETATM    6  C3  UNL     1     124.733 103.049 -42.077  1.00  0.00     0.030 C
HETATM    7  C4  UNL     1     125.935 102.232 -41.589  1.00  0.00     0.012 C
HETATM    8  C5  UNL     1     126.376 102.194 -43.048  1.00  0.00     0.027 C
BRANCH   6   9
HETATM    9  C2  UNL     1     124.467 104.153 -41.128  1.00  0.00    -0.030 C
HETATM   10  C1  UNL     1     125.123 105.300 -41.136  1.00  0.00     0.007 C
ENDBRANCH   6   9
ENDBRANCH   3   5
ENDBRANCH   1   3
BRANCH   1  11
HETATM   11  N2  UNL     1     124.883 105.834 -44.781  1.00  0.00    -0.364 N
ATOM     12  H2  UNL     1     125.877 106.046 -44.867  1.00  0.00     0.162 HD
BRANCH  11  13
HETATM   13  C9  UNL     1     123.981 106.822 -44.264  1.00  0.00     0.164 C
BRANCH  13  14
HETATM   14  C10 UNL     1     124.634 108.175 -44.093  1.00  0.00     0.125 C
HETATM   15  C11 UNL     1     123.819 109.217 -44.829  1.00  0.00     0.052 C
HETATM   16 CL1  UNL     1     126.292 108.187 -44.727  1.00  0.00    -0.100 Cl
HETATM   17 CL2  UNL     1     124.695 108.660 -42.389  1.00  0.00    -0.100 Cl
ENDBRANCH  13  14
ENDBRANCH  11  13
ENDBRANCH   1  11
TORSDOF 6
ENDMDL