MODEL 2
REMARK VINA RESULT: -5.524180811      1.560      1.993
REMARK  4 active torsions:
REMARK  status: ('A' for Active; 'I' for Inactive)
REMARK    1  A    between atoms: C2_2  and  C3_3
REMARK       I    between atoms: C3_3  and  N1_5
REMARK    2  A    between atoms: N1_5  and  C4_7
REMARK    3  A    between atoms: C4_7  and  C5_9
REMARK       I    between atoms: N2_14  and  C8_15
REMARK    4  A    between atoms: C8_15  and  C9_17
ROOT
HETATM    1  C1  UNL     1      88.460  98.763 -44.282  1.00  0.00     0.049 C
HETATM    2  C2  UNL     1      89.942  99.011 -44.488  1.00  0.00     0.114 C
HETATM    3  C6  UNL     1      90.293  99.575 -45.846  1.00  0.00     0.061 C
HETATM    4  C7  UNL     1      91.287 100.415 -45.032  1.00  0.00     0.130 C
HETATM    5  N2  UNL     1      90.453 100.206 -43.888  1.00  0.00    -0.334 N
HETATM    6  C8  UNL     1      90.237 100.900 -42.678  1.00  0.00     0.225 C
HETATM    7  O2  UNL     1      89.390 100.404 -41.860  1.00  0.00    -0.273 OA
ENDROOT
BRANCH   2   8
HETATM    8  C3  UNL     1      90.693  97.774 -44.245  1.00  0.00     0.248 C
HETATM    9  O1  UNL     1      91.215  97.188 -45.254  1.00  0.00    -0.271 OA
HETATM   10  N1  UNL     1      90.861  97.210 -42.953  1.00  0.00    -0.324 N
ATOM     11  H1  UNL     1      90.438  97.689 -42.157  1.00  0.00     0.165 HD
BRANCH  10  12
HETATM   12  C4  UNL     1      91.598  95.995 -42.709  1.00  0.00     0.337 C
HETATM   13  F1  UNL     1      91.000  94.883 -43.261  1.00  0.00    -0.221 F
BRANCH  12  14
HETATM   14  C5  UNL     1      91.788  95.715 -41.238  1.00  0.00     0.406 C
HETATM   15  F2  UNL     1      92.165  96.902 -40.637  1.00  0.00    -0.209 F
HETATM   16  F3  UNL     1      92.848  94.832 -41.041  1.00  0.00    -0.209 F
ENDBRANCH  12  14
ENDBRANCH  10  12
ENDBRANCH   2   8
BRANCH   6  17
HETATM   17  C9  UNL     1      90.911 102.143 -42.293  1.00  0.00     0.078 C
HETATM   18  C10 UNL     1      90.122 102.758 -41.147  1.00  0.00     0.014 C
HETATM   19  C11 UNL     1      91.022 103.363 -40.110  1.00  0.00     0.001 C
HETATM   20  C12 UNL     1      91.993 102.416 -39.483  1.00  0.00     0.000 C
HETATM   21  C13 UNL     1      92.304 101.304 -40.423  1.00  0.00     0.001 C
HETATM   22  C14 UNL     1      92.315 101.826 -41.833  1.00  0.00     0.014 C
ENDBRANCH   6  17
TORSDOF 4
ENDMDL