MODEL 2
REMARK VINA RESULT: -4.961236973      2.519      3.170
REMARK  3 active torsions:
REMARK  status: ('A' for Active; 'I' for Inactive)
REMARK    1  A    between atoms: C1_2  and  C2_3
REMARK       I    between atoms: C1_2  and  N1_7
REMARK    2  A    between atoms: C2_3  and  C3_4
REMARK    3  A    between atoms: N1_7  and  C6_9
ROOT
HETATM    1  C6  UNL     1      90.742 100.040 -42.548  1.00  0.00     0.119 C
HETATM    2  C7  UNL     1      92.087 100.734 -42.707  1.00  0.00     0.108 C
HETATM    3  C8  UNL     1      92.345 101.614 -41.538  1.00  0.00     0.246 C
HETATM    4  F1  UNL     1      92.103 101.015 -40.321  1.00  0.00    -0.206 F
HETATM    5  F2  UNL     1      93.641 102.104 -41.613  1.00  0.00    -0.206 F
HETATM    6  C9  UNL     1      91.340 102.771 -41.618  1.00  0.00     0.083 C
HETATM    7  C10 UNL     1      90.020 102.158 -41.214  1.00  0.00     0.042 C
HETATM    8  C11 UNL     1      89.713 100.932 -42.015  1.00  0.00    -0.050 C
HETATM    9  C12 UNL     1      88.434 100.671 -42.242  1.00  0.00     0.060 C
HETATM   10 BR1  UNL     1      87.807  99.165 -43.246  1.00  0.00    -0.063 Br
ENDROOT
BRANCH   1  11
HETATM   11  N1  UNL     1      90.974  98.832 -41.808  1.00  0.00    -0.352 N
HETATM   12  C1  UNL     1      91.143  97.546 -42.394  1.00  0.00     0.218 C
HETATM   13  O1  UNL     1      91.102  97.390 -43.636  1.00  0.00    -0.274 OA
ATOM     14  H1  UNL     1      91.022  98.900 -40.792  1.00  0.00     0.163 HD
BRANCH  12  15
HETATM   15  C2  UNL     1      91.374  96.322 -41.588  1.00  0.00     0.107 C
BRANCH  15  16
HETATM   16  C3  UNL     1      92.069  95.247 -42.348  1.00  0.00    -0.006 A
HETATM   17  C4  UNL     1      91.437  93.980 -42.704  1.00  0.00     0.005 A
HETATM   18  C5  UNL     1      92.430  94.013 -41.567  1.00  0.00     0.005 A
ENDBRANCH  15  16
ENDBRANCH  12  15
ENDBRANCH   1  11
TORSDOF 3
ENDMDL