MODEL 1
REMARK VINA RESULT: -4.629323796      0.000      0.000
REMARK  5 active torsions:
REMARK  status: ('A' for Active; 'I' for Inactive)
REMARK    1  A    between atoms: C2_2  and  C3_3
REMARK    2  A    between atoms: C10_10  and  N1_11
REMARK    3  A    between atoms: N1_11  and  C12_13
REMARK    4  A    between atoms: C12_13  and  N2_14
REMARK    5  A    between atoms: C12_13  and  C13_18
ROOT
HETATM    1  N1  UNL     1      90.345 100.077 -42.241  1.00  0.00    -0.382 N
HETATM    2  C11 UNL     1      88.921  99.937 -42.181  1.00  0.00     0.146 C
ENDROOT
BRANCH   1   3
HETATM    3  C10 UNL     1      91.103  99.357 -43.113  1.00  0.00     0.089 C
HETATM    4  C3  UNL     1      91.667  98.020 -42.745  1.00  0.00     0.013 C
HETATM    5  C4  UNL     1      90.988  96.987 -43.615  1.00  0.00     0.000 C
HETATM    6  C5  UNL     1      91.572  97.042 -45.006  1.00  0.00    -0.009 C
HETATM    7  C7  UNL     1      89.833  97.750 -44.279  1.00  0.00    -0.003 C
HETATM    8  C6  UNL     1      90.155  96.871 -45.506  1.00  0.00     0.010 C
HETATM    9  C9  UNL     1      91.757  98.524 -45.269  1.00  0.00     0.012 C
HETATM   10  C8  UNL     1      90.538  99.047 -44.481  1.00  0.00     0.013 C
BRANCH   4  11
HETATM   11  C2  UNL     1      91.750  97.693 -41.304  1.00  0.00     0.002 C
HETATM   12  C1  UNL     1      91.630  96.171 -41.079  1.00  0.00     0.005 C
ENDBRANCH   4  11
ENDBRANCH   1   3
BRANCH   1  13
HETATM   13  C12 UNL     1      90.619 101.472 -42.144  1.00  0.00     0.334 C
BRANCH  13  14
HETATM   14  N2  UNL     1      89.529 102.108 -41.345  1.00  0.00    -0.054 N
ATOM     15  H23 UNL     1      88.628 101.645 -41.469  1.00  0.00     0.277 HD
ATOM     16  H22 UNL     1      89.629 101.945 -40.342  1.00  0.00     0.277 HD
ATOM     17  H21 UNL     1      89.496 103.099 -41.581  1.00  0.00     0.277 HD
ENDBRANCH  13  14
BRANCH  13  18
HETATM   18  C13 UNL     1      91.909 101.965 -41.649  1.00  0.00     0.233 C
HETATM   19 CL1  UNL     1      92.536 101.081 -40.242  1.00  0.00    -0.080 Cl
HETATM   20 CL2  UNL     1      93.203 102.202 -42.806  1.00  0.00    -0.080 Cl
HETATM   21 CL3  UNL     1      91.549 103.668 -41.033  1.00  0.00    -0.080 Cl
ENDBRANCH  13  18
ENDBRANCH   1  13
TORSDOF 5
ENDMDL