MODEL 2
REMARK VINA RESULT: -5.578436585      0.598      1.061
REMARK  4 active torsions:
REMARK  status: ('A' for Active; 'I' for Inactive)
REMARK    1  A    between atoms: C2_2  and  C3_4
REMARK    2  A    between atoms: C3_4  and  C4_6
REMARK       I    between atoms: N1_11  and  C9_12
REMARK       I    between atoms: C9_12  and  N2_14
REMARK    3  A    between atoms: N2_14  and  C10_16
REMARK    4  A    between atoms: C10_16  and  C11_17
ROOT
HETATM    1  C4  UNL     1      90.213  97.579 -43.765  1.00  0.00     0.164 C
HETATM    2  C5  UNL     1      89.537  98.848 -44.280  1.00  0.00     0.034 C
HETATM    3  C6  UNL     1      89.169  99.769 -43.160  1.00  0.00     0.004 C
HETATM    4  C7  UNL     1      90.324 100.226 -42.342  1.00  0.00     0.020 C
HETATM    5  C8  UNL     1      91.518  99.347 -42.597  1.00  0.00     0.128 C
HETATM    6  N1  UNL     1      91.161  97.963 -42.714  1.00  0.00    -0.322 N
HETATM    7  C9  UNL     1      91.678  96.942 -41.872  1.00  0.00     0.322 C
HETATM    8  O2  UNL     1      92.477  97.302 -40.987  1.00  0.00    -0.247 OA
HETATM    9  N2  UNL     1      91.327  95.583 -42.004  1.00  0.00    -0.320 N
ATOM     10  H2  UNL     1      90.663  95.374 -42.750  1.00  0.00     0.169 HD
ENDROOT
BRANCH   1  11
HETATM   11  C3  UNL     1      90.923  96.982 -44.916  1.00  0.00     0.192 C
HETATM   12  O1  UNL     1      92.107  97.425 -45.118  1.00  0.00    -0.289 OA
BRANCH  11  13
HETATM   13  C2  UNL     1      90.402  95.978 -45.796  1.00  0.00     0.072 C
HETATM   14  C1  UNL     1      90.865  94.747 -45.862  1.00  0.00     0.040 C
HETATM   15 CL1  UNL     1      89.053  96.375 -46.853  1.00  0.00    -0.081 Cl
ENDBRANCH  11  13
ENDBRANCH   1  11
BRANCH   9  16
HETATM   16  C10 UNL     1      91.761  94.474 -41.257  1.00  0.00     0.101 C
BRANCH  16  17
HETATM   17  C11 UNL     1      92.741  93.528 -41.821  1.00  0.00     0.216 C
HETATM   18 CL2  UNL     1      92.799  93.571 -43.607  1.00  0.00    -0.102 Cl
HETATM   19 CL3  UNL     1      94.340  93.515 -41.093  1.00  0.00    -0.102 Cl
ENDBRANCH  16  17
ENDBRANCH   9  16
TORSDOF 4
ENDMDL