MODEL 5
REMARK VINA RESULT: -5.150933069      1.704      1.919
REMARK  3 active torsions:
REMARK  status: ('A' for Active; 'I' for Inactive)
REMARK       I    between atoms: C1_2  and  N1_3
REMARK    1  A    between atoms: C1_2  and  C12_18
REMARK    2  A    between atoms: N1_3  and  C2_5
REMARK    3  A    between atoms: C5_8  and  C6_9
ROOT
HETATM    1  C2  UNL     1      91.119  98.430 -43.156  1.00  0.00     0.094 C
HETATM    2  C3  UNL     1      90.297  99.378 -42.283  1.00  0.00     0.012 C
HETATM    3  C4  UNL     1      88.834  99.231 -42.497  1.00  0.00     0.020 C
HETATM    4  C5  UNL     1      88.435  99.349 -43.936  1.00  0.00     0.006 C
HETATM    5  C7  UNL     1      89.219  98.287 -44.705  1.00  0.00     0.022 C
HETATM    6  C8  UNL     1      90.625  98.808 -44.514  1.00  0.00     0.036 C
HETATM    7  C9  UNL     1      90.490 100.335 -44.396  1.00  0.00     0.074 C
HETATM    8 CL2  UNL     1      91.485 101.194 -45.540  1.00  0.00    -0.116 Cl
HETATM    9  C10 UNL     1      90.761 100.685 -42.951  1.00  0.00     0.036 C
HETATM   10  C11 UNL     1      88.989 100.590 -44.597  1.00  0.00     0.203 C
HETATM   11  F1  UNL     1      88.700 100.554 -45.929  1.00  0.00    -0.246 F
ENDROOT
BRANCH   1  12
HETATM   12  N1  UNL     1      91.048  97.080 -42.775  1.00  0.00    -0.355 N
HETATM   13  C1  UNL     1      91.746  96.655 -41.614  1.00  0.00     0.222 C
HETATM   14  O1  UNL     1      92.423  97.455 -40.920  1.00  0.00    -0.273 OA
ATOM     15  H1  UNL     1      90.503  96.414 -43.324  1.00  0.00     0.162 HD
BRANCH  13  16
HETATM   16  C12 UNL     1      91.709  95.223 -41.154  1.00  0.00     0.078 A
HETATM   17  C13 UNL     1      92.971  94.427 -41.345  1.00  0.00     0.015 A
HETATM   18  C14 UNL     1      91.806  94.174 -42.216  1.00  0.00     0.015 A
ENDBRANCH  13  16
ENDBRANCH   1  12
BRANCH   4  19
HETATM   19  C6  UNL     1      86.967  99.246 -44.135  1.00  0.00     0.127 C
HETATM   20 CL1  UNL     1      86.057 100.706 -43.803  1.00  0.00    -0.130 Cl
ENDBRANCH   4  19
TORSDOF 3
ENDMDL