MODEL 1
REMARK VINA RESULT: -4.743325588      0.000      0.000
REMARK  3 active torsions:
REMARK  status: ('A' for Active; 'I' for Inactive)
REMARK    1  A    between atoms: C2_2  and  C3_3
REMARK    2  A    between atoms: C3_3  and  C4_4
REMARK       I    between atoms: C4_4  and  N1_6
REMARK    3  A    between atoms: N1_6  and  C5_8
ROOT
HETATM    1  C3  UNL     1      87.453  87.475 -39.533  1.00  0.00     0.097 A
HETATM    2  C8  UNL     1      87.366  86.215 -40.222  1.00  0.00     0.085 A
HETATM    3  C9  UNL     1      86.382  85.863 -41.297  1.00  0.00     0.037 C
HETATM    4 CL1  UNL     1      88.911  85.294 -40.424  1.00  0.00    -0.115 Cl
HETATM    5  C10 UNL     1      86.921  86.213 -38.776  1.00  0.00     0.135 A
HETATM    6 CL2  UNL     1      85.191  86.135 -38.419  1.00  0.00    -0.103 Cl
HETATM    7 BR1  UNL     1      88.044  85.458 -37.415  1.00  0.00    -0.064 Br
ENDROOT
BRANCH   1   8
HETATM    8  C2  UNL     1      88.863  87.877 -39.055  1.00  0.00     0.020 C
HETATM    9  C1  UNL     1      89.660  88.476 -40.155  1.00  0.00     0.006 C
ENDBRANCH   1   8
BRANCH   1  10
HETATM   10  C4  UNL     1      86.483  88.559 -39.449  1.00  0.00     0.231 C
HETATM   11  O1  UNL     1      85.782  88.756 -40.513  1.00  0.00    -0.273 OA
HETATM   12  N1  UNL     1      86.200  89.419 -38.377  1.00  0.00    -0.356 N
ATOM     13  H1  UNL     1      86.722  89.312 -37.507  1.00  0.00     0.162 HD
BRANCH  12  14
HETATM   14  C5  UNL     1      85.193  90.450 -38.470  1.00  0.00     0.084 A
HETATM   15  C6  UNL     1      85.111  91.524 -37.453  1.00  0.00     0.027 A
HETATM   16  C7  UNL     1      85.553  91.833 -38.900  1.00  0.00     0.027 A
ENDBRANCH  12  14
ENDBRANCH   1  10
TORSDOF 3
ENDMDL