MODEL 5
REMARK VINA RESULT: -3.642064841      2.813      3.246
REMARK  4 active torsions:
REMARK  status: ('A' for Active; 'I' for Inactive)
REMARK    1  A    between atoms: C2_2  and  C3_3
REMARK    2  A    between atoms: C3_3  and  C4_5
REMARK    3  A    between atoms: C5_6  and  O1_7
REMARK    4  A    between atoms: C6_9  and  C7_11
ROOT
HETATM    1  C4  UNL     1      87.430  87.802 -40.539  1.00  0.00     0.057 A
HETATM    2  C5  UNL     1      87.429  88.965 -39.674  1.00  0.00     0.145 A
HETATM    3  C6  UNL     1      86.163  88.194 -39.783  1.00  0.00     0.061 A
HETATM    4 BR1  UNL     1      85.664  87.134 -38.248  1.00  0.00    -0.081 Br
ENDROOT
BRANCH   1   5
HETATM    5  C3  UNL     1      87.915  86.441 -40.316  1.00  0.00     0.090 C
HETATM    6 CL1  UNL     1      87.688  85.551 -41.890  1.00  0.00    -0.124 Cl
BRANCH   5   7
HETATM    7  C2  UNL     1      89.299  86.165 -39.927  1.00  0.00     0.016 C
HETATM    8  C1  UNL     1      90.389  87.094 -40.283  1.00  0.00     0.006 C
ENDBRANCH   5   7
ENDBRANCH   1   5
BRANCH   2   9
HETATM    9  O1  UNL     1      87.988  89.040 -38.410  1.00  0.00    -0.393 OA
ATOM     10  H1  UNL     1      87.513  89.156 -37.595  1.00  0.00     0.210 HD
ENDBRANCH   2   9
BRANCH   3  11
HETATM   11  C7  UNL     1      85.034  88.608 -40.654  1.00  0.00     0.109 C
HETATM   12 BR2  UNL     1      84.689  90.484 -40.659  1.00  0.00    -0.095 Br
ENDBRANCH   3  11
TORSDOF 4
ENDMDL