MODEL 5
REMARK VINA RESULT: -4.899113182      1.325      1.495
REMARK  4 active torsions:
REMARK  status: ('A' for Active; 'I' for Inactive)
REMARK    1  A    between atoms: C2_2  and  C3_3
REMARK    2  A    between atoms: C3_3  and  C4_5
REMARK    3  A    between atoms: C4_5  and  N1_6
REMARK       I    between atoms: N1_6  and  C5_8
REMARK    4  A    between atoms: C5_8  and  C6_10
ROOT
HETATM    1  N1  UNL     1      91.403  96.216 -42.024  1.00  0.00    -0.335 N
ATOM      2  H1  UNL     1      90.784  96.087 -42.824  1.00  0.00     0.168 HD
HETATM    3  C5  UNL     1      91.719  97.563 -41.817  1.00  0.00     0.233 C
HETATM    4  O1  UNL     1      92.486  98.053 -40.955  1.00  0.00    -0.272 OA
ENDROOT
BRANCH   3   5
HETATM    5  C6  UNL     1      91.080  98.587 -42.725  1.00  0.00     0.075 A
HETATM    6  C7  UNL     1      89.987  98.007 -43.634  1.00  0.00     0.029 C
HETATM    7  C8  UNL     1      92.163  99.305 -43.566  1.00  0.00     0.065 A
HETATM    8  C9  UNL     1      91.250 100.047 -42.652  1.00  0.00     0.130 A
HETATM    9 CL1  UNL     1      90.087 101.087 -43.578  1.00  0.00    -0.100 Cl
HETATM   10 CL2  UNL     1      91.931 100.863 -41.230  1.00  0.00    -0.100 Cl
ENDBRANCH   3   5
BRANCH   1  11
HETATM   11  C4  UNL     1      91.718  95.020 -41.416  1.00  0.00     0.109 C
BRANCH  11  12
HETATM   12  C3  UNL     1      92.236  93.847 -42.082  1.00  0.00     0.022 C
HETATM   13 BR1  UNL     1      91.778  93.803 -44.021  1.00  0.00    -0.050 Br
BRANCH  12  14
HETATM   14  C2  UNL     1      92.914  92.840 -41.590  1.00  0.00    -0.011 C
HETATM   15  C1  UNL     1      94.393  92.962 -41.364  1.00  0.00     0.037 C
ENDBRANCH  12  14
ENDBRANCH  11  12
ENDBRANCH   1  11
TORSDOF 4
ENDMDL