MODEL 3
REMARK VINA RESULT: -4.727416241      2.382      2.806
REMARK  4 active torsions:
REMARK  status: ('A' for Active; 'I' for Inactive)
REMARK    1  A    between atoms: C2_2  and  C3_5
REMARK    2  A    between atoms: C5_8  and  C6_9
REMARK    3  A    between atoms: C6_9  and  N1_10
REMARK       I    between atoms: N1_10  and  C7_12
REMARK    4  A    between atoms: C7_12  and  C8_14
ROOT
HETATM    1  C3  UNL     1      89.518  98.145 -44.842  1.00  0.00     0.058 A
HETATM    2 BR1  UNL     1      88.644  97.424 -46.392  1.00  0.00    -0.082 Br
HETATM    3  C4  UNL     1      90.968  98.545 -45.092  1.00  0.00     0.032 A
HETATM    4  C5  UNL     1      90.608  97.440 -44.167  1.00  0.00     0.027 A
ENDROOT
BRANCH   4   5
HETATM    5  C6  UNL     1      90.936  96.032 -44.587  1.00  0.00     0.129 C
BRANCH   5   6
HETATM    6  N1  UNL     1      91.437  95.237 -43.497  1.00  0.00    -0.360 N
HETATM    7  C7  UNL     1      91.699  93.864 -43.590  1.00  0.00     0.221 C
HETATM    8  O1  UNL     1      91.499  93.241 -44.681  1.00  0.00    -0.273 OA
ATOM      9  H1  UNL     1      91.610  95.699 -42.605  1.00  0.00     0.162 HD
BRANCH   7  10
HETATM   10  C8  UNL     1      92.214  93.065 -42.462  1.00  0.00     0.078 A
HETATM   11  C9  UNL     1      92.829  93.761 -41.269  1.00  0.00     0.015 A
HETATM   12  C10 UNL     1      93.710  93.062 -42.224  1.00  0.00     0.015 A
ENDBRANCH   7  10
ENDBRANCH   5   6
ENDBRANCH   4   5
BRANCH   1  13
HETATM   13  C2  UNL     1      88.676  99.070 -43.991  1.00  0.00     0.127 C
HETATM   14  C1  UNL     1      87.243  98.614 -43.991  1.00  0.00     0.052 C
HETATM   15 CL1  UNL     1      89.357  99.134 -42.352  1.00  0.00    -0.100 Cl
HETATM   16 CL2  UNL     1      88.806 100.698 -44.725  1.00  0.00    -0.100 Cl
ENDBRANCH   1  13
TORSDOF 4
ENDMDL