MODEL 4
REMARK VINA RESULT: -8.847614691      2.499      8.044
REMARK  14 active torsions:
REMARK  status: ('A' for Active; 'I' for Inactive)
REMARK    1  A    between atoms: C2_2  and  C4_4
REMARK    2  A    between atoms: C4_4  and  C5_6
REMARK    3  A    between atoms: C5_6  and  O2_7
REMARK    4  A    between atoms: O2_7  and  C6_8
REMARK    5  A    between atoms: C10_13  and  O4_14
REMARK    6  A    between atoms: C15_21  and  C17_23
REMARK    7  A    between atoms: C17_23  and  C18_25
REMARK    8  A    between atoms: C19_26  and  C21_28
REMARK    9  A    between atoms: C21_28  and  C22_29
REMARK   10  A    between atoms: C22_29  and  C23_30
REMARK   11  A    between atoms: C28_35  and  O7_36
REMARK   12  A    between atoms: O7_36  and  C29_37
REMARK   13  A    between atoms: C29_37  and  C30_39
REMARK   14  A    between atoms: C30_39  and  C31_40
ROOT
HETATM    1  C5  UNL     1      27.105   9.482  -1.672  1.00  0.00     0.136 C
HETATM    2  C8  UNL     1      27.458   8.022  -1.550  1.00  0.00     0.050 C
HETATM    3  C9  UNL     1      27.961   7.391  -2.803  1.00  0.00     0.050 C
HETATM    4  C10 UNL     1      27.035   7.654  -3.987  1.00  0.00     0.125 C
HETATM    5  C11 UNL     1      27.652   6.970  -5.137  1.00  0.00     0.170 C
HETATM    6  O5  UNL     1      27.900   5.784  -4.878  1.00  0.00    -0.294 OA
HETATM    7  C12 UNL     1      28.006   7.475  -6.507  1.00  0.00     0.031 C
HETATM    8  C13 UNL     1      28.412   6.216  -7.304  1.00  0.00     0.024 C
HETATM    9  C14 UNL     1      29.214   8.330  -6.473  1.00  0.00     0.024 C
HETATM   10  C15 UNL     1      26.781   7.983  -7.145  1.00  0.00     0.037 C
HETATM   11  C16 UNL     1      25.668   6.980  -6.954  1.00  0.00     0.025 C
HETATM   12  C27 UNL     1      26.325   9.325  -6.643  1.00  0.00     0.051 C
HETATM   13  C28 UNL     1      25.788   9.351  -5.244  1.00  0.00     0.140 C
HETATM   14  C33 UNL     1      26.808   9.120  -4.167  1.00  0.00     0.060 C
HETATM   15  C34 UNL     1      26.185   9.630  -2.884  1.00  0.00     0.057 C
ENDROOT
BRANCH  10  16
HETATM   16  C17 UNL     1      27.028   8.165  -8.623  1.00  0.00     0.159 C
HETATM   17  O6  UNL     1      27.775   9.136  -8.923  1.00  0.00    -0.292 OA
BRANCH  16  18
HETATM   18  C18 UNL     1      26.467   7.320  -9.636  1.00  0.00     0.053 C
HETATM   19  C19 UNL     1      25.466   7.469 -10.425  1.00  0.00    -0.080 C
HETATM   20  C20 UNL     1      25.152   6.338 -11.396  1.00  0.00     0.043 C
BRANCH  19  21
HETATM   21  C21 UNL     1      24.555   8.606 -10.530  1.00  0.00     0.037 C
BRANCH  21  22
HETATM   22  C22 UNL     1      25.110   9.707 -11.422  1.00  0.00     0.031 C
BRANCH  22  23
HETATM   23  C23 UNL     1      25.347  10.933 -10.599  1.00  0.00    -0.024 C
HETATM   24  C24 UNL     1      25.954  12.003 -11.069  1.00  0.00    -0.091 C
HETATM   25  C25 UNL     1      26.154  13.177 -10.197  1.00  0.00     0.042 C
HETATM   26  C26 UNL     1      26.429  12.009 -12.468  1.00  0.00     0.042 C
ENDBRANCH  22  23
ENDBRANCH  21  22
ENDBRANCH  19  21
ENDBRANCH  16  18
ENDBRANCH  10  16
BRANCH  13  27
HETATM   27  O7  UNL     1      25.311  10.695  -5.064  1.00  0.00    -0.316 OA
BRANCH  27  28
HETATM   28  C29 UNL     1      24.487  11.259  -5.991  1.00  0.00     0.259 C
HETATM   29  O8  UNL     1      23.389  10.724  -6.262  1.00  0.00    -0.265 OA
BRANCH  28  30
HETATM   30  C30 UNL     1      24.855  12.508  -6.702  1.00  0.00     0.111 C
BRANCH  30  31
HETATM   31  C31 UNL     1      26.172  13.063  -6.226  1.00  0.00     0.005 C
HETATM   32  C32 UNL     1      26.024  14.182  -5.242  1.00  0.00     0.005 C
ENDBRANCH  30  31
ENDBRANCH  28  30
ENDBRANCH  27  28
ENDBRANCH  13  27
BRANCH   4  33
HETATM   33  O4  UNL     1      25.818   7.059  -3.672  1.00  0.00    -0.382 OA
ATOM     34  H4  UNL     1      25.144   7.635  -4.012  1.00  0.00     0.211 HD
ENDBRANCH   4  33
BRANCH   1  35
HETATM   35  C4  UNL     1      28.247  10.377  -1.752  1.00  0.00     0.189 C
HETATM   36  O1  UNL     1      29.381   9.883  -1.354  1.00  0.00    -0.289 OA
BRANCH  35  37
HETATM   37  C2  UNL     1      28.283  11.729  -2.215  1.00  0.00    -0.022 C
HETATM   38  C1  UNL     1      28.462  12.190  -3.421  1.00  0.00     0.022 C
HETATM   39  C3  UNL     1      28.025  12.819  -1.171  1.00  0.00     0.051 C
ENDBRANCH  35  37
ENDBRANCH   1  35
BRANCH   1  40
HETATM   40  O2  UNL     1      26.277   9.816  -0.581  1.00  0.00    -0.302 OA
BRANCH  40  41
HETATM   41  C6  UNL     1      26.716   9.912   0.738  1.00  0.00     0.256 C
HETATM   42  C7  UNL     1      26.510  11.125   1.559  1.00  0.00     0.126 C
HETATM   43  O3  UNL     1      27.305   8.926   1.230  1.00  0.00    -0.266 OA
ENDBRANCH  40  41
ENDBRANCH   1  40
TORSDOF 14
ENDMDL