MODEL 1
REMARK VINA RESULT: -8.156142314      0.000      0.000
REMARK  15 active torsions:
REMARK  status: ('A' for Active; 'I' for Inactive)
REMARK    1  A    between atoms: C2_2  and  C4_4
REMARK    2  A    between atoms: C4_4  and  C5_5
REMARK    3  A    between atoms: C8_9  and  C9_10
REMARK    4  A    between atoms: C9_10  and  C10_11
REMARK    5  A    between atoms: C10_11  and  C11_12
REMARK    6  A    between atoms: C11_12  and  C12_14
REMARK    7  A    between atoms: C14_16  and  O2_17
REMARK    8  A    between atoms: O2_17  and  C15_18
REMARK    9  A    between atoms: C15_18  and  C16_20
REMARK   10  A    between atoms: C16_20  and  C17_21
REMARK   11  A    between atoms: C19_23  and  O4_24
REMARK   12  A    between atoms: O4_24  and  C20_25
REMARK   13  A    between atoms: C22_28  and  O6_29
REMARK   14  A    between atoms: O6_29  and  C23_30
REMARK   15  A    between atoms: C25_33  and  O8_34
ROOT
HETATM    1  C12 UNL     1      26.214   4.933  -7.236  1.00  0.00     0.089 C
HETATM    2  C13 UNL     1      25.285   5.963  -7.808  1.00  0.00     0.050 C
HETATM    3  C14 UNL     1      25.910   7.119  -8.484  1.00  0.00     0.165 C
HETATM    4  C19 UNL     1      27.292   7.493  -8.155  1.00  0.00     0.193 C
HETATM    5  C22 UNL     1      27.970   6.559  -7.140  1.00  0.00     0.193 C
HETATM    6  C25 UNL     1      27.661   5.186  -7.651  1.00  0.00     0.161 C
ENDROOT
BRANCH   1   7
HETATM    7  C11 UNL     1      26.155   4.926  -5.759  1.00  0.00     0.133 C
HETATM    8  O1  UNL     1      26.939   4.268  -5.100  1.00  0.00    -0.297 OA
BRANCH   7   9
HETATM    9  C10 UNL     1      25.122   5.737  -5.004  1.00  0.00     0.079 C
BRANCH   9  10
HETATM   10  C9  UNL     1      25.843   6.432  -3.895  1.00  0.00     0.018 C
BRANCH  10  11
HETATM   11  C8  UNL     1      26.810   7.486  -4.206  1.00  0.00     0.033 C
HETATM   12  C6  UNL     1      26.417   8.870  -3.926  1.00  0.00     0.020 C
HETATM   13  S1  UNL     1      26.419   9.235  -2.122  1.00  0.00    -0.148 SA
HETATM   14  C7  UNL     1      25.127   9.375  -4.494  1.00  0.00     0.028 C
HETATM   15  C30 UNL     1      27.510   9.853  -4.359  1.00  0.00     0.034 C
HETATM   16  C5  UNL     1      27.025  10.935  -2.204  1.00  0.00     0.080 C
HETATM   17  C31 UNL     1      27.311  11.112  -3.650  1.00  0.00    -0.069 C
HETATM   18  C32 UNL     1      27.374  12.325  -4.205  1.00  0.00     0.016 C
HETATM   19  C29 UNL     1      28.880   9.310  -4.400  1.00  0.00     0.015 C
HETATM   20  C28 UNL     1      29.173   8.154  -3.521  1.00  0.00     0.034 C
HETATM   21  C26 UNL     1      28.062   7.200  -3.402  1.00  0.00    -0.084 C
HETATM   22  C27 UNL     1      28.222   6.167  -2.609  1.00  0.00     0.015 C
BRANCH  16  23
HETATM   23  C4  UNL     1      28.172  11.240  -1.327  1.00  0.00     0.052 C
BRANCH  23  24
HETATM   24  C2  UNL     1      27.963  12.414  -0.458  1.00  0.00    -0.092 C
HETATM   25  C1  UNL     1      27.945  13.658  -0.886  1.00  0.00     0.014 C
HETATM   26  C3  UNL     1      27.733  12.242   1.027  1.00  0.00     0.042 C
ENDBRANCH  23  24
ENDBRANCH  16  23
ENDBRANCH  10  11
ENDBRANCH   9  10
ENDBRANCH   7   9
ENDBRANCH   1   7
BRANCH   6  27
HETATM   27  O8  UNL     1      27.611   5.165  -9.070  1.00  0.00    -0.392 OA
ATOM     28  H8  UNL     1      27.528   6.082  -9.304  1.00  0.00     0.210 HD
ENDBRANCH   6  27
BRANCH   3  29
HETATM   29  O2  UNL     1      25.077   8.263  -8.217  1.00  0.00    -0.313 OA
BRANCH  29  30
HETATM   30  C15 UNL     1      24.337   8.901  -9.195  1.00  0.00     0.259 C
HETATM   31  O3  UNL     1      23.932  10.065  -8.903  1.00  0.00    -0.265 OA
BRANCH  30  32
HETATM   32  C16 UNL     1      24.037   8.268 -10.506  1.00  0.00     0.111 C
BRANCH  32  33
HETATM   33  C17 UNL     1      25.091   8.757 -11.485  1.00  0.00     0.005 C
HETATM   34  C18 UNL     1      25.542   7.656 -12.413  1.00  0.00     0.005 C
ENDBRANCH  32  33
ENDBRANCH  30  32
ENDBRANCH  29  30
ENDBRANCH   3  29
BRANCH   5  35
HETATM   35  O6  UNL     1      29.299   6.915  -7.073  1.00  0.00    -0.311 OA
BRANCH  35  36
HETATM   36  C23 UNL     1      30.271   6.731  -8.042  1.00  0.00     0.255 C
HETATM   37  C24 UNL     1      31.308   7.715  -8.392  1.00  0.00     0.126 C
HETATM   38  O7  UNL     1      30.229   5.648  -8.633  1.00  0.00    -0.266 OA
ENDBRANCH  35  36
ENDBRANCH   5  35
BRANCH   4  39
HETATM   39  O4  UNL     1      27.493   8.844  -7.819  1.00  0.00    -0.311 OA
BRANCH  39  40
HETATM   40  C20 UNL     1      27.855   9.838  -8.713  1.00  0.00     0.255 C
HETATM   41  C21 UNL     1      27.213  11.172  -8.752  1.00  0.00     0.126 C
HETATM   42  O5  UNL     1      28.786   9.532  -9.505  1.00  0.00    -0.266 OA
ENDBRANCH  39  40
ENDBRANCH   4  39
TORSDOF 15
ENDMDL