MODEL 2
REMARK VINA RESULT: -8.463091401      2.744      8.463
REMARK  15 active torsions:
REMARK  status: ('A' for Active; 'I' for Inactive)
REMARK    1  A    between atoms: C2_2  and  O2_4
REMARK    2  A    between atoms: O2_4  and  C3_5
REMARK    3  A    between atoms: C3_5  and  C4_6
REMARK    4  A    between atoms: C4_6  and  C5_7
REMARK    5  A    between atoms: C5_7  and  C6_8
REMARK    6  A    between atoms: C6_8  and  C7_9
REMARK    7  A    between atoms: C6_8  and  O4_18
REMARK    8  A    between atoms: C7_9  and  C8_10
REMARK    9  A    between atoms: C8_10  and  C10_12
REMARK   10  A    between atoms: C10_12  and  C11_13
REMARK   11  A    between atoms: C11_13  and  C12_15
REMARK   12  A    between atoms: O4_18  and  C15_19
REMARK   13  A    between atoms: C19_24  and  O6_25
REMARK   14  A    between atoms: C24_31  and  O7_32
REMARK   15  A    between atoms: O7_32  and  C25_33
ROOT
HETATM    1  C4  UNL     1      26.719   8.611  -8.372  1.00  0.00    -0.006 C
HETATM    2  C17 UNL     1      27.878   9.541  -8.576  1.00  0.00     0.016 C
HETATM    3  C18 UNL     1      27.355  10.884  -9.033  1.00  0.00     0.040 C
HETATM    4  C19 UNL     1      25.896  10.866  -8.751  1.00  0.00     0.073 C
HETATM    5  C20 UNL     1      25.531  12.093  -7.965  1.00  0.00    -0.008 C
HETATM    6  C21 UNL     1      25.435  13.198  -9.039  1.00  0.00     0.019 C
HETATM    7  C22 UNL     1      26.542  12.570  -6.990  1.00  0.00     0.015 C
HETATM    8  C23 UNL     1      26.012  13.068  -5.686  1.00  0.00     0.034 C
HETATM    9  C24 UNL     1      24.756  13.842  -5.715  1.00  0.00     0.140 C
HETATM   10  C27 UNL     1      23.720  13.127  -6.516  1.00  0.00    -0.016 C
HETATM   11  C28 UNL     1      22.977  14.145  -7.407  1.00  0.00     0.018 C
HETATM   12  C29 UNL     1      22.593  12.605  -5.599  1.00  0.00     0.018 C
HETATM   13  C30 UNL     1      24.164  11.956  -7.336  1.00  0.00     0.007 C
HETATM   14  C31 UNL     1      23.944  10.662  -6.635  1.00  0.00     0.007 C
HETATM   15  C32 UNL     1      25.086   9.674  -6.751  1.00  0.00     0.013 C
HETATM   16  C33 UNL     1      25.534   9.548  -8.179  1.00  0.00    -0.003 C
HETATM   17  C34 UNL     1      24.330   8.975  -8.907  1.00  0.00     0.019 C
ENDROOT
BRANCH   1  18
HETATM   18  C3  UNL     1      26.606   7.833  -9.690  1.00  0.00     0.189 C
BRANCH  18  19
HETATM   19  O2  UNL     1      26.949   6.505  -9.629  1.00  0.00    -0.321 OA
BRANCH  19  20
HETATM   20  C2  UNL     1      26.249   5.601 -10.412  1.00  0.00     0.254 C
HETATM   21  C1  UNL     1      25.052   6.042 -11.183  1.00  0.00     0.126 C
HETATM   22  O1  UNL     1      26.634   4.412 -10.462  1.00  0.00    -0.266 OA
ENDBRANCH  19  20
ENDBRANCH  18  19
ENDBRANCH   1  18
BRANCH   1  23
HETATM   23  C5  UNL     1      26.924   7.718  -7.230  1.00  0.00     0.045 C
BRANCH  23  24
HETATM   24  C6  UNL     1      28.253   7.408  -6.651  1.00  0.00     0.133 C
BRANCH  24  25
HETATM   25  C7  UNL     1      28.901   8.345  -5.744  1.00  0.00     0.037 C
BRANCH  25  26
HETATM   26  C8  UNL     1      28.224   8.712  -4.451  1.00  0.00    -0.009 C
HETATM   27  C9  UNL     1      28.862   8.230  -3.196  1.00  0.00     0.010 C
BRANCH  26  28
HETATM   28  C10 UNL     1      27.885  10.193  -4.396  1.00  0.00     0.083 C
BRANCH  28  29
HETATM   29  C11 UNL     1      27.048  10.531  -3.216  1.00  0.00     0.130 C
HETATM   30  O3  UNL     1      26.032   9.906  -2.981  1.00  0.00    -0.298 OA
BRANCH  29  31
HETATM   31  C12 UNL     1      27.449  11.650  -2.295  1.00  0.00     0.047 C
HETATM   32  C13 UNL     1      27.921  11.015  -0.999  1.00  0.00     0.017 C
HETATM   33  C14 UNL     1      28.511  12.504  -2.912  1.00  0.00     0.017 C
ENDBRANCH  29  31
ENDBRANCH  28  29
ENDBRANCH  26  28
ENDBRANCH  25  26
ENDBRANCH  24  25
BRANCH  24  34
HETATM   34  O4  UNL     1      28.105   6.136  -6.014  1.00  0.00    -0.316 OA
BRANCH  34  35
HETATM   35  C15 UNL     1      27.942   4.990  -6.742  1.00  0.00     0.255 C
HETATM   36  C16 UNL     1      26.682   4.226  -6.684  1.00  0.00     0.126 C
HETATM   37  O5  UNL     1      28.872   4.589  -7.462  1.00  0.00    -0.266 OA
ENDBRANCH  34  35
ENDBRANCH  24  34
ENDBRANCH  23  24
ENDBRANCH   1  23
BRANCH   4  38
HETATM   38  O6  UNL     1      25.246  10.956 -10.013  1.00  0.00    -0.388 OA
ATOM     39  H6  UNL     1      24.464  10.420  -9.947  1.00  0.00     0.210 HD
ENDBRANCH   4  38
BRANCH   9  40
HETATM   40  O7  UNL     1      24.805  15.168  -6.095  1.00  0.00    -0.316 OA
BRANCH  40  41
HETATM   41  C25 UNL     1      24.761  16.231  -5.243  1.00  0.00     0.255 C
HETATM   42  C26 UNL     1      23.502  16.926  -4.890  1.00  0.00     0.126 C
HETATM   43  O8  UNL     1      25.849  16.566  -4.789  1.00  0.00    -0.266 OA
ENDBRANCH  40  41
ENDBRANCH   9  40
TORSDOF 15
ENDMDL