MODEL 5
REMARK VINA RESULT: -6.373686306      1.408      1.899
REMARK  17 active torsions:
REMARK  status: ('A' for Active; 'I' for Inactive)
REMARK    1  A    between atoms: C2_2  and  O2_4
REMARK    2  A    between atoms: O2_4  and  C3_5
REMARK    3  A    between atoms: C9_11  and  O3_12
REMARK    4  A    between atoms: O3_12  and  C10_13
REMARK    5  A    between atoms: C12_16  and  O5_17
REMARK    6  A    between atoms: O5_17  and  C13_18
REMARK    7  A    between atoms: C16_22  and  C18_24
REMARK    8  A    between atoms: C18_24  and  C19_25
REMARK    9  A    between atoms: C19_25  and  C20_26
REMARK   10  A    between atoms: C20_26  and  C21_27
REMARK   11  A    between atoms: C24_30  and  C25_31
REMARK   12  A    between atoms: C26_32  and  C27_33
REMARK   13  A    between atoms: C27_33  and  O7_35
REMARK   14  A    between atoms: C27_33  and  C31_39
REMARK   15  A    between atoms: O7_35  and  C29_36
REMARK   16  A    between atoms: C31_39  and  C33_41
REMARK   17  A    between atoms: C33_41  and  O9_42
ROOT
HETATM    1  C3  UNL     1      28.506   9.196  -5.065  1.00  0.00     0.140 C
HETATM    2  C4  UNL     1      29.465   8.276  -5.783  1.00  0.00     0.038 C
HETATM    3  C5  UNL     1      29.121   8.137  -7.241  1.00  0.00    -0.001 C
HETATM    4  C6  UNL     1      30.105   7.209  -7.909  1.00  0.00     0.011 C
HETATM    5  C7  UNL     1      27.684   7.722  -7.416  1.00  0.00     0.013 C
HETATM    6  C8  UNL     1      27.645   6.966  -8.743  1.00  0.00     0.023 C
HETATM    7  C9  UNL     1      27.320   6.721  -6.377  1.00  0.00     0.174 C
HETATM    8  C12 UNL     1      26.822   7.357  -5.102  1.00  0.00     0.170 C
HETATM    9  C15 UNL     1      27.087   8.806  -5.166  1.00  0.00     0.060 C
HETATM   10  C16 UNL     1      26.303   9.535  -6.282  1.00  0.00    -0.011 C
HETATM   11  C17 UNL     1      26.791  11.000  -6.167  1.00  0.00     0.021 C
HETATM   12  C24 UNL     1      26.765   8.909  -7.527  1.00  0.00    -0.060 C
ENDROOT
BRANCH  12  13
HETATM   13  C25 UNL     1      25.771   8.718  -8.638  1.00  0.00     0.003 C
HETATM   14  C26 UNL     1      25.790   9.426  -9.753  1.00  0.00     0.012 C
BRANCH  14  15
HETATM   15  C27 UNL     1      24.975   9.444 -10.938  1.00  0.00     0.090 C
HETATM   16  C28 UNL     1      23.651  10.112 -10.584  1.00  0.00     0.051 C
BRANCH  15  17
HETATM   17  O7  UNL     1      25.570  10.011 -12.041  1.00  0.00    -0.306 OA
BRANCH  17  18
HETATM   18  C29 UNL     1      25.585  11.263 -12.534  1.00  0.00     0.255 C
HETATM   19  C30 UNL     1      26.265  12.430 -11.896  1.00  0.00     0.126 C
HETATM   20  O8  UNL     1      24.988  11.480 -13.608  1.00  0.00    -0.266 OA
ENDBRANCH  17  18
ENDBRANCH  15  17
BRANCH  15  21
HETATM   21  C31 UNL     1      24.683   7.982 -11.327  1.00  0.00     0.044 C
HETATM   22  C32 UNL     1      23.229   7.627 -11.008  1.00  0.00     0.015 C
BRANCH  21  23
HETATM   23  C33 UNL     1      24.949   7.682 -12.759  1.00  0.00     0.171 C
BRANCH  23  24
HETATM   24  O9  UNL     1      26.219   7.243 -13.069  1.00  0.00    -0.400 OA
ATOM     25  H9  UNL     1      26.539   7.454 -13.939  1.00  0.00     0.209 HD
ENDBRANCH  23  24
ENDBRANCH  21  23
ENDBRANCH  15  21
ENDBRANCH  14  15
ENDBRANCH  12  13
BRANCH  10  26
HETATM   26  C18 UNL     1      24.873   9.455  -5.846  1.00  0.00     0.014 C
BRANCH  26  27
HETATM   27  C19 UNL     1      24.073  10.648  -5.621  1.00  0.00     0.001 C
BRANCH  27  28
HETATM   28  C20 UNL     1      23.242  11.189  -6.747  1.00  0.00     0.004 C
BRANCH  28  29
HETATM   29  C21 UNL     1      23.265  12.615  -7.082  1.00  0.00    -0.023 C
HETATM   30  C22 UNL     1      24.368  12.855  -8.183  1.00  0.00     0.009 C
HETATM   31  C23 UNL     1      23.674  13.486  -5.898  1.00  0.00     0.009 C
ENDBRANCH  28  29
ENDBRANCH  27  28
ENDBRANCH  26  27
ENDBRANCH  10  26
BRANCH   7  32
HETATM   32  O3  UNL     1      26.414   5.734  -6.850  1.00  0.00    -0.312 OA
BRANCH  32  33
HETATM   33  C10 UNL     1      26.646   4.369  -6.761  1.00  0.00     0.255 C
HETATM   34  C11 UNL     1      27.579   3.633  -7.642  1.00  0.00     0.126 C
HETATM   35  O4  UNL     1      25.984   3.769  -5.847  1.00  0.00    -0.266 OA
ENDBRANCH  32  33
ENDBRANCH   7  32
BRANCH   8  36
HETATM   36  O5  UNL     1      27.512   6.820  -3.974  1.00  0.00    -0.313 OA
BRANCH  36  37
HETATM   37  C13 UNL     1      26.910   6.567  -2.761  1.00  0.00     0.255 C
HETATM   38  C14 UNL     1      25.433   6.753  -2.623  1.00  0.00     0.126 C
HETATM   39  O6  UNL     1      27.612   6.190  -1.809  1.00  0.00    -0.266 OA
ENDBRANCH  36  37
ENDBRANCH   8  36
BRANCH   1  40
HETATM   40  O2  UNL     1      28.966   9.261  -3.710  1.00  0.00    -0.316 OA
BRANCH  40  41
HETATM   41  C2  UNL     1      28.442  10.159  -2.795  1.00  0.00     0.255 C
HETATM   42  C1  UNL     1      28.031   9.691  -1.445  1.00  0.00     0.126 C
HETATM   43  O1  UNL     1      28.314  11.374  -3.107  1.00  0.00    -0.266 OA
ENDBRANCH  40  41
ENDBRANCH   1  40
TORSDOF 17
ENDMDL