MODEL 1
REMARK VINA RESULT: -8.739810045      0.000      0.000
REMARK  16 active torsions:
REMARK  status: ('A' for Active; 'I' for Inactive)
REMARK    1  A    between atoms: C4_5  and  C6_7
REMARK    2  A    between atoms: C8_9  and  O2_10
REMARK    3  A    between atoms: C9_12  and  C11_14
REMARK    4  A    between atoms: C11_14  and  C12_15
REMARK    5  A    between atoms: C12_15  and  C13_16
REMARK    6  A    between atoms: C13_16  and  C14_17
REMARK    7  A    between atoms: C14_17  and  C16_19
REMARK    8  A    between atoms: C16_19  and  C17_20
REMARK    9  A    between atoms: C18_21  and  C19_22
REMARK   10  A    between atoms: C19_22  and  C21_24
REMARK   11  A    between atoms: C21_24  and  O4_26
REMARK   12  A    between atoms: C24_29  and  O5_30
REMARK   13  A    between atoms: O5_30  and  C25_31
REMARK   14  A    between atoms: C28_35  and  O7_36
REMARK   15  A    between atoms: O7_36  and  C29_37
REMARK   16  A    between atoms: C29_37  and  C30_39
ROOT
HETATM    1  C1  UNL     1      25.789   6.295  -4.394  1.00  0.00     0.023 C
HETATM    2  C2  UNL     1      26.412   6.651  -5.498  1.00  0.00    -0.014 C
HETATM    3  C3  UNL     1      26.537   5.652  -6.535  1.00  0.00     0.166 C
HETATM    4  O1  UNL     1      26.639   4.483  -6.031  1.00  0.00    -0.292 OA
HETATM    5  C4  UNL     1      26.568   5.709  -7.967  1.00  0.00     0.048 C
HETATM    6  C5  UNL     1      25.143   5.319  -8.437  1.00  0.00     0.026 C
HETATM    7  C8  UNL     1      26.950   6.942  -8.680  1.00  0.00     0.142 C
HETATM    8  C9  UNL     1      26.873   8.253  -8.038  1.00  0.00    -0.010 C
HETATM    9  C10 UNL     1      25.422   8.699  -7.799  1.00  0.00     0.018 C
HETATM   10  C23 UNL     1      27.600   8.430  -6.766  1.00  0.00     0.037 C
HETATM   11  C24 UNL     1      28.939   7.801  -6.607  1.00  0.00     0.140 C
HETATM   12  C27 UNL     1      29.282   8.360  -5.185  1.00  0.00     0.066 C
HETATM   13  C28 UNL     1      27.985   8.151  -4.482  1.00  0.00     0.143 C
HETATM   14  C34 UNL     1      26.897   8.032  -5.523  1.00  0.00     0.058 C
ENDROOT
BRANCH   8  15
HETATM   15  C11 UNL     1      27.416   9.310  -8.972  1.00  0.00     0.012 C
BRANCH  15  16
HETATM   16  C12 UNL     1      26.575  10.504  -9.231  1.00  0.00     0.001 C
BRANCH  16  17
HETATM   17  C13 UNL     1      27.355  11.663  -8.538  1.00  0.00     0.004 C
BRANCH  17  18
HETATM   18  C14 UNL     1      26.481  12.435  -7.616  1.00  0.00    -0.015 C
HETATM   19  C15 UNL     1      25.038  12.354  -8.131  1.00  0.00     0.010 C
BRANCH  18  20
HETATM   20  C16 UNL     1      26.542  11.969  -6.203  1.00  0.00     0.031 C
BRANCH  20  21
HETATM   21  C17 UNL     1      26.301  13.186  -5.348  1.00  0.00    -0.029 C
HETATM   22  C18 UNL     1      27.281  13.723  -4.664  1.00  0.00    -0.017 C
BRANCH  22  23
HETATM   23  C19 UNL     1      27.071  14.914  -3.821  1.00  0.00     0.104 C
HETATM   24  C20 UNL     1      26.432  16.056  -4.592  1.00  0.00     0.025 C
BRANCH  23  25
HETATM   25  C21 UNL     1      28.375  15.418  -3.301  1.00  0.00     0.265 C
HETATM   26  O3  UNL     1      29.377  14.682  -3.429  1.00  0.00    -0.265 OA
BRANCH  25  27
HETATM   27  O4  UNL     1      28.533  16.644  -2.693  1.00  0.00    -0.326 OA
HETATM   28  C22 UNL     1      29.543  17.569  -3.118  1.00  0.00     0.213 C
ENDBRANCH  25  27
ENDBRANCH  23  25
ENDBRANCH  22  23
ENDBRANCH  20  21
ENDBRANCH  18  20
ENDBRANCH  17  18
ENDBRANCH  16  17
ENDBRANCH  15  16
ENDBRANCH   8  15
BRANCH   7  29
HETATM   29  O2  UNL     1      26.086   6.996  -9.816  1.00  0.00    -0.394 OA
ATOM     30  H2  UNL     1      26.607   6.667 -10.538  1.00  0.00     0.210 HD
ENDBRANCH   7  29
BRANCH   5  31
HETATM   31  C6  UNL     1      27.437   4.582  -8.502  1.00  0.00     0.015 C
HETATM   32  C7  UNL     1      27.010   4.020  -9.806  1.00  0.00     0.006 C
ENDBRANCH   5  31
BRANCH  11  33
HETATM   33  O5  UNL     1      29.915   8.310  -7.496  1.00  0.00    -0.316 OA
BRANCH  33  34
HETATM   34  C25 UNL     1      30.682   7.469  -8.251  1.00  0.00     0.255 C
HETATM   35  C26 UNL     1      31.888   7.920  -9.002  1.00  0.00     0.126 C
HETATM   36  O6  UNL     1      30.392   6.259  -8.339  1.00  0.00    -0.266 OA
ENDBRANCH  33  34
ENDBRANCH  11  33
BRANCH  13  37
HETATM   37  O7  UNL     1      27.681   9.186  -3.566  1.00  0.00    -0.311 OA
BRANCH  37  38
HETATM   38  C29 UNL     1      27.864   9.130  -2.217  1.00  0.00     0.289 C
HETATM   39  O8  UNL     1      28.151   8.035  -1.684  1.00  0.00    -0.260 OA
BRANCH  38  40
HETATM   40  C30 UNL     1      27.741  10.301  -1.331  1.00  0.00     0.009 C
HETATM   41  C31 UNL     1      27.295  10.118   0.082  1.00  0.00     0.054 C
HETATM   42  C32 UNL     1      28.005  11.513  -1.743  1.00  0.00    -0.018 C
HETATM   43  C33 UNL     1      27.873  12.666  -0.834  1.00  0.00     0.036 C
ENDBRANCH  38  40
ENDBRANCH  37  38
ENDBRANCH  13  37
TORSDOF 16
ENDMDL