MODEL 1
REMARK VINA RESULT: -8.467412697      0.000      0.000
REMARK  13 active torsions:
REMARK  status: ('A' for Active; 'I' for Inactive)
REMARK    1  A    between atoms: C2_2  and  C3_3
REMARK    2  A    between atoms: C3_3  and  C4_4
REMARK    3  A    between atoms: C4_4  and  O2_6
REMARK    4  A    between atoms: O2_6  and  C5_7
REMARK    5  A    between atoms: C14_18  and  O5_19
REMARK    6  A    between atoms: O5_19  and  C15_20
REMARK    7  A    between atoms: C15_20  and  C16_21
REMARK    8  A    between atoms: C16_21  and  O6_22
REMARK    9  A    between atoms: C16_21  and  C17_24
REMARK   10  A    between atoms: C17_24  and  C18_25
REMARK   11  A    between atoms: C18_25  and  C19_26
REMARK   12  A    between atoms: C19_26  and  C21_28
REMARK   13  A    between atoms: C21_28  and  C23_30
ROOT
HETATM    1  C5  UNL     1      26.939   9.007  -6.398  1.00  0.00     0.152 C
HETATM    2  C6  UNL     1      27.442   7.760  -7.155  1.00  0.00    -0.017 C
HETATM    3  C7  UNL     1      28.650   8.045  -7.982  1.00  0.00     0.018 C
HETATM    4  C8  UNL     1      26.358   7.279  -8.119  1.00  0.00     0.018 C
HETATM    5  C9  UNL     1      27.744   6.757  -6.090  1.00  0.00     0.051 C
HETATM    6  C10 UNL     1      27.253   7.368  -4.786  1.00  0.00     0.086 C
HETATM    7  O3  UNL     1      28.127   6.944  -3.738  1.00  0.00    -0.303 OA
HETATM    8  C11 UNL     1      28.202   7.481  -2.433  1.00  0.00     0.318 C
HETATM    9  O4  UNL     1      28.456   6.683  -1.503  1.00  0.00    -0.257 OA
HETATM   10  C12 UNL     1      28.016   8.857  -2.051  1.00  0.00     0.151 C
HETATM   11  C13 UNL     1      27.409   9.842  -2.749  1.00  0.00     0.003 C
HETATM   12  C14 UNL     1      27.481  11.071  -1.940  1.00  0.00     0.188 C
HETATM   13  C25 UNL     1      27.590  10.481  -0.517  1.00  0.00     0.091 C
HETATM   14  C26 UNL     1      28.138  11.433   0.473  1.00  0.00     0.049 C
HETATM   15  C27 UNL     1      26.285   9.887  -0.059  1.00  0.00     0.049 C
HETATM   16  O7  UNL     1      28.459   9.386  -0.838  1.00  0.00    -0.332 OA
HETATM   17  C28 UNL     1      26.758   9.746  -4.063  1.00  0.00     0.103 C
HETATM   18  C29 UNL     1      25.343   9.286  -3.954  1.00  0.00     0.136 C
HETATM   19  O8  UNL     1      24.482  10.151  -3.883  1.00  0.00    -0.297 OA
HETATM   20  C30 UNL     1      24.935   7.885  -3.927  1.00  0.00     0.086 C
HETATM   21  C31 UNL     1      25.875   6.908  -4.489  1.00  0.00     0.025 C
HETATM   22  C32 UNL     1      25.980   5.717  -3.519  1.00  0.00     0.013 C
HETATM   23  C33 UNL     1      27.447   8.814  -5.004  1.00  0.00     0.030 C
HETATM   24  C34 UNL     1      28.921   9.166  -5.017  1.00  0.00     0.022 C
ENDROOT
BRANCH  12  25
HETATM   25  O5  UNL     1      28.554  11.864  -2.203  1.00  0.00    -0.376 OA
BRANCH  25  26
HETATM   26  C15 UNL     1      28.482  12.883  -3.069  1.00  0.00     0.200 C
BRANCH  26  27
HETATM   27  C16 UNL     1      28.645  14.257  -2.467  1.00  0.00     0.142 C
BRANCH  27  28
HETATM   28  O6  UNL     1      28.183  14.255  -1.126  1.00  0.00    -0.393 OA
ATOM     29  H6  UNL     1      27.502  14.907  -1.017  1.00  0.00     0.210 HD
ENDBRANCH  27  28
BRANCH  27  30
HETATM   30  C17 UNL     1      27.820  15.303  -3.222  1.00  0.00     0.034 C
BRANCH  30  31
HETATM   31  C18 UNL     1      28.558  15.965  -4.332  1.00  0.00     0.007 C
BRANCH  31  32
HETATM   32  C19 UNL     1      28.756  17.443  -4.032  1.00  0.00    -0.015 C
HETATM   33  C20 UNL     1      28.084  18.299  -5.095  1.00  0.00     0.010 C
BRANCH  32  34
HETATM   34  C21 UNL     1      30.221  17.758  -4.031  1.00  0.00    -0.015 C
HETATM   35  C22 UNL     1      30.711  18.201  -2.678  1.00  0.00     0.010 C
BRANCH  34  36
HETATM   36  C23 UNL     1      31.090  16.653  -4.565  1.00  0.00    -0.000 C
HETATM   37  C24 UNL     1      31.983  17.190  -5.648  1.00  0.00     0.005 C
ENDBRANCH  34  36
ENDBRANCH  32  34
ENDBRANCH  31  32
ENDBRANCH  30  31
ENDBRANCH  27  30
ENDBRANCH  26  27
ENDBRANCH  25  26
ENDBRANCH  12  25
BRANCH   1  38
HETATM   38  O2  UNL     1      27.403  10.181  -7.036  1.00  0.00    -0.314 OA
BRANCH  38  39
HETATM   39  C4  UNL     1      26.526  11.104  -7.607  1.00  0.00     0.259 C
HETATM   40  O1  UNL     1      26.557  11.149  -8.867  1.00  0.00    -0.265 OA
BRANCH  39  41
HETATM   41  C3  UNL     1      25.612  11.987  -6.894  1.00  0.00     0.111 C
BRANCH  41  42
HETATM   42  C2  UNL     1      26.264  12.924  -5.918  1.00  0.00     0.005 C
HETATM   43  C1  UNL     1      25.363  14.122  -5.728  1.00  0.00     0.005 C
ENDBRANCH  41  42
ENDBRANCH  39  41
ENDBRANCH  38  39
ENDBRANCH   1  38
TORSDOF 13
ENDMDL