MODEL 3
REMARK VINA RESULT: -6.306525689      2.662      6.969
REMARK  15 active torsions:
REMARK  status: ('A' for Active; 'I' for Inactive)
REMARK    1  A    between atoms: C2_2  and  C3_3
REMARK    2  A    between atoms: C6_6  and  O1_7
REMARK    3  A    between atoms: O1_7  and  C7_8
REMARK    4  A    between atoms: C7_8  and  C8_10
REMARK    5  A    between atoms: C11_13  and  C12_14
REMARK    6  A    between atoms: C12_14  and  C13_15
REMARK    7  A    between atoms: C12_14  and  C17_19
REMARK    8  A    between atoms: C13_15  and  C14_16
REMARK    9  A    between atoms: C14_16  and  C15_17
REMARK   10  A    between atoms: C22_24  and  O3_25
REMARK   11  A    between atoms: O3_25  and  C23_26
REMARK   12  A    between atoms: C23_26  and  C24_28
REMARK   13  A    between atoms: C30_35  and  O6_36
REMARK   14  A    between atoms: C33_40  and  O7_41
REMARK   15  A    between atoms: O7_41  and  C34_42
ROOT
HETATM    1  C3  UNL     1      23.000  10.617 -10.325  1.00  0.00     0.003 C
HETATM    2  C4  UNL     1      22.585   9.140 -10.141  1.00  0.00     0.022 C
HETATM    3  C5  UNL     1      22.464  11.342  -9.198  1.00  0.00     0.053 C
HETATM    4  C6  UNL     1      23.279  11.328  -7.891  1.00  0.00     0.163 C
HETATM    5  C11 UNL     1      24.621  11.924  -7.996  1.00  0.00    -0.033 C
HETATM    6  C20 UNL     1      25.706  10.924  -8.294  1.00  0.00     0.038 C
HETATM    7  C21 UNL     1      26.996  11.709  -8.649  1.00  0.00     0.028 C
HETATM    8  C22 UNL     1      26.177   9.950  -7.269  1.00  0.00     0.078 C
HETATM    9  C28 UNL     1      27.191   8.989  -7.820  1.00  0.00    -0.008 C
HETATM   10  C29 UNL     1      28.264   8.673  -7.188  1.00  0.00     0.024 C
HETATM   11  C30 UNL     1      26.991   8.363  -9.130  1.00  0.00     0.153 C
HETATM   12  C31 UNL     1      26.460   9.331 -10.126  1.00  0.00     0.045 C
HETATM   13  C32 UNL     1      25.303  10.092  -9.479  1.00  0.00     0.038 C
HETATM   14  C33 UNL     1      24.484  10.650 -10.572  1.00  0.00     0.148 C
ENDROOT
BRANCH   5  15
HETATM   15  C12 UNL     1      24.977  13.182  -7.304  1.00  0.00    -0.070 C
BRANCH  15  16
HETATM   16  C13 UNL     1      25.010  13.169  -5.801  1.00  0.00     0.035 C
BRANCH  16  17
HETATM   17  C14 UNL     1      26.399  13.026  -5.206  1.00  0.00     0.004 C
BRANCH  17  18
HETATM   18  C15 UNL     1      26.886  14.366  -4.667  1.00  0.00    -0.004 C
HETATM   19  C16 UNL     1      27.790  14.054  -3.490  1.00  0.00     0.005 C
ENDBRANCH  17  18
ENDBRANCH  16  17
ENDBRANCH  15  16
BRANCH  15  20
HETATM   20  C17 UNL     1      24.359  14.471  -7.698  1.00  0.00     0.007 C
HETATM   21  C18 UNL     1      23.190  15.042  -7.059  1.00  0.00     0.014 C
HETATM   22  C19 UNL     1      23.924  14.454  -9.206  1.00  0.00     0.014 C
ENDBRANCH  15  20
ENDBRANCH   5  15
BRANCH   4  23
HETATM   23  O1  UNL     1      22.386  11.833  -6.927  1.00  0.00    -0.311 OA
BRANCH  23  24
HETATM   24  C7  UNL     1      20.997  11.866  -7.076  1.00  0.00     0.263 C
HETATM   25  O2  UNL     1      20.479  10.721  -7.310  1.00  0.00    -0.265 OA
BRANCH  24  26
HETATM   26  C8  UNL     1      20.150  13.045  -6.991  1.00  0.00     0.077 C
HETATM   27  C9  UNL     1      19.875  13.767  -8.266  1.00  0.00     0.020 C
HETATM   28  C10 UNL     1      18.847  12.588  -6.313  1.00  0.00     0.020 C
ENDBRANCH  24  26
ENDBRANCH  23  24
ENDBRANCH   4  23
BRANCH   8  29
HETATM   29  O3  UNL     1      25.301   9.330  -6.408  1.00  0.00    -0.279 OA
BRANCH  29  30
HETATM   30  C23 UNL     1      25.286   9.305  -5.046  1.00  0.00     0.296 C
HETATM   31  O4  UNL     1      24.463  10.124  -4.564  1.00  0.00    -0.262 OA
BRANCH  30  32
HETATM   32  C24 UNL     1      26.110   8.449  -4.161  1.00  0.00     0.256 A
HETATM   33  O5  UNL     1      26.217   8.795  -2.816  1.00  0.00    -0.359 OA
HETATM   34  C25 UNL     1      27.415   8.850  -3.671  1.00  0.00     0.090 A
HETATM   35  C26 UNL     1      28.427   7.769  -3.356  1.00  0.00     0.049 C
HETATM   36  C27 UNL     1      27.925  10.248  -3.769  1.00  0.00     0.049 C
ENDBRANCH  30  32
ENDBRANCH  29  30
ENDBRANCH   8  29
BRANCH   1  37
HETATM   37  C2  UNL     1      22.354  11.063 -11.591  1.00  0.00    -0.025 C
HETATM   38  C1  UNL     1      21.466  12.061 -11.642  1.00  0.00     0.008 C
ENDBRANCH   1  37
BRANCH  14  39
HETATM   39  O7  UNL     1      24.974  11.734 -11.291  1.00  0.00    -0.321 OA
BRANCH  39  40
HETATM   40  C34 UNL     1      25.591  11.745 -12.510  1.00  0.00     0.398 C
HETATM   41  O8  UNL     1      26.852  11.859 -12.500  1.00  0.00    -0.276 OA
ENDBRANCH  39  40
ENDBRANCH  14  39
BRANCH  11  42
HETATM   42  O6  UNL     1      26.093   7.287  -8.924  1.00  0.00    -0.391 OA
ATOM     43  H6  UNL     1      25.231   7.674  -8.827  1.00  0.00     0.210 HD
ENDBRANCH  11  42
TORSDOF 15
ENDMDL