MODEL 4
REMARK VINA RESULT: -8.661343542      3.056      3.787
REMARK  20 active torsions:
REMARK  status: ('A' for Active; 'I' for Inactive)
REMARK    1  A    between atoms: C2_2  and  C3_3
REMARK    2  A    between atoms: C2_2  and  C29_37
REMARK    3  A    between atoms: C3_3  and  C4_4
REMARK    4  A    between atoms: C5_5  and  C6_6
REMARK    5  A    between atoms: C6_6  and  C8_8
REMARK    6  A    between atoms: C8_8  and  C9_9
REMARK    7  A    between atoms: C9_9  and  C10_10
REMARK    8  A    between atoms: C10_10  and  N1_12
REMARK    9  A    between atoms: N1_12  and  C12_13
REMARK   10  A    between atoms: C12_13  and  O1_14
REMARK   11  A    between atoms: C12_13  and  O2_16
REMARK   12  A    between atoms: O2_16  and  C13_17
REMARK   13  A    between atoms: C19_23  and  O3_24
REMARK   14  A    between atoms: O3_24  and  C20_25
REMARK   15  A    between atoms: C24_30  and  O5_31
REMARK   16  A    between atoms: O5_31  and  C25_32
REMARK   17  A    between atoms: C30_38  and  C31_39
REMARK   18  A    between atoms: C31_39  and  C32_40
REMARK   19  A    between atoms: C32_40  and  O7_41
REMARK   20  A    between atoms: C32_40  and  O8_43
ROOT
HETATM    1  C12 UNL     1      26.125   7.624  -2.695  1.00  0.00     0.336 C
ENDROOT
BRANCH   1   2
HETATM    2  N1  UNL     1      27.048   8.390  -1.987  1.00  0.00    -0.395 NA
BRANCH   2   3
HETATM    3  C10 UNL     1      27.956   9.143  -1.287  1.00  0.00     0.186 C
HETATM    4  C11 UNL     1      27.245   9.800  -0.032  1.00  0.00     0.052 C
BRANCH   3   5
HETATM    5  C9  UNL     1      28.315  10.289  -2.193  1.00  0.00     0.012 C
BRANCH   5   6
HETATM    6  C8  UNL     1      27.741  11.123  -2.924  1.00  0.00     0.006 C
BRANCH   6   7
HETATM    7  C6  UNL     1      27.858  12.570  -2.618  1.00  0.00    -0.062 C
HETATM    8  C7  UNL     1      28.257  13.061  -1.281  1.00  0.00     0.048 C
BRANCH   7   9
HETATM    9  C5  UNL     1      27.805  13.487  -3.627  1.00  0.00     0.007 C
HETATM   10  C4  UNL     1      26.738  13.406  -4.603  1.00  0.00     0.001 C
BRANCH  10  11
HETATM   11  C3  UNL     1      26.088  13.663  -5.599  1.00  0.00     0.010 C
BRANCH  11  12
HETATM   12  C2  UNL     1      24.707  14.755  -5.741  1.00  0.00    -0.046 C
HETATM   13  C1  UNL     1      24.074  13.778  -6.294  1.00  0.00     0.023 C
BRANCH  12  14
HETATM   14  C29 UNL     1      25.388  15.801  -5.146  1.00  0.00     0.007 C
HETATM   15  C30 UNL     1      24.744  16.921  -4.846  1.00  0.00    -0.021 C
BRANCH  15  16
HETATM   16  C31 UNL     1      23.273  17.160  -5.133  1.00  0.00     0.087 C
BRANCH  16  17
HETATM   17  C32 UNL     1      23.210  18.640  -5.227  1.00  0.00     0.259 C
BRANCH  17  18
HETATM   18  O7  UNL     1      21.864  19.088  -5.078  1.00  0.00    -0.371 OA
ATOM     19  H7  UNL     1      21.766  19.572  -4.266  1.00  0.00     0.212 HD
ENDBRANCH  17  18
BRANCH  17  20
HETATM   20  O8  UNL     1      23.971  19.633  -5.372  1.00  0.00    -0.366 OA
HETATM   21  C33 UNL     1      24.800  20.578  -5.187  1.00  0.00     0.204 C
ENDBRANCH  17  20
ENDBRANCH  16  17
ENDBRANCH  15  16
ENDBRANCH  12  14
ENDBRANCH  11  12
ENDBRANCH  10  11
ENDBRANCH   7   9
ENDBRANCH   6   7
ENDBRANCH   5   6
ENDBRANCH   3   5
ENDBRANCH   2   3
ENDBRANCH   1   2
BRANCH   1  22
HETATM   22  O1  UNL     1      25.603   6.498  -2.260  1.00  0.00    -0.316 OA
ATOM     23  H1  UNL     1      26.043   5.656  -2.284  1.00  0.00     0.222 HD
ENDBRANCH   1  22
BRANCH   1  24
HETATM   24  O2  UNL     1      25.714   7.999  -3.895  1.00  0.00    -0.299 OA
BRANCH  24  25
HETATM   25  C13 UNL     1      26.101   8.615  -5.020  1.00  0.00     0.151 C
HETATM   26  C14 UNL     1      25.064   9.491  -5.672  1.00  0.00     0.012 C
HETATM   27  C15 UNL     1      24.485  10.365  -4.529  1.00  0.00     0.012 C
HETATM   28  C16 UNL     1      25.577  10.367  -6.744  1.00  0.00     0.014 C
HETATM   29  C17 UNL     1      26.949  10.006  -7.230  1.00  0.00     0.018 C
HETATM   30  C18 UNL     1      27.459  10.886  -8.273  1.00  0.00     0.013 C
HETATM   31  C19 UNL     1      26.993   8.522  -7.328  1.00  0.00     0.086 C
HETATM   32  C22 UNL     1      28.131   7.919  -7.982  1.00  0.00     0.042 C
HETATM   33  C27 UNL     1      27.144   8.000  -5.906  1.00  0.00     0.042 C
HETATM   34  C23 UNL     1      28.183   6.560  -7.383  1.00  0.00     0.036 C
HETATM   35  C24 UNL     1      27.153   6.572  -6.179  1.00  0.00     0.145 C
HETATM   36  C28 UNL     1      28.501   8.269  -5.283  1.00  0.00     0.024 C
BRANCH  31  37
HETATM   37  O3  UNL     1      25.721   7.978  -7.663  1.00  0.00    -0.309 OA
BRANCH  37  38
HETATM   38  C20 UNL     1      25.296   7.610  -8.884  1.00  0.00     0.255 C
HETATM   39  C21 UNL     1      25.046   8.615  -9.979  1.00  0.00     0.126 C
HETATM   40  O4  UNL     1      25.117   6.439  -9.125  1.00  0.00    -0.266 OA
ENDBRANCH  37  38
ENDBRANCH  31  37
BRANCH  35  41
HETATM   41  O5  UNL     1      27.840   5.796  -5.155  1.00  0.00    -0.315 OA
BRANCH  41  42
HETATM   42  C25 UNL     1      27.215   4.614  -4.768  1.00  0.00     0.255 C
HETATM   43  C26 UNL     1      25.894   4.139  -5.202  1.00  0.00     0.126 C
HETATM   44  O6  UNL     1      27.856   3.883  -3.973  1.00  0.00    -0.266 OA
ENDBRANCH  41  42
ENDBRANCH  35  41
ENDBRANCH  24  25
ENDBRANCH   1  24
TORSDOF 20
ENDMDL