MODEL 1
REMARK VINA RESULT: -8.671358705      0.000      0.000
REMARK  14 active torsions:
REMARK  status: ('A' for Active; 'I' for Inactive)
REMARK    1  A    between atoms: C2_2  and  C3_3
REMARK    2  A    between atoms: C3_3  and  C4_4
REMARK    3  A    between atoms: C4_4  and  O2_6
REMARK    4  A    between atoms: O2_6  and  C5_7
REMARK    5  A    between atoms: C8_11  and  O4_12
REMARK    6  A    between atoms: O4_12  and  C9_13
REMARK    7  A    between atoms: C14_19  and  O6_20
REMARK    8  A    between atoms: C17_24  and  C19_26
REMARK    9  A    between atoms: C20_27  and  C21_28
REMARK   10  A    between atoms: C21_28  and  O7_30
REMARK   11  A    between atoms: C21_28  and  C25_34
REMARK   12  A    between atoms: O7_30  and  C23_31
REMARK   13  A    between atoms: C25_34  and  C27_36
REMARK   14  A    between atoms: C27_36  and  C28_37
ROOT
HETATM    1  C5  UNL     1      26.172   8.451  -9.031  1.00  0.00     0.207 C
HETATM    2  C6  UNL     1      24.708   8.429  -9.361  1.00  0.00     0.159 C
HETATM    3  O3  UNL     1      23.928   9.277  -8.913  1.00  0.00    -0.295 OA
HETATM    4  C7  UNL     1      24.097   7.401 -10.238  1.00  0.00     0.114 C
HETATM    5  C8  UNL     1      25.194   6.442 -10.644  1.00  0.00     0.147 C
HETATM    6  C11 UNL     1      26.026   5.962  -9.512  1.00  0.00    -0.007 C
HETATM    7  C12 UNL     1      27.056   4.979 -10.092  1.00  0.00     0.018 C
HETATM    8  C13 UNL     1      25.145   5.118  -8.618  1.00  0.00     0.044 C
HETATM    9  C14 UNL     1      25.905   4.544  -7.471  1.00  0.00     0.123 C
HETATM   10  C15 UNL     1      27.113   5.282  -7.075  1.00  0.00     0.022 C
HETATM   11  C16 UNL     1      27.381   5.083  -5.601  1.00  0.00     0.014 C
HETATM   12  C17 UNL     1      27.134   6.773  -7.378  1.00  0.00    -0.014 C
HETATM   13  C18 UNL     1      28.672   7.044  -7.289  1.00  0.00     0.020 C
HETATM   14  C32 UNL     1      26.735   7.085  -8.777  1.00  0.00     0.046 C
ENDROOT
BRANCH  12  15
HETATM   15  C19 UNL     1      26.576   7.582  -6.292  1.00  0.00    -0.018 C
HETATM   16  C20 UNL     1      27.136   8.434  -5.499  1.00  0.00     0.008 C
BRANCH  16  17
HETATM   17  C21 UNL     1      26.532   9.235  -4.407  1.00  0.00     0.088 C
HETATM   18  C22 UNL     1      25.139   9.713  -4.772  1.00  0.00     0.051 C
BRANCH  17  19
HETATM   19  O7  UNL     1      26.588   8.683  -3.139  1.00  0.00    -0.306 OA
BRANCH  19  20
HETATM   20  C23 UNL     1      26.568   7.398  -2.733  1.00  0.00     0.255 C
HETATM   21  C24 UNL     1      27.746   6.633  -2.235  1.00  0.00     0.126 C
HETATM   22  O8  UNL     1      25.494   6.794  -2.774  1.00  0.00    -0.266 OA
ENDBRANCH  19  20
ENDBRANCH  17  19
BRANCH  17  23
HETATM   23  C25 UNL     1      27.392  10.509  -4.306  1.00  0.00     0.024 C
HETATM   24  C26 UNL     1      26.587  11.725  -4.683  1.00  0.00     0.014 C
BRANCH  23  25
HETATM   25  C27 UNL     1      28.121  10.741  -3.059  1.00  0.00     0.035 C
BRANCH  25  26
HETATM   26  C28 UNL     1      28.104  12.094  -2.468  1.00  0.00    -0.024 C
HETATM   27  C29 UNL     1      27.956  12.393  -1.194  1.00  0.00    -0.091 C
HETATM   28  C30 UNL     1      27.959  13.806  -0.747  1.00  0.00     0.042 C
HETATM   29  C31 UNL     1      27.798  11.319  -0.193  1.00  0.00     0.042 C
ENDBRANCH  25  26
ENDBRANCH  23  25
ENDBRANCH  17  23
ENDBRANCH  16  17
ENDBRANCH  12  15
BRANCH   9  30
HETATM   30  O6  UNL     1      25.018   4.247  -6.414  1.00  0.00    -0.395 OA
ATOM     31  H6  UNL     1      25.287   4.711  -5.630  1.00  0.00     0.210 HD
ENDBRANCH   9  30
BRANCH   1  32
HETATM   32  O2  UNL     1      26.765   9.085 -10.149  1.00  0.00    -0.308 OA
BRANCH  32  33
HETATM   33  C4  UNL     1      26.975  10.437 -10.151  1.00  0.00     0.259 C
HETATM   34  O1  UNL     1      26.810  11.193 -11.131  1.00  0.00    -0.265 OA
BRANCH  33  35
HETATM   35  C3  UNL     1      27.443  11.103  -8.884  1.00  0.00     0.111 C
BRANCH  35  36
HETATM   36  C2  UNL     1      26.771  12.431  -8.677  1.00  0.00     0.005 C
HETATM   37  C1  UNL     1      25.390  12.322  -8.093  1.00  0.00     0.005 C
ENDBRANCH  35  36
ENDBRANCH  33  35
ENDBRANCH  32  33
ENDBRANCH   1  32
BRANCH   5  38
HETATM   38  O4  UNL     1      25.925   6.905 -11.747  1.00  0.00    -0.315 OA
BRANCH  38  39
HETATM   39  C9  UNL     1      25.392   7.562 -12.846  1.00  0.00     0.255 C
HETATM   40  C10 UNL     1      24.367   6.840 -13.647  1.00  0.00     0.126 C
HETATM   41  O5  UNL     1      25.783   8.715 -13.121  1.00  0.00    -0.266 OA
ENDBRANCH  38  39
ENDBRANCH   5  38
TORSDOF 14
ENDMDL