MODEL 5
REMARK VINA RESULT: -8.641983767      2.432      8.565
REMARK  15 active torsions:
REMARK  status: ('A' for Active; 'I' for Inactive)
REMARK    1  A    between atoms: C2_2  and  C3_3
REMARK    2  A    between atoms: C2_2  and  C26_33
REMARK    3  A    between atoms: C3_3  and  C4_4
REMARK    4  A    between atoms: C4_4  and  C5_5
REMARK    5  A    between atoms: C5_5  and  O2_7
REMARK    6  A    between atoms: O2_7  and  C6_8
REMARK    7  A    between atoms: C16_18  and  O3_19
REMARK    8  A    between atoms: O3_19  and  C17_20
REMARK    9  A    between atoms: C17_20  and  C18_22
REMARK   10  A    between atoms: C18_22  and  C19_23
REMARK   11  A    between atoms: C24_29  and  O6_31
REMARK   12  A    between atoms: C26_33  and  C27_34
REMARK   13  A    between atoms: C26_33  and  C30_37
REMARK   14  A    between atoms: C31_38  and  C33_40
REMARK   15  A    between atoms: C33_40  and  O8_42
ROOT
HETATM    1  C6  UNL     1      27.347   8.933  -3.347  1.00  0.00     0.222 C
HETATM    2  C7  UNL     1      26.424   9.221  -4.451  1.00  0.00    -0.054 C
HETATM    3  C8  UNL     1      25.357   9.915  -4.089  1.00  0.00     0.017 C
HETATM    4  C9  UNL     1      26.388   8.922  -5.897  1.00  0.00     0.044 C
HETATM    5  C10 UNL     1      26.247   7.463  -6.224  1.00  0.00     0.029 C
HETATM    6  C11 UNL     1      26.675   6.684  -5.031  1.00  0.00     0.134 C
HETATM    7  C12 UNL     1      26.361   5.221  -5.078  1.00  0.00     0.060 C
HETATM    8  C13 UNL     1      27.003   4.490  -6.173  1.00  0.00    -0.019 C
HETATM    9  C14 UNL     1      27.122   4.697  -7.482  1.00  0.00    -0.058 C
HETATM   10  C15 UNL     1      27.869   3.699  -8.274  1.00  0.00     0.046 C
HETATM   11  C16 UNL     1      26.532   5.887  -8.150  1.00  0.00     0.168 C
HETATM   12  C21 UNL     1      26.968   7.197  -7.497  1.00  0.00    -0.011 C
HETATM   13  C22 UNL     1      28.471   7.286  -7.413  1.00  0.00     0.018 C
HETATM   14  C23 UNL     1      26.530   8.282  -8.472  1.00  0.00     0.018 C
HETATM   15  O5  UNL     1      27.963   6.997  -4.701  1.00  0.00    -0.347 OA
HETATM   16  C24 UNL     1      28.177   7.686  -3.551  1.00  0.00     0.189 C
HETATM   17  C25 UNL     1      27.977   6.706  -2.383  1.00  0.00     0.082 C
ENDROOT
BRANCH   1  18
HETATM   18  O2  UNL     1      26.758   8.849  -2.087  1.00  0.00    -0.306 OA
BRANCH  18  19
HETATM   19  C5  UNL     1      27.037   9.708  -1.054  1.00  0.00     0.259 C
HETATM   20  O1  UNL     1      26.176   9.785  -0.158  1.00  0.00    -0.265 OA
BRANCH  19  21
HETATM   21  C4  UNL     1      28.330  10.513  -1.022  1.00  0.00     0.115 C
BRANCH  21  22
HETATM   22  C3  UNL     1      28.376  11.410  -2.194  1.00  0.00     0.044 C
BRANCH  22  23
HETATM   23  C2  UNL     1      28.074  12.819  -2.084  1.00  0.00    -0.077 C
HETATM   24  C1  UNL     1      27.827  13.307  -0.845  1.00  0.00     0.015 C
BRANCH  23  25
HETATM   25  C26 UNL     1      27.911  13.794  -3.212  1.00  0.00     0.059 C
BRANCH  25  26
HETATM   26  C27 UNL     1      29.109  14.613  -3.391  1.00  0.00    -0.018 C
HETATM   27  C28 UNL     1      29.099  15.955  -3.169  1.00  0.00    -0.034 C
HETATM   28  C29 UNL     1      27.852  16.626  -2.733  1.00  0.00     0.036 C
ENDBRANCH  25  26
BRANCH  25  29
HETATM   29  C30 UNL     1      27.297  13.272  -4.410  1.00  0.00    -0.001 C
HETATM   30  C31 UNL     1      26.372  13.582  -5.230  1.00  0.00     0.010 C
HETATM   31  C32 UNL     1      26.215  12.521  -6.382  1.00  0.00     0.054 C
BRANCH  30  32
HETATM   32  C33 UNL     1      25.402  14.624  -5.356  1.00  0.00     0.288 C
HETATM   33  O7  UNL     1      24.218  14.528  -5.699  1.00  0.00    -0.260 OA
BRANCH  32  34
HETATM   34  O8  UNL     1      25.767  15.984  -5.068  1.00  0.00    -0.323 OA
HETATM   35  C34 UNL     1      24.718  16.905  -4.891  1.00  0.00     0.213 C
ENDBRANCH  32  34
ENDBRANCH  30  32
ENDBRANCH  25  29
ENDBRANCH  23  25
ENDBRANCH  22  23
ENDBRANCH  21  22
ENDBRANCH  19  21
ENDBRANCH  18  19
ENDBRANCH   1  18
BRANCH  16  36
HETATM   36  O6  UNL     1      29.568   7.965  -3.517  1.00  0.00    -0.363 OA
ATOM     37  H6  UNL     1      29.757   8.769  -3.048  1.00  0.00     0.213 HD
ENDBRANCH  16  36
BRANCH  11  38
HETATM   38  O3  UNL     1      26.641   5.889  -9.531  1.00  0.00    -0.311 OA
BRANCH  38  39
HETATM   39  C17 UNL     1      25.691   5.535 -10.459  1.00  0.00     0.259 C
HETATM   40  O4  UNL     1      25.077   4.481 -10.273  1.00  0.00    -0.265 OA
BRANCH  39  41
HETATM   41  C18 UNL     1      25.406   6.377 -11.642  1.00  0.00     0.111 C
BRANCH  41  42
HETATM   42  C19 UNL     1      23.955   6.695 -11.779  1.00  0.00     0.005 C
HETATM   43  C20 UNL     1      23.518   7.552 -10.609  1.00  0.00     0.005 C
ENDBRANCH  41  42
ENDBRANCH  39  41
ENDBRANCH  38  39
ENDBRANCH  11  38
TORSDOF 15
ENDMDL