MODEL 5
REMARK VINA RESULT: -6.441939690      1.042      1.507
REMARK  12 active torsions:
REMARK  status: ('A' for Active; 'I' for Inactive)
REMARK    1  A    between atoms: N1_1  and  C1_5
REMARK    2  A    between atoms: C1_5  and  C2_6
REMARK    3  A    between atoms: C2_6  and  N2_7
REMARK    4  A    between atoms: N2_7  and  C3_9
REMARK    5  A    between atoms: C3_9  and  C4_10
REMARK    6  A    between atoms: C4_10  and  C5_11
REMARK    7  A    between atoms: C5_11  and  C6_12
REMARK    8  A    between atoms: C6_12  and  C7_13
REMARK    9  A    between atoms: C7_13  and  N3_14
REMARK   10  A    between atoms: N3_14  and  C8_16
REMARK   11  A    between atoms: C8_16  and  C9_17
REMARK   12  A    between atoms: C15_29  and  O3_30
ROOT
HETATM    1  C8  UNL     1      -5.581 -26.318  18.706  1.00  0.00     0.098 C
ENDROOT
BRANCH   1   2
HETATM    2  N3  UNL     1      -4.843 -25.244  19.243  1.00  0.00    -0.378 N
ATOM      3  H3  UNL     1      -3.880 -25.091  18.946  1.00  0.00     0.164 HD
BRANCH   2   4
HETATM    4  C7  UNL     1      -5.420 -24.395  20.171  1.00  0.00     0.060 C
BRANCH   4   5
HETATM    5  C6  UNL     1      -4.995 -24.316  21.599  1.00  0.00     0.045 C
BRANCH   5   6
HETATM    6  C5  UNL     1      -5.991 -24.502  22.649  1.00  0.00     0.010 C
BRANCH   6   7
HETATM    7  C4  UNL     1      -7.019 -25.593  22.269  1.00  0.00     0.045 C
BRANCH   7   8
HETATM    8  C3  UNL     1      -6.589 -26.899  22.796  1.00  0.00     0.060 C
BRANCH   8   9
HETATM    9  N2  UNL     1      -5.920 -27.817  22.003  1.00  0.00    -0.381 N
ATOM     10  H2  UNL     1      -6.439 -28.250  21.240  1.00  0.00     0.164 HD
BRANCH   9  11
HETATM   11  C2  UNL     1      -4.598 -28.185  22.175  1.00  0.00     0.087 C
BRANCH  11  12
HETATM   12  C1  UNL     1      -3.880 -27.706  23.402  1.00  0.00     0.274 C
BRANCH  12  13
HETATM   13  N1  UNL     1      -2.435 -27.810  23.091  1.00  0.00    -0.075 N
ATOM     14  H13 UNL     1      -2.048 -28.739  23.257  1.00  0.00     0.274 HD
ATOM     15  H12 UNL     1      -2.228 -27.767  22.093  1.00  0.00     0.274 HD
ATOM     16  H11 UNL     1      -1.980 -27.075  23.633  1.00  0.00     0.274 HD
ENDBRANCH  12  13
ENDBRANCH  11  12
ENDBRANCH   9  11
ENDBRANCH   8   9
ENDBRANCH   7   8
ENDBRANCH   6   7
ENDBRANCH   5   6
ENDBRANCH   4   5
ENDBRANCH   2   4
ENDBRANCH   1   2
BRANCH   1  17
HETATM   17  C9  UNL     1      -4.710 -27.210  17.844  1.00  0.00     0.007 A
HETATM   18  C10 UNL     1      -4.779 -28.548  17.836  1.00  0.00     0.069 A
HETATM   19  C11 UNL     1      -5.568 -29.469  18.528  1.00  0.00     0.262 A
HETATM   20  C13 UNL     1      -3.875 -29.087  16.945  1.00  0.00     0.051 A
HETATM   21  O1  UNL     1      -6.402 -28.988  19.345  1.00  0.00    -0.267 OA
HETATM   22  N4  UNL     1      -5.450 -30.793  18.332  1.00  0.00    -0.275 N
HETATM   23  C12 UNL     1      -4.560 -31.286  17.457  1.00  0.00     0.327 A
ATOM     24  H4  UNL     1      -6.046 -31.432  18.857  1.00  0.00     0.173 HD
HETATM   25  O2  UNL     1      -4.490 -32.550  17.311  1.00  0.00    -0.247 OA
HETATM   26  N5  UNL     1      -3.789 -30.423  16.779  1.00  0.00    -0.308 N
ATOM     27  H5  UNL     1      -3.110 -30.791  16.113  1.00  0.00     0.170 HD
HETATM   28  C14 UNL     1      -3.199 -28.094  16.348  1.00  0.00     0.040 A
HETATM   29  C15 UNL     1      -3.680 -26.793  16.867  1.00  0.00     0.178 A
BRANCH  29  30
HETATM   30  O3  UNL     1      -2.631 -26.175  17.574  1.00  0.00    -0.387 OA
ATOM     31  H3  UNL     1      -2.583 -26.571  18.436  1.00  0.00     0.210 HD
ENDBRANCH  29  30
ENDBRANCH   1  17
TORSDOF 12
ENDMDL