MODEL 5
REMARK VINA RESULT: -5.737848915      2.694      3.696
REMARK  10 active torsions:
REMARK  status: ('A' for Active; 'I' for Inactive)
REMARK    1  A    between atoms: C1_2  and  C2_4
REMARK    2  A    between atoms: C2_4  and  C3_5
REMARK    3  A    between atoms: C3_5  and  N2_6
REMARK    4  A    between atoms: N2_6  and  C4_8
REMARK    5  A    between atoms: C7_13  and  N4_14
REMARK    6  A    between atoms: N4_14  and  C8_16
REMARK    7  A    between atoms: C8_16  and  C9_17
REMARK    8  A    between atoms: C9_17  and  C10_18
REMARK    9  A    between atoms: C10_18  and  C11_19
REMARK   10  A    between atoms: C11_19  and  N5_20
ROOT
HETATM    1  C4  UNL     1      -4.967 -27.233  18.216  1.00  0.00     0.679 A
HETATM    2  N3  UNL     1      -4.148 -26.277  17.766  1.00  0.00    -0.202 N
ATOM      3  H3  UNL     1      -4.276 -25.323  18.103  1.00  0.00     0.183 HD
HETATM    4  C5  UNL     1      -3.146 -26.530  16.873  1.00  0.00     0.110 A
HETATM    5  C6  UNL     1      -3.014 -27.835  16.447  1.00  0.00     0.066 A
HETATM    6  C7  UNL     1      -3.832 -28.825  16.888  1.00  0.00     0.118 A
HETATM    7  N8  UNL     1      -4.799 -28.487  17.773  1.00  0.00    -0.177 N
ATOM      8  H8  UNL     1      -5.424 -29.215  18.117  1.00  0.00     0.185 HD
ENDROOT
BRANCH   6   9
HETATM    9  N4  UNL     1      -3.760 -30.033  16.536  1.00  0.00    -0.376 N
ATOM     10  H4  UNL     1      -4.384 -30.666  17.036  1.00  0.00     0.161 HD
BRANCH   9  11
HETATM   11  C8  UNL     1      -2.946 -30.647  15.552  1.00  0.00     0.121 C
BRANCH  11  12
HETATM   12  C9  UNL     1      -3.754 -31.251  14.412  1.00  0.00     0.021 C
BRANCH  12  13
HETATM   13  C10 UNL     1      -3.382 -30.580  13.106  1.00  0.00     0.021 C
BRANCH  13  14
HETATM   14  C11 UNL     1      -4.254 -31.080  11.971  1.00  0.00     0.122 C
BRANCH  14  15
HETATM   15  N5  UNL     1      -5.303 -31.948  12.467  1.00  0.00    -0.367 N
HETATM   16  C12 UNL     1      -6.078 -32.529  11.627  1.00  0.00     0.196 C
HETATM   17  N6  UNL     1      -5.921 -32.331  10.224  1.00  0.00    -0.067 NA
HETATM   18  N7  UNL     1      -7.090 -33.370  12.153  1.00  0.00    -0.067 NA
ATOM     19  H5  UNL     1      -5.422 -32.095  13.470  1.00  0.00     0.161 HD
ENDBRANCH  14  15
ENDBRANCH  13  14
ENDBRANCH  12  13
ENDBRANCH  11  12
ENDBRANCH   9  11
ENDBRANCH   6   9
BRANCH   1  20
HETATM   20  N2  UNL     1      -5.888 -26.907  19.059  1.00  0.00    -0.226 N
ATOM     21  H2  UNL     1      -6.841 -26.797  18.712  1.00  0.00     0.177 HD
BRANCH  20  22
HETATM   22  C3  UNL     1      -5.647 -26.691  20.461  1.00  0.00     0.147 C
BRANCH  22  23
HETATM   23  C2  UNL     1      -6.175 -25.361  20.952  1.00  0.00     0.119 C
BRANCH  23  24
HETATM   24  C1  UNL     1      -5.188 -24.307  20.627  1.00  0.00     0.232 C
HETATM   25  N1  UNL     1      -4.593 -23.609  21.715  1.00  0.00    -0.062 NA
HETATM   26  O1  UNL     1      -4.891 -24.042  19.434  1.00  0.00    -0.277 OA
ENDBRANCH  23  24
ENDBRANCH  22  23
ENDBRANCH  20  22
ENDBRANCH   1  20
TORSDOF 10
ENDMDL