MODEL 5
REMARK VINA RESULT: -5.165501596      8.465     11.372
REMARK  14 active torsions:
REMARK  status: ('A' for Active; 'I' for Inactive)
REMARK    1  A    between atoms: C3_3  and  N1_4
REMARK    2  A    between atoms: C3_3  and  N2_7
REMARK    3  A    between atoms: N2_7  and  C4_9
REMARK    4  A    between atoms: C4_9  and  C5_10
REMARK    5  A    between atoms: C5_10  and  O1_11
REMARK    6  A    between atoms: O1_11  and  C6_12
REMARK    7  A    between atoms: C6_12  and  C7_13
REMARK    8  A    between atoms: C7_13  and  N3_14
REMARK    9  A    between atoms: N3_14  and  C8_17
REMARK   10  A    between atoms: C8_17  and  C9_18
REMARK   11  A    between atoms: C9_18  and  C10_19
REMARK   12  A    between atoms: C10_19  and  N4_20
REMARK   13  A    between atoms: N4_20  and  C11_22
REMARK   14  A    between atoms: C12_27  and  N7_28
ROOT
HETATM    1  C1  UNL     1       3.419 -32.641   9.395  1.00  0.00     0.021 C
HETATM    2  C2  UNL     1       2.620 -32.614  10.295  1.00  0.00    -0.042 C
HETATM    3  C3  UNL     1       1.647 -32.604  11.384  1.00  0.00     0.150 C
ENDROOT
BRANCH   3   4
HETATM    4  N1  UNL     1       2.011 -32.042  12.484  1.00  0.00    -0.379 N
ATOM      5  H12 UNL     1       2.762 -31.354  12.532  1.00  0.00     0.158 HD
ATOM      6  H11 UNL     1       1.511 -32.319  13.329  1.00  0.00     0.158 HD
ENDBRANCH   3   4
BRANCH   3   7
HETATM    7  N2  UNL     1       0.369 -33.190  11.206  1.00  0.00    -0.367 N
ATOM      8  H2  UNL     1       0.280 -34.199  11.086  1.00  0.00     0.161 HD
BRANCH   7   9
HETATM    9  C4  UNL     1      -0.803 -32.353  11.195  1.00  0.00     0.148 C
BRANCH   9  10
HETATM   10  C5  UNL     1      -1.942 -33.123  10.587  1.00  0.00     0.187 C
BRANCH  10  11
HETATM   11  O1  UNL     1      -2.747 -32.364   9.743  1.00  0.00    -0.388 OA
BRANCH  11  12
HETATM   12  C6  UNL     1      -3.608 -33.092   8.988  1.00  0.00     0.195 C
BRANCH  12  13
HETATM   13  C7  UNL     1      -4.441 -32.227   8.094  1.00  0.00     0.258 C
BRANCH  13  14
HETATM   14  N3  UNL     1      -5.839 -32.469   8.046  1.00  0.00    -0.073 N
ATOM     15  H32 UNL     1      -6.346 -31.703   8.488  1.00  0.00     0.277 HD
ATOM     16  H31 UNL     1      -6.181 -32.377   7.089  1.00  0.00     0.277 HD
BRANCH  14  17
HETATM   17  C8  UNL     1      -6.239 -33.705   8.594  1.00  0.00     0.234 C
BRANCH  17  18
HETATM   18  C9  UNL     1      -7.326 -33.554   9.655  1.00  0.00     0.048 C
BRANCH  18  19
HETATM   19  C10 UNL     1      -6.787 -33.691  11.034  1.00  0.00     0.140 C
BRANCH  19  20
HETATM   20  N4  UNL     1      -6.695 -32.456  11.755  1.00  0.00    -0.224 N
ATOM     21  H4  UNL     1      -7.576 -32.045  12.065  1.00  0.00     0.177 HD
BRANCH  20  22
HETATM   22  C11 UNL     1      -5.637 -31.814  12.051  1.00  0.00     0.707 A
HETATM   23  N5  UNL     1      -5.051 -30.841  11.343  1.00  0.00    -0.117 N
HETATM   24  N6  UNL     1      -3.974 -30.459  12.019  1.00  0.00    -0.117 N
ATOM     25  H5  UNL     1      -5.372 -30.463  10.452  1.00  0.00     0.206 HD
HETATM   26  C12 UNL     1      -3.853 -31.168  13.151  1.00  0.00     0.707 A
ATOM     27  H6  UNL     1      -3.329 -29.728  11.719  1.00  0.00     0.206 HD
HETATM   28  N8  UNL     1      -4.895 -32.006  13.152  1.00  0.00    -0.020 N
ATOM     29  H8  UNL     1      -5.097 -32.689  13.882  1.00  0.00     0.203 HD
BRANCH  26  30
HETATM   30  N7  UNL     1      -2.893 -31.024  14.028  1.00  0.00    -0.229 N
HETATM   31  C13 UNL     1      -3.174 -30.688  15.385  1.00  0.00     0.165 C
ATOM     32  H7  UNL     1      -1.925 -31.153  13.736  1.00  0.00     0.177 HD
ENDBRANCH  26  30
ENDBRANCH  20  22
ENDBRANCH  19  20
ENDBRANCH  18  19
ENDBRANCH  17  18
ENDBRANCH  14  17
ENDBRANCH  13  14
ENDBRANCH  12  13
ENDBRANCH  11  12
ENDBRANCH  10  11
ENDBRANCH   9  10
ENDBRANCH   7   9
ENDBRANCH   3   7
TORSDOF 14
ENDMDL