MODEL 3
REMARK VINA RESULT: -5.895954874      1.482      3.556
REMARK  12 active torsions:
REMARK  status: ('A' for Active; 'I' for Inactive)
REMARK    1  A    between atoms: C2_2  and  O1_3
REMARK    2  A    between atoms: C2_2  and  C3_5
REMARK    3  A    between atoms: C3_5  and  N1_6
REMARK    4  A    between atoms: C5_8  and  N2_9
REMARK    5  A    between atoms: N2_9  and  C6_12
REMARK    6  A    between atoms: C6_12  and  C7_13
REMARK    7  A    between atoms: C7_13  and  C8_14
REMARK    8  A    between atoms: C8_14  and  N3_15
REMARK    9  A    between atoms: N3_15  and  C9_17
REMARK   10  A    between atoms: C9_17  and  C10_18
REMARK   11  A    between atoms: C10_18  and  O2_19
REMARK   12  A    between atoms: C13_23  and  O3_24
ROOT
HETATM    1  N1  UNL     1      -5.821 -29.621  20.429  1.00  0.00    -0.019 N
HETATM    2  C4  UNL     1      -6.254 -28.631  19.470  1.00  0.00     0.279 C
HETATM    3  C5  UNL     1      -5.860 -27.274  20.073  1.00  0.00     0.221 C
HETATM    4  C11 UNL     1      -5.321 -27.704  21.424  1.00  0.00     0.081 C
HETATM    5  C12 UNL     1      -4.632 -29.010  20.971  1.00  0.00     0.255 C
HETATM    6  C13 UNL     1      -6.443 -28.251  22.227  1.00  0.00     0.201 C
HETATM    7  C14 UNL     1      -6.697 -29.561  21.570  1.00  0.00     0.207 C
HETATM    8  N4  UNL     1      -7.531 -30.419  21.978  1.00  0.00    -0.380 N
ATOM      9  H41 UNL     1      -8.152 -30.376  22.787  1.00  0.00     0.157 HD
ATOM     10  H42 UNL     1      -7.705 -31.318  21.528  1.00  0.00     0.157 HD
ENDROOT
BRANCH   3  11
HETATM   11  N2  UNL     1      -4.873 -26.620  19.287  1.00  0.00    -0.069 N
ATOM     12  H22 UNL     1      -4.978 -25.607  19.339  1.00  0.00     0.277 HD
ATOM     13  H21 UNL     1      -3.949 -26.713  19.709  1.00  0.00     0.277 HD
BRANCH  11  14
HETATM   14  C6  UNL     1      -4.862 -27.062  17.933  1.00  0.00     0.234 C
BRANCH  14  15
HETATM   15  C7  UNL     1      -3.651 -26.572  17.184  1.00  0.00     0.046 C
BRANCH  15  16
HETATM   16  C8  UNL     1      -3.046 -27.698  16.351  1.00  0.00     0.115 C
BRANCH  16  17
HETATM   17  N3  UNL     1      -1.622 -27.711  16.410  1.00  0.00    -0.419 N
ATOM     18  H3  UNL     1      -1.084 -28.549  16.187  1.00  0.00     0.153 HD
BRANCH  17  19
HETATM   19  C9  UNL     1      -0.987 -26.498  16.794  1.00  0.00     0.139 C
BRANCH  19  20
HETATM   20  C10 UNL     1       0.436 -26.654  17.242  1.00  0.00     0.183 C
BRANCH  20  21
HETATM   21  O2  UNL     1       1.252 -25.771  16.529  1.00  0.00    -0.399 OA
ATOM     22  H2  UNL     1       0.876 -24.899  16.551  1.00  0.00     0.209 HD
ENDBRANCH  20  21
ENDBRANCH  19  20
ENDBRANCH  17  19
ENDBRANCH  16  17
ENDBRANCH  15  16
ENDBRANCH  14  15
ENDBRANCH  11  14
ENDBRANCH   3  11
BRANCH   1  23
HETATM   23  C3  UNL     1      -5.744 -30.929  19.963  1.00  0.00     0.276 C
BRANCH  23  24
HETATM   24  C2  UNL     1      -6.386 -31.319  18.691  1.00  0.00     0.140 C
HETATM   25  C1  UNL     1      -5.853 -32.608  18.079  1.00  0.00     0.041 C
BRANCH  24  26
HETATM   26  O1  UNL     1      -7.733 -31.654  19.036  1.00  0.00    -0.394 OA
ATOM     27  H1  UNL     1      -7.941 -31.033  19.725  1.00  0.00     0.210 HD
ENDBRANCH  24  26
ENDBRANCH  23  24
ENDBRANCH   1  23
BRANCH   6  28
HETATM   28  O3  UNL     1      -6.057 -28.385  23.552  1.00  0.00    -0.387 OA
ATOM     29  H3  UNL     1      -6.816 -28.557  24.097  1.00  0.00     0.210 HD
ENDBRANCH   6  28
TORSDOF 12
ENDMDL