MODEL 5
REMARK VINA RESULT: -5.736202202      2.786      5.446
REMARK  9 active torsions:
REMARK  status: ('A' for Active; 'I' for Inactive)
REMARK    1  A    between atoms: N3_4  and  C2_6
REMARK    2  A    between atoms: C2_6  and  C3_7
REMARK    3  A    between atoms: C3_7  and  C4_8
REMARK    4  A    between atoms: C4_8  and  C5_9
REMARK    5  A    between atoms: N6_19  and  C10_20
REMARK    6  A    between atoms: C10_20  and  C11_21
REMARK    7  A    between atoms: C11_21  and  C12_22
REMARK    8  A    between atoms: C12_22  and  N7_23
REMARK    9  A    between atoms: N7_23  and  C13_24
ROOT
HETATM    1  C5  UNL     1      -5.770 -29.037  19.744  1.00  0.00     0.181 C
HETATM    2  C6  UNL     1      -6.838 -30.040  20.133  1.00  0.00     0.240 C
HETATM    3  O1  UNL     1      -7.571 -30.353  19.177  1.00  0.00    -0.271 OA
HETATM    4  N4  UNL     1      -7.197 -30.710  21.333  1.00  0.00    -0.358 N
ATOM      5  H4  UNL     1      -7.467 -31.679  21.163  1.00  0.00     0.162 HD
HETATM    6  C7  UNL     1      -7.274 -30.368  22.721  1.00  0.00     0.142 C
HETATM    7  C8  UNL     1      -5.965 -30.006  23.376  1.00  0.00     0.140 C
HETATM    8  N5  UNL     1      -5.077 -29.596  22.344  1.00  0.00    -0.384 N
ATOM      9  H5  UNL     1      -4.386 -30.206  21.907  1.00  0.00     0.160 HD
HETATM   10  C9  UNL     1      -5.269 -28.249  21.999  1.00  0.00     0.178 C
HETATM   11  N6  UNL     1      -5.741 -27.986  20.667  1.00  0.00    -0.343 N
ENDROOT
BRANCH   1  12
HETATM   12  C4  UNL     1      -4.487 -29.761  19.436  1.00  0.00     0.037 C
BRANCH  12  13
HETATM   13  C3  UNL     1      -4.366 -29.858  17.922  1.00  0.00     0.022 C
BRANCH  13  14
HETATM   14  C2  UNL     1      -4.025 -28.586  17.254  1.00  0.00     0.122 C
BRANCH  14  15
HETATM   15  N3  UNL     1      -2.663 -28.245  17.074  1.00  0.00    -0.367 N
HETATM   16  C1  UNL     1      -2.339 -26.977  16.980  1.00  0.00     0.196 C
HETATM   17  N1  UNL     1      -3.360 -25.998  17.063  1.00  0.00    -0.067 NA
HETATM   18  N2  UNL     1      -1.018 -26.534  16.817  1.00  0.00    -0.067 NA
ATOM     19  H3  UNL     1      -1.948 -28.970  17.019  1.00  0.00     0.161 HD
ENDBRANCH  14  15
ENDBRANCH  13  14
ENDBRANCH  12  13
ENDBRANCH   1  12
BRANCH  11  20
HETATM   20  C10 UNL     1      -5.776 -26.652  20.298  1.00  0.00     0.068 C
BRANCH  20  21
HETATM   21  C11 UNL     1      -6.176 -25.668  21.371  1.00  0.00     0.078 C
BRANCH  21  22
HETATM   22  C12 UNL     1      -5.400 -24.344  21.048  1.00  0.00     0.226 C
BRANCH  22  23
HETATM   23  N7  UNL     1      -4.623 -23.965  22.119  1.00  0.00    -0.423 NA
BRANCH  23  24
HETATM   24  C13 UNL     1      -3.871 -23.596  23.169  1.00  0.00     0.435 C
HETATM   25  O2  UNL     1      -4.075 -22.837  24.164  1.00  0.00    -0.269 OA
ENDBRANCH  23  24
ENDBRANCH  22  23
ENDBRANCH  21  22
ENDBRANCH  20  21
ENDBRANCH  11  20
TORSDOF 9
ENDMDL