MODEL 5
REMARK VINA RESULT: -6.347316954      3.181      4.260
REMARK  10 active torsions:
REMARK  status: ('A' for Active; 'I' for Inactive)
REMARK    1  A    between atoms: N1_2  and  C2_3
REMARK    2  A    between atoms: N1_2  and  C7_13
REMARK    3  A    between atoms: C2_3  and  O1_4
REMARK    4  A    between atoms: O1_4  and  C3_5
REMARK    5  A    between atoms: C3_5  and  C4_6
REMARK    6  A    between atoms: C4_6  and  C5_7
REMARK    7  A    between atoms: C5_7  and  C6_8
REMARK    8  A    between atoms: C6_8  and  N2_9
REMARK    9  A    between atoms: C7_13  and  C8_14
REMARK   10  A    between atoms: C11_18  and  N4_19
REMARK       I    between atoms: N4_19  and  C12_21
ROOT
HETATM    1  C8  UNL     1      -3.090 -29.865  16.285  1.00  0.00     0.148 A
HETATM    2  C9  UNL     1      -3.013 -28.384  16.283  1.00  0.00     0.028 A
HETATM    3  C10 UNL     1      -3.742 -27.576  16.988  1.00  0.00     0.054 A
HETATM    4  N3  UNL     1      -3.488 -26.168  16.821  1.00  0.00    -0.105 NA
HETATM    5  C11 UNL     1      -4.782 -28.034  17.914  1.00  0.00     0.223 A
HETATM    6  C13 UNL     1      -4.853 -29.487  18.029  1.00  0.00     0.246 A
HETATM    7  O2  UNL     1      -5.638 -29.996  18.870  1.00  0.00    -0.271 OA
HETATM    8  N7  UNL     1      -4.064 -30.347  17.224  1.00  0.00    -0.347 N
ATOM      9  H7  UNL     1      -4.193 -31.354  17.316  1.00  0.00     0.163 HD
ENDROOT
BRANCH   1  10
HETATM   10  C7  UNL     1      -3.364 -30.348  14.878  1.00  0.00     0.094 C
BRANCH  10  11
HETATM   11  N1  UNL     1      -2.781 -31.580  14.545  1.00  0.00    -0.354 N
HETATM   12  C1  UNL     1      -1.393 -31.653  14.312  1.00  0.00     0.156 C
BRANCH  11  13
HETATM   13  C2  UNL     1      -3.516 -32.772  14.671  1.00  0.00     0.227 C
BRANCH  13  14
HETATM   14  O1  UNL     1      -4.902 -32.514  14.515  1.00  0.00    -0.346 OA
BRANCH  14  15
HETATM   15  C3  UNL     1      -5.232 -33.077  13.275  1.00  0.00     0.176 C
BRANCH  15  16
HETATM   16  C4  UNL     1      -6.177 -32.177  12.507  1.00  0.00     0.028 C
BRANCH  16  17
HETATM   17  C5  UNL     1      -5.414 -31.121  11.735  1.00  0.00     0.029 C
BRANCH  17  18
HETATM   18  C6  UNL     1      -4.160 -31.643  11.122  1.00  0.00     0.230 C
BRANCH  18  19
HETATM   19  N2  UNL     1      -3.062 -30.726  11.169  1.00  0.00    -0.079 N
ATOM     20  H23 UNL     1      -2.180 -31.215  11.012  1.00  0.00     0.274 HD
ATOM     21  H22 UNL     1      -3.069 -30.117  10.350  1.00  0.00     0.274 HD
ATOM     22  H21 UNL     1      -3.018 -30.173  12.025  1.00  0.00     0.274 HD
ENDBRANCH  18  19
ENDBRANCH  17  18
ENDBRANCH  16  17
ENDBRANCH  15  16
ENDBRANCH  14  15
ENDBRANCH  13  14
ENDBRANCH  11  13
ENDBRANCH  10  11
ENDBRANCH   1  10
BRANCH   5  23
HETATM   23  N4  UNL     1      -4.588 -27.412  19.231  1.00  0.00    -0.347 N
HETATM   24  C12 UNL     1      -5.599 -26.534  19.692  1.00  0.00     0.182 C
HETATM   25  N5  UNL     1      -6.023 -25.620  18.860  1.00  0.00    -0.374 N
HETATM   26  N6  UNL     1      -6.152 -26.608  20.988  1.00  0.00    -0.064 NA
ATOM     27  H52 UNL     1      -5.624 -25.566  17.923  1.00  0.00     0.158 HD
ATOM     28  H51 UNL     1      -6.752 -24.987  19.192  1.00  0.00     0.158 HD
ATOM     29  H4  UNL     1      -3.758 -27.606  19.792  1.00  0.00     0.163 HD
ENDBRANCH   5  23
TORSDOF 10
ENDMDL