MODEL 4
REMARK VINA RESULT: -5.809333321      2.095      4.200
REMARK  12 active torsions:
REMARK  status: ('A' for Active; 'I' for Inactive)
REMARK    1  A    between atoms: N1_2  and  C3_4
REMARK    2  A    between atoms: N1_2  and  C4_7
REMARK    3  A    between atoms: C3_4  and  O1_5
REMARK    4  A    between atoms: C4_7  and  C5_8
REMARK    5  A    between atoms: C5_8  and  N2_9
REMARK    6  A    between atoms: N2_9  and  C7_12
REMARK    7  A    between atoms: C7_12  and  N3_13
REMARK    8  A    between atoms: N3_13  and  C8_15
REMARK    9  A    between atoms: C8_15  and  C9_16
REMARK   10  A    between atoms: C9_16  and  N4_17
REMARK   11  A    between atoms: N4_17  and  C10_19
REMARK   12  A    between atoms: C13_24  and  N6_25
ROOT
HETATM    1  C8  UNL     1      -4.898 -23.943  21.325  1.00  0.00     0.077 C
ENDROOT
BRANCH   1   2
HETATM    2  N3  UNL     1      -5.016 -23.649  22.699  1.00  0.00    -0.372 N
ATOM      3  H3  UNL     1      -4.203 -23.370  23.245  1.00  0.00     0.160 HD
BRANCH   2   4
HETATM    4  C7  UNL     1      -6.297 -23.753  23.300  1.00  0.00     0.434 C
BRANCH   4   5
HETATM    5  N2  UNL     1      -6.230 -24.365  24.617  1.00  0.00     0.027 N
HETATM    6  C6  UNL     1      -7.189 -23.740  25.521  1.00  0.00     0.358 C
HETATM    7  O2  UNL     1      -4.947 -24.200  25.054  1.00  0.00    -0.063 OA
BRANCH   5   8
HETATM    8  C5  UNL     1      -6.484 -25.789  24.595  1.00  0.00     0.341 C
BRANCH   8   9
HETATM    9  C4  UNL     1      -5.266 -26.463  25.185  1.00  0.00     0.275 C
BRANCH   9  10
HETATM   10  N1  UNL     1      -4.753 -27.560  24.444  1.00  0.00    -0.052 N
HETATM   11  C1  UNL     1      -5.366 -27.586  23.104  1.00  0.00     0.274 C
HETATM   12  C2  UNL     1      -4.919 -28.860  25.013  1.00  0.00     0.274 C
BRANCH  10  13
HETATM   13  C3  UNL     1      -3.331 -27.276  24.179  1.00  0.00     0.400 C
BRANCH  13  14
HETATM   14  O1  UNL     1      -3.196 -26.076  23.480  1.00  0.00    -0.374 OA
ATOM     15  H1  UNL     1      -2.326 -25.715  23.605  1.00  0.00     0.211 HD
ENDBRANCH  13  14
ENDBRANCH  10  13
ENDBRANCH   9  10
ENDBRANCH   8   9
ENDBRANCH   5   8
ENDBRANCH   4   5
ENDBRANCH   2   4
ENDBRANCH   1   2
BRANCH   1  16
HETATM   16  C9  UNL     1      -5.995 -24.863  20.832  1.00  0.00     0.182 C
BRANCH  16  17
HETATM   17  N4  UNL     1      -5.775 -25.040  19.405  1.00  0.00    -0.221 N
ATOM     18  H4  UNL     1      -5.918 -24.240  18.790  1.00  0.00     0.178 HD
BRANCH  17  19
HETATM   19  C10 UNL     1      -5.414 -26.141  18.888  1.00  0.00     0.679 A
HETATM   20  N5  UNL     1      -4.406 -26.185  18.011  1.00  0.00    -0.202 N
HETATM   21  C11 UNL     1      -3.991 -27.338  17.442  1.00  0.00     0.110 A
ATOM     22  H5  UNL     1      -3.933 -25.316  17.762  1.00  0.00     0.183 HD
HETATM   23  C12 UNL     1      -4.635 -28.509  17.784  1.00  0.00     0.066 A
HETATM   24  C13 UNL     1      -5.678 -28.481  18.689  1.00  0.00     0.116 A
HETATM   25  N7  UNL     1      -6.034 -27.280  19.217  1.00  0.00    -0.177 N
ATOM     26  H7  UNL     1      -6.802 -27.245  19.887  1.00  0.00     0.185 HD
BRANCH  24  27
HETATM   27  N6  UNL     1      -6.280 -29.578  19.011  1.00  0.00    -0.385 N
ATOM     28  H62 UNL     1      -5.818 -30.314  19.545  1.00  0.00     0.157 HD
ATOM     29  H61 UNL     1      -7.248 -29.728  18.729  1.00  0.00     0.157 HD
ENDBRANCH  24  27
ENDBRANCH  17  19
ENDBRANCH  16  17
ENDBRANCH   1  16
TORSDOF 12
ENDMDL