MODEL 5
REMARK VINA RESULT: -6.291202631      1.510      1.966
REMARK  9 active torsions:
REMARK  status: ('A' for Active; 'I' for Inactive)
REMARK    1  A    between atoms: N1_1  and  C1_5
REMARK    2  A    between atoms: C1_5  and  C2_6
REMARK    3  A    between atoms: C5_12  and  N3_13
REMARK    4  A    between atoms: N3_13  and  C6_16
REMARK    5  A    between atoms: C6_16  and  C7_17
REMARK    6  A    between atoms: C6_16  and  C8_19
REMARK    7  A    between atoms: C8_19  and  C9_20
REMARK    8  A    between atoms: C9_20  and  C10_21
REMARK    9  A    between atoms: C10_21  and  N4_22
ROOT
HETATM    1  C2  UNL     1      -6.016 -25.625  21.657  1.00  0.00     0.043 C
HETATM    2  C3  UNL     1      -5.501 -24.634  20.599  1.00  0.00     0.239 C
HETATM    3  N2  UNL     1      -5.237 -25.438  19.395  1.00  0.00    -0.068 N
ATOM      4  H21 UNL     1      -4.249 -25.605  19.205  1.00  0.00     0.277 HD
ATOM      5  H22 UNL     1      -5.434 -24.961  18.515  1.00  0.00     0.277 HD
HETATM    6  C4  UNL     1      -5.993 -26.599  19.612  1.00  0.00     0.220 C
HETATM    7  C5  UNL     1      -5.624 -27.856  18.967  1.00  0.00     0.217 C
HETATM    8  C12 UNL     1      -6.098 -28.901  19.993  1.00  0.00     0.036 C
HETATM    9  C13 UNL     1      -6.363 -28.117  21.287  1.00  0.00     0.009 C
HETATM   10  C14 UNL     1      -5.563 -26.904  21.067  1.00  0.00     0.025 C
ENDROOT
BRANCH   7  11
HETATM   11  N3  UNL     1      -4.221 -28.012  18.676  1.00  0.00    -0.059 N
ATOM     12  H32 UNL     1      -3.640 -27.302  19.120  1.00  0.00     0.278 HD
ATOM     13  H31 UNL     1      -3.806 -28.825  19.131  1.00  0.00     0.278 HD
BRANCH  11  14
HETATM   14  C6  UNL     1      -4.079 -28.038  17.176  1.00  0.00     0.247 C
BRANCH  14  15
HETATM   15  C7  UNL     1      -3.124 -26.992  16.794  1.00  0.00     0.264 C
HETATM   16  O1  UNL     1      -3.357 -25.832  17.078  1.00  0.00    -0.305 OA
ENDBRANCH  14  15
BRANCH  14  17
HETATM   17  C8  UNL     1      -3.610 -29.407  16.794  1.00  0.00     0.042 C
BRANCH  17  18
HETATM   18  C9  UNL     1      -2.709 -29.572  15.640  1.00  0.00     0.022 C
BRANCH  18  19
HETATM   19  C10 UNL     1      -2.840 -30.767  14.774  1.00  0.00     0.122 C
BRANCH  19  20
HETATM   20  N4  UNL     1      -1.625 -30.762  13.913  1.00  0.00    -0.367 N
HETATM   21  C11 UNL     1      -0.813 -31.765  13.940  1.00  0.00     0.196 C
HETATM   22  N5  UNL     1       0.328 -31.686  13.089  1.00  0.00    -0.067 NA
HETATM   23  N6  UNL     1      -1.007 -32.907  14.758  1.00  0.00    -0.067 NA
ATOM     24  H4  UNL     1      -1.434 -29.967  13.304  1.00  0.00     0.161 HD
ENDBRANCH  19  20
ENDBRANCH  18  19
ENDBRANCH  17  18
ENDBRANCH  14  17
ENDBRANCH  11  14
ENDBRANCH   7  11
BRANCH   1  25
HETATM   25  C1  UNL     1      -5.451 -25.303  23.011  1.00  0.00     0.236 C
BRANCH  25  26
HETATM   26  N1  UNL     1      -4.039 -25.498  23.084  1.00  0.00    -0.079 N
ATOM     27  H13 UNL     1      -3.814 -26.351  23.596  1.00  0.00     0.274 HD
ATOM     28  H12 UNL     1      -3.658 -25.746  22.171  1.00  0.00     0.274 HD
ATOM     29  H11 UNL     1      -3.547 -24.695  23.479  1.00  0.00     0.274 HD
ENDBRANCH  25  26
ENDBRANCH   1  25
TORSDOF 9
ENDMDL