MODEL 4
REMARK VINA RESULT: -5.928101209      2.115      5.744
REMARK  11 active torsions:
REMARK  status: ('A' for Active; 'I' for Inactive)
REMARK    1  A    between atoms: C2_2  and  N1_3
REMARK    2  A    between atoms: C4_5  and  C5_6
REMARK    3  A    between atoms: C5_6  and  O1_7
REMARK    4  A    between atoms: O1_7  and  C6_8
REMARK    5  A    between atoms: C6_8  and  N2_9
REMARK    6  A    between atoms: C6_8  and  N3_13
REMARK    7  A    between atoms: N3_13  and  C7_15
REMARK    8  A    between atoms: C7_15  and  C9_17
REMARK    9  A    between atoms: C7_15  and  C10_22
REMARK   10  A    between atoms: C9_17  and  N4_18
REMARK   11  A    between atoms: C10_22  and  N5_23
ROOT
HETATM    1  N3  UNL     1      -4.958 -28.239  17.745  1.00  0.00    -0.363 N
ATOM      2  H3  UNL     1      -5.461 -27.975  16.898  1.00  0.00     0.158 HD
ENDROOT
BRANCH   1   3
HETATM    3  C6  UNL     1      -5.264 -27.580  18.931  1.00  0.00     0.422 C
BRANCH   3   4
HETATM    4  O1  UNL     1      -6.329 -28.041  19.694  1.00  0.00    -0.344 OA
BRANCH   4   5
HETATM    5  C5  UNL     1      -5.948 -28.278  21.016  1.00  0.00     0.188 C
BRANCH   5   6
HETATM    6  C4  UNL     1      -6.524 -27.252  21.958  1.00  0.00     0.120 C
HETATM    7  C3  UNL     1      -6.122 -27.544  23.375  1.00  0.00     0.141 C
HETATM    8  N1  UNL     1      -5.109 -26.532  23.218  1.00  0.00    -0.351 N
HETATM    9  C12 UNL     1      -5.776 -26.007  22.089  1.00  0.00     0.227 C
HETATM   10  O2  UNL     1      -5.721 -24.922  21.483  1.00  0.00    -0.273 OA
BRANCH   8  11
HETATM   11  C2  UNL     1      -3.891 -26.197  23.944  1.00  0.00     0.121 C
HETATM   12  C1  UNL     1      -2.866 -27.300  23.804  1.00  0.00     0.026 C
ENDBRANCH   8  11
ENDBRANCH   5   6
ENDBRANCH   4   5
ENDBRANCH   3   4
BRANCH   3  13
HETATM   13  N2  UNL     1      -5.662 -26.190  18.536  1.00  0.00    -0.035 N
ATOM     14  H23 UNL     1      -6.397 -26.151  17.830  1.00  0.00     0.279 HD
ATOM     15  H22 UNL     1      -6.173 -25.681  19.258  1.00  0.00     0.279 HD
ATOM     16  H21 UNL     1      -4.788 -25.746  18.253  1.00  0.00     0.279 HD
ENDBRANCH   3  13
ENDBRANCH   1   3
BRANCH   1  17
HETATM   17  C7  UNL     1      -3.986 -29.250  17.661  1.00  0.00     0.065 C
HETATM   18  C8  UNL     1      -2.913 -29.052  18.733  1.00  0.00     0.041 C
BRANCH  17  19
HETATM   19  C9  UNL     1      -4.525 -30.635  17.611  1.00  0.00     0.261 C
BRANCH  19  20
HETATM   20  N4  UNL     1      -5.858 -30.763  18.149  1.00  0.00    -0.077 N
ATOM     21  H43 UNL     1      -6.065 -31.738  18.366  1.00  0.00     0.274 HD
ATOM     22  H42 UNL     1      -5.907 -30.364  19.086  1.00  0.00     0.274 HD
ATOM     23  H41 UNL     1      -6.584 -30.368  17.552  1.00  0.00     0.274 HD
ENDBRANCH  19  20
ENDBRANCH  17  19
BRANCH  17  24
HETATM   24  C10 UNL     1      -3.206 -28.933  16.349  1.00  0.00     0.154 C
BRANCH  24  25
HETATM   25  N5  UNL     1      -2.080 -28.136  16.658  1.00  0.00    -0.364 N
HETATM   26  C11 UNL     1      -2.003 -26.874  16.750  1.00  0.00     0.197 C
HETATM   27  N6  UNL     1      -0.747 -26.301  17.076  1.00  0.00    -0.067 NA
HETATM   28  N7  UNL     1      -3.091 -25.980  16.550  1.00  0.00    -0.067 NA
ATOM     29  H5  UNL     1      -1.212 -28.645  16.829  1.00  0.00     0.161 HD
ENDBRANCH  24  25
ENDBRANCH  17  24
ENDBRANCH   1  17
TORSDOF 11
ENDMDL