MODEL 2
REMARK VINA RESULT: -5.104324964      2.854      5.249
REMARK  10 active torsions:
REMARK  status: ('A' for Active; 'I' for Inactive)
REMARK    1  A    between atoms: N1_2  and  C2_3
REMARK    2  A    between atoms: N1_2  and  O1_13
REMARK    3  A    between atoms: C2_3  and  C3_4
REMARK    4  A    between atoms: C3_4  and  C4_5
REMARK    5  A    between atoms: C5_10  and  C6_11
REMARK    6  A    between atoms: O1_13  and  C7_14
REMARK    7  A    between atoms: C7_14  and  C8_15
REMARK    8  A    between atoms: C8_15  and  O2_16
REMARK    9  A    between atoms: O2_16  and  C9_17
REMARK   10  A    between atoms: C11_21  and  C12_22
ROOT
HETATM    1  C1  UNL     1      -3.211 -26.492  17.206  1.00  0.00     0.143 C
HETATM    2  N1  UNL     1      -3.990 -27.582  17.764  1.00  0.00    -0.201 NA
ENDROOT
BRANCH   2   3
HETATM    3  C2  UNL     1      -5.198 -26.997  18.314  1.00  0.00     0.126 C
BRANCH   3   4
HETATM    4  C3  UNL     1      -5.964 -27.978  19.170  1.00  0.00     0.077 C
BRANCH   4   5
HETATM    5  C4  UNL     1      -5.092 -28.287  20.354  1.00  0.00     0.051 A
HETATM    6  N2  UNL     1      -3.838 -28.720  20.580  1.00  0.00    -0.303 N
HETATM    7  N3  UNL     1      -4.020 -28.665  21.868  1.00  0.00    -0.302 N
ATOM      8  H2  UNL     1      -3.056 -28.985  19.981  1.00  0.00     0.186 HD
HETATM    9  C5  UNL     1      -5.283 -28.229  21.725  1.00  0.00     0.059 A
ATOM     10  H3  UNL     1      -3.431 -28.873  22.674  1.00  0.00     0.186 HD
BRANCH   9  11
HETATM   11  C6  UNL     1      -6.431 -27.839  22.593  1.00  0.00     0.146 C
HETATM   12  S1  UNL     1      -7.393 -29.308  23.003  1.00  0.00    -0.091 SA
ENDBRANCH   9  11
ENDBRANCH   4   5
ENDBRANCH   3   4
ENDBRANCH   2   3
BRANCH   2  13
HETATM   13  O1  UNL     1      -4.241 -28.543  16.868  1.00  0.00    -0.302 OA
BRANCH  13  14
HETATM   14  C7  UNL     1      -3.451 -29.671  17.088  1.00  0.00     0.220 C
BRANCH  14  15
HETATM   15  C8  UNL     1      -4.297 -30.868  17.422  1.00  0.00     0.197 C
BRANCH  15  16
HETATM   16  O2  UNL     1      -4.287 -31.247  18.737  1.00  0.00    -0.376 OA
BRANCH  16  17
HETATM   17  C9  UNL     1      -5.319 -32.100  19.113  1.00  0.00     0.190 A
HETATM   18  C10 UNL     1      -5.926 -31.832  20.413  1.00  0.00     0.090 A
HETATM   19  N4  UNL     1      -7.040 -31.488  19.922  1.00  0.00    -0.385 N
HETATM   20  C11 UNL     1      -6.642 -31.690  18.576  1.00  0.00     0.204 A
ATOM     21  H4  UNL     1      -7.914 -31.176  20.344  1.00  0.00     0.159 HD
BRANCH  20  22
HETATM   22  C12 UNL     1      -7.412 -32.741  17.851  1.00  0.00     0.256 C
HETATM   23  N5  UNL     1      -8.075 -33.803  18.521  1.00  0.00    -0.060 NA
HETATM   24  O3  UNL     1      -7.487 -32.702  16.598  1.00  0.00    -0.274 OA
ENDBRANCH  20  22
ENDBRANCH  16  17
ENDBRANCH  15  16
ENDBRANCH  14  15
ENDBRANCH  13  14
ENDBRANCH   2  13
TORSDOF 10
ENDMDL