MODEL 3
REMARK VINA RESULT: -8.316891453      1.835      4.655
REMARK  9 active torsions:
REMARK  status: ('A' for Active; 'I' for Inactive)
REMARK    1  A    between atoms: N1_7  and  C6_8
REMARK    2  A    between atoms: C6_8  and  C7_9
REMARK    3  A    between atoms: C7_9  and  N2_10
REMARK    4  A    between atoms: N2_10  and  C8_11
REMARK    5  A    between atoms: N2_10  and  C23_27
REMARK    6  A    between atoms: C8_11  and  C9_12
REMARK    7  A    between atoms: C12_16  and  C13_17
REMARK    8  A    between atoms: C18_22  and  C19_23
REMARK    9  A    between atoms: C23_27  and  N4_29
ROOT
HETATM    1  N2  UNL     1     135.554  88.968  65.954  1.00  0.00    -0.352 N
ENDROOT
BRANCH   1   2
HETATM    2  C7  UNL     1     134.282  88.404  65.604  1.00  0.00     0.156 C
BRANCH   2   3
HETATM    3  C6  UNL     1     134.252  88.204  64.105  1.00  0.00     0.293 C
BRANCH   3   4
HETATM    4  N1  UNL     1     133.185  87.358  63.652  1.00  0.00     0.098 N
HETATM    5  C2  UNL     1     131.972  88.017  63.306  1.00  0.00     0.242 C
HETATM    6  C1  UNL     1     130.957  86.984  62.865  1.00  0.00     0.045 C
HETATM    7  C3  UNL     1     132.168  88.993  62.183  1.00  0.00     0.203 C
HETATM    8  O1  UNL     1     133.138  88.643  61.282  1.00  0.00    -0.387 OA
HETATM    9  C4  UNL     1     133.405  87.295  61.191  1.00  0.00     0.198 C
HETATM   10  C5  UNL     1     133.692  86.621  62.496  1.00  0.00     0.299 C
ENDBRANCH   3   4
ENDBRANCH   2   3
ENDBRANCH   1   2
BRANCH   1  11
HETATM   11  C8  UNL     1     135.768  90.441  65.768  1.00  0.00     0.164 C
BRANCH  11  12
HETATM   12  C9  UNL     1     135.069  91.196  66.807  1.00  0.00    -0.031 A
HETATM   13  C10 UNL     1     135.171  90.740  68.131  1.00  0.00     0.036 A
HETATM   14  C11 UNL     1     134.562  91.392  69.161  1.00  0.00     0.054 A
HETATM   15  N3  UNL     1     134.708  90.863  70.474  1.00  0.00    -0.102 NA
HETATM   16  C12 UNL     1     133.835  92.518  68.899  1.00  0.00    -0.026 A
HETATM   17  C17 UNL     1     133.735  92.969  67.599  1.00  0.00     0.018 A
HETATM   18  C18 UNL     1     134.347  92.325  66.519  1.00  0.00    -0.042 A
BRANCH  16  19
HETATM   19  C13 UNL     1     133.175  93.220  70.046  1.00  0.00    -0.022 C
HETATM   20  C14 UNL     1     134.165  94.135  70.750  1.00  0.00     0.019 C
HETATM   21  C15 UNL     1     132.097  94.129  69.466  1.00  0.00     0.019 C
HETATM   22  C16 UNL     1     132.602  92.200  70.975  1.00  0.00     0.019 C
ENDBRANCH  16  19
BRANCH  18  23
HETATM   23  C19 UNL     1     134.248  92.836  65.150  1.00  0.00    -0.024 C
HETATM   24  C20 UNL     1     135.456  93.563  64.650  1.00  0.00     0.019 C
HETATM   25  C21 UNL     1     133.743  91.808  64.162  1.00  0.00     0.019 C
HETATM   26  C22 UNL     1     133.124  93.896  65.159  1.00  0.00     0.019 C
ENDBRANCH  18  23
ENDBRANCH  11  12
ENDBRANCH   1  11
BRANCH   1  27
HETATM   27  C23 UNL     1     136.614  88.191  66.447  1.00  0.00     0.172 C
HETATM   28  S1  UNL     1     137.856  87.940  65.316  1.00  0.00    -0.041 SA
BRANCH  27  29
HETATM   29  N4  UNL     1     136.857  87.589  67.665  1.00  0.00    -0.354 N
HETATM   30  C24 UNL     1     136.639  86.119  67.810  1.00  0.00     0.151 C
HETATM   31  C25 UNL     1     137.857  85.546  68.497  1.00  0.00     0.187 C
HETATM   32  O2  UNL     1     137.998  86.050  69.790  1.00  0.00    -0.388 OA
HETATM   33  C26 UNL     1     137.215  87.165  70.007  1.00  0.00     0.187 C
HETATM   34  C27 UNL     1     137.311  88.196  68.890  1.00  0.00     0.151 C
ENDBRANCH  27  29
ENDBRANCH   1  27
TORSDOF 9
ENDMDL