MODEL 3
REMARK VINA RESULT: -10.427584165      1.592      2.162
REMARK  6 active torsions:
REMARK  status: ('A' for Active; 'I' for Inactive)
REMARK    1  A    between atoms: C6_6  and  C7_7
REMARK    2  A    between atoms: C7_7  and  C8_8
REMARK    3  A    between atoms: C8_8  and  C9_9
REMARK       I    between atoms: C9_9  and  N1_11
REMARK    4  A    between atoms: N2_15  and  C13_16
REMARK    5  A    between atoms: C13_16  and  C14_17
REMARK    6  A    between atoms: C28_31  and  O2_32
ROOT
HETATM    1  C7  UNL     1     137.836  88.018  65.829  1.00  0.00     0.015 C
ENDROOT
BRANCH   1   2
HETATM    2  C6  UNL     1     137.779  86.967  64.820  1.00  0.00     0.001 C
HETATM    3  C5  UNL     1     136.478  86.202  64.655  1.00  0.00     0.036 A
HETATM    4  C4  UNL     1     136.358  84.912  63.993  1.00  0.00     0.032 A
HETATM    5  C29 UNL     1     137.229  85.046  65.094  1.00  0.00     0.109 A
HETATM    6  C3  UNL     1     136.912  84.563  62.662  1.00  0.00     0.015 C
HETATM    7  C2  UNL     1     137.536  83.240  62.499  1.00  0.00     0.011 C
HETATM    8  C1  UNL     1     138.520  83.326  61.327  1.00  0.00     0.012 C
HETATM    9  C28 UNL     1     138.114  82.566  63.676  1.00  0.00     0.124 C
HETATM   10  C27 UNL     1     139.388  83.103  64.225  1.00  0.00     0.073 C
HETATM   11  C25 UNL     1     139.266  83.653  65.626  1.00  0.00     0.095 C
HETATM   12  C24 UNL     1     139.510  85.182  65.681  1.00  0.00     0.049 C
HETATM   13  C26 UNL     1     140.302  83.079  66.573  1.00  0.00     0.049 C
HETATM   14  O3  UNL     1     138.032  83.316  66.153  1.00  0.00    -0.229 OA
HETATM   15  C23 UNL     1     138.518  85.742  64.764  1.00  0.00     0.032 C
HETATM   16  O4  UNL     1     137.180  84.315  66.192  1.00  0.00    -0.228 OA
BRANCH   9  17
HETATM   17  O2  UNL     1     138.334  81.224  63.279  1.00  0.00    -0.395 OA
ATOM     18  H2  UNL     1     139.025  81.259  62.628  1.00  0.00     0.210 HD
ENDBRANCH   9  17
ENDBRANCH   1   2
BRANCH   1  19
HETATM   19  C8  UNL     1     136.743  88.266  66.777  1.00  0.00     0.103 C
BRANCH  19  20
HETATM   20  C9  UNL     1     135.873  89.420  66.360  1.00  0.00     0.220 C
HETATM   21  O1  UNL     1     135.642  89.520  65.127  1.00  0.00    -0.273 OA
HETATM   22  N1  UNL     1     135.346  90.338  67.296  1.00  0.00    -0.342 N
HETATM   23  C10 UNL     1     135.608  90.226  68.716  1.00  0.00     0.094 C
HETATM   24  C21 UNL     1     134.525  91.412  66.798  1.00  0.00     0.089 C
HETATM   25  C11 UNL     1     134.443  89.601  69.426  1.00  0.00     0.070 C
HETATM   26  C18 UNL     1     135.879  91.644  69.183  1.00  0.00     0.051 C
HETATM   27  C12 UNL     1     133.824  90.465  70.480  1.00  0.00     0.065 C
HETATM   28  N2  UNL     1     133.793  91.836  70.249  1.00  0.00    -0.368 N
HETATM   29  C17 UNL     1     134.538  92.344  69.140  1.00  0.00     0.095 C
HETATM   30  C19 UNL     1     133.812  92.181  67.857  1.00  0.00     0.027 C
HETATM   31  C20 UNL     1     133.453  93.537  67.298  1.00  0.00     0.014 C
HETATM   32  C22 UNL     1     135.399  92.257  65.902  1.00  0.00     0.033 C
BRANCH  28  33
HETATM   33  C13 UNL     1     132.755  92.637  70.754  1.00  0.00     0.068 C
BRANCH  33  34
HETATM   34  C14 UNL     1     132.794  94.096  70.485  1.00  0.00     0.024 A
HETATM   35  C15 UNL     1     133.944  94.973  70.782  1.00  0.00     0.010 A
HETATM   36  C16 UNL     1     132.786  94.996  71.709  1.00  0.00     0.010 A
ENDBRANCH  33  34
ENDBRANCH  28  33
ENDBRANCH  19  20
ENDBRANCH   1  19
TORSDOF 6
ENDMDL