MODEL 4
REMARK VINA RESULT: -8.571421210      5.384      8.231
REMARK  8 active torsions:
REMARK  status: ('A' for Active; 'I' for Inactive)
REMARK    1  A    between atoms: C7_7  and  O1_8
REMARK    2  A    between atoms: O1_8  and  C8_9
REMARK       I    between atoms: C8_9  and  N1_11
REMARK    3  A    between atoms: N1_11  and  C9_13
REMARK    4  A    between atoms: C16_20  and  C17_21
REMARK    5  A    between atoms: C17_21  and  O3_22
REMARK    6  A    between atoms: C17_21  and  N2_24
REMARK    7  A    between atoms: N2_24  and  C18_25
REMARK    8  A    between atoms: N2_24  and  S1_31
ROOT
HETATM    1  C9  UNL     1     135.161  88.228  67.134  1.00  0.00     0.095 C
HETATM    2  C10 UNL     1     136.681  88.265  67.115  1.00  0.00     0.010 C
HETATM    3  C11 UNL     1     137.198  88.280  68.529  1.00  0.00     0.011 C
HETATM    4  C12 UNL     1     136.801  86.971  69.191  1.00  0.00    -0.013 C
HETATM    5  C13 UNL     1     135.298  86.930  69.266  1.00  0.00     0.011 C
HETATM    6  C14 UNL     1     134.793  86.953  67.838  1.00  0.00     0.010 C
HETATM    7  C15 UNL     1     135.346  85.735  67.143  1.00  0.00     0.024 C
HETATM    8  C16 UNL     1     136.837  85.728  67.061  1.00  0.00     0.027 C
HETATM    9  C25 UNL     1     137.404  85.801  68.461  1.00  0.00     0.022 C
HETATM   10  C26 UNL     1     137.149  87.084  66.340  1.00  0.00     0.024 C
ENDROOT
BRANCH   8  11
HETATM   11  C17 UNL     1     137.462  84.725  66.222  1.00  0.00     0.140 C
BRANCH  11  12
HETATM   12  O3  UNL     1     137.147  83.491  66.630  1.00  0.00    -0.348 OA
ATOM     13  H3  UNL     1     137.918  83.018  66.919  1.00  0.00     0.219 HD
ENDBRANCH  11  12
BRANCH  11  14
HETATM   14  N2  UNL     1     138.292  84.678  65.106  1.00  0.00    -0.230 N
BRANCH  14  15
HETATM   15  C18 UNL     1     138.094  84.260  63.775  1.00  0.00     0.008 C
HETATM   16  C19 UNL     1     138.072  82.810  63.505  1.00  0.00     0.054 C
HETATM   17  C20 UNL     1     138.162  82.534  62.000  1.00  0.00     0.006 C
HETATM   18  C21 UNL     1     137.068  83.287  61.294  1.00  0.00     0.001 C
HETATM   19  C22 UNL     1     137.245  84.755  61.531  1.00  0.00     0.006 C
HETATM   20  C23 UNL     1     136.977  85.015  63.047  1.00  0.00     0.054 C
ENDBRANCH  14  15
BRANCH  14  21
HETATM   21  S1  UNL     1     140.020  85.175  65.360  1.00  0.00     0.234 S
HETATM   22  C24 UNL     1     140.247  86.804  64.702  1.00  0.00     0.186 C
HETATM   23  O4  UNL     1     140.315  85.084  66.825  1.00  0.00    -0.205 OA
HETATM   24  O5  UNL     1     140.923  84.261  64.633  1.00  0.00    -0.205 OA
ENDBRANCH  14  21
ENDBRANCH  11  14
ENDBRANCH   8  11
BRANCH   1  25
HETATM   25  N1  UNL     1     134.559  89.339  67.792  1.00  0.00    -0.332 N
HETATM   26  C8  UNL     1     134.590  90.673  67.267  1.00  0.00     0.361 C
HETATM   27  O2  UNL     1     135.170  90.877  66.175  1.00  0.00    -0.238 OA
ATOM     28  H1  UNL     1     134.082  89.177  68.680  1.00  0.00     0.165 HD
BRANCH  26  29
HETATM   29  O1  UNL     1     134.019  91.740  67.893  1.00  0.00    -0.298 OA
BRANCH  29  30
HETATM   30  C7  UNL     1     134.674  92.721  68.663  1.00  0.00     0.141 C
HETATM   31  C2  UNL     1     133.595  93.426  69.462  1.00  0.00    -0.021 C
HETATM   32  C1  UNL     1     132.534  94.050  68.591  1.00  0.00     0.017 C
HETATM   33  C3  UNL     1     134.149  94.419  70.455  1.00  0.00     0.017 C
HETATM   34  C4  UNL     1     133.043  92.233  70.255  1.00  0.00     0.011 C
HETATM   35  C5  UNL     1     134.243  91.289  70.438  1.00  0.00     0.003 C
HETATM   36  C6  UNL     1     135.413  92.052  69.843  1.00  0.00     0.033 C
ENDBRANCH  29  30
ENDBRANCH  26  29
ENDBRANCH   1  25
TORSDOF 8
ENDMDL