MODEL 5
REMARK VINA RESULT: -9.935955926      1.134      1.412
REMARK  5 active torsions:
REMARK  status: ('A' for Active; 'I' for Inactive)
REMARK    1  A    between atoms: C1_2  and  C2_3
REMARK       I    between atoms: C1_2  and  N2_10
REMARK    2  A    between atoms: C2_3  and  N1_4
REMARK    3  A    between atoms: N2_10  and  C8_12
REMARK    4  A    between atoms: C11_15  and  C12_16
REMARK    5  A    between atoms: C12_16  and  N3_17
ROOT
HETATM    1  N3  UNL     1     135.577  88.498  68.308  1.00  0.00    -0.393 N
HETATM    2  C13 UNL     1     136.807  88.855  67.712  1.00  0.00     0.123 C
HETATM    3  C14 UNL     1     137.353  87.765  66.793  1.00  0.00     0.034 C
HETATM    4  C15 UNL     1     136.373  87.386  65.742  1.00  0.00    -0.010 C
HETATM    5  C16 UNL     1     136.113  88.557  64.815  1.00  0.00     0.015 C
HETATM    6  C17 UNL     1     135.064  88.228  63.783  1.00  0.00     0.006 C
HETATM    7  C18 UNL     1     134.943  86.771  63.494  1.00  0.00     0.039 C
HETATM    8  C19 UNL     1     136.178  85.998  63.749  1.00  0.00    -0.048 A
HETATM    9  C20 UNL     1     136.644  85.008  62.939  1.00  0.00     0.047 A
HETATM   10  C21 UNL     1     137.811  84.316  63.225  1.00  0.00     0.105 A
HETATM   11  C22 UNL     1     138.555  84.603  64.353  1.00  0.00     0.105 A
HETATM   12  C23 UNL     1     138.077  85.608  65.169  1.00  0.00     0.048 A
HETATM   13  C24 UNL     1     136.917  86.302  64.893  1.00  0.00    -0.040 A
HETATM   14  O2  UNL     1     139.665  83.751  64.375  1.00  0.00    -0.323 OA
HETATM   15  C25 UNL     1     139.410  82.662  63.480  1.00  0.00     0.352 C
HETATM   16  O3  UNL     1     138.485  83.288  62.578  1.00  0.00    -0.323 OA
HETATM   17  C26 UNL     1     135.096  86.958  66.432  1.00  0.00     0.034 C
HETATM   18  C27 UNL     1     135.182  87.168  67.927  1.00  0.00     0.123 C
ENDROOT
BRANCH   1  19
HETATM   19  C12 UNL     1     134.536  89.447  68.312  1.00  0.00     0.062 C
BRANCH  19  20
HETATM   20  C11 UNL     1     134.765  90.789  67.754  1.00  0.00     0.024 C
HETATM   21  C10 UNL     1     133.942  91.846  68.402  1.00  0.00     0.012 C
HETATM   22  C9  UNL     1     134.375  93.243  67.882  1.00  0.00     0.026 C
HETATM   23  C8  UNL     1     133.980  93.187  66.397  1.00  0.00     0.084 C
HETATM   24  C29 UNL     1     134.895  92.227  65.722  1.00  0.00     0.026 C
HETATM   25  C28 UNL     1     134.656  90.822  66.240  1.00  0.00     0.012 C
BRANCH  23  26
HETATM   26  N2  UNL     1     134.079  94.545  65.891  1.00  0.00    -0.355 N
HETATM   27  C1  UNL     1     133.304  94.902  64.769  1.00  0.00     0.246 C
HETATM   28  O1  UNL     1     132.570  93.966  64.283  1.00  0.00    -0.272 OA
ATOM     29  H2  UNL     1     134.695  95.225  66.338  1.00  0.00     0.162 HD
BRANCH  27  30
HETATM   30  C2  UNL     1     133.249  96.207  64.101  1.00  0.00     0.374 C
BRANCH  30  31
HETATM   31  N1  UNL     1     134.405  96.999  64.397  1.00  0.00     0.097 N
HETATM   32  C3  UNL     1     135.437  96.796  63.368  1.00  0.00     0.273 C
HETATM   33  C4  UNL     1     134.949  97.226  62.012  1.00  0.00     0.030 C
HETATM   34  C5  UNL     1     134.277  98.581  62.052  1.00  0.00     0.003 C
HETATM   35  C6  UNL     1     134.669  99.224  63.342  1.00  0.00     0.030 C
HETATM   36  C7  UNL     1     134.094  98.419  64.481  1.00  0.00     0.273 C
ENDBRANCH  30  31
ENDBRANCH  27  30
ENDBRANCH  23  26
ENDBRANCH  19  20
ENDBRANCH   1  19
TORSDOF 5
ENDMDL