MODEL 4
REMARK VINA RESULT: -9.191824112      1.907      2.672
REMARK  7 active torsions:
REMARK  status: ('A' for Active; 'I' for Inactive)
REMARK    1  A    between atoms: C4_4  and  O1_6
REMARK    2  A    between atoms: O1_6  and  C6_7
REMARK    3  A    between atoms: C22_25  and  C24_27
REMARK    4  A    between atoms: C24_27  and  C25_28
REMARK    5  A    between atoms: C26_29  and  C27_30
REMARK       I    between atoms: C27_30  and  N2_32
REMARK    6  A    between atoms: N2_32  and  O4_33
REMARK    7  A    between atoms: N2_32  and  C28_35
ROOT
HETATM    1  C1  UNL     1     133.075  83.486  59.412  1.00  0.00     0.017 C
HETATM    2  C2  UNL     1     133.012  84.328  60.266  1.00  0.00    -0.087 C
HETATM    3  C3  UNL     1     132.947  85.327  61.262  1.00  0.00     0.095 C
HETATM    4  C4  UNL     1     133.099  86.620  61.023  1.00  0.00     0.051 C
HETATM    5  C5  UNL     1     133.353  87.032  59.618  1.00  0.00     0.077 C
ENDROOT
BRANCH   4   6
HETATM    6  O1  UNL     1     133.032  87.583  62.006  1.00  0.00    -0.349 OA
BRANCH   6   7
HETATM    7  C6  UNL     1     134.132  88.327  62.489  1.00  0.00     0.133 C
HETATM    8  C7  UNL     1     133.701  89.059  63.747  1.00  0.00     0.033 C
HETATM    9  C8  UNL     1     133.790  88.187  64.965  1.00  0.00     0.008 C
HETATM   10  C9  UNL     1     135.085  87.873  65.531  1.00  0.00     0.000 C
HETATM   11  C10 UNL     1     136.353  88.181  64.832  1.00  0.00    -0.004 C
HETATM   12  C18 UNL     1     135.156  88.494  66.937  1.00  0.00    -0.019 C
HETATM   13  C11 UNL     1     137.450  87.307  65.473  1.00  0.00     0.007 C
HETATM   14  C20 UNL     1     136.381  88.216  63.379  1.00  0.00     0.006 A
HETATM   15  C12 UNL     1     137.277  87.232  66.976  1.00  0.00     0.026 C
HETATM   16  C13 UNL     1     136.584  88.442  67.437  1.00  0.00     0.095 C
HETATM   17  N1  UNL     1     136.467  88.543  68.894  1.00  0.00    -0.351 N
HETATM   18  C14 UNL     1     137.120  87.702  69.834  1.00  0.00     0.153 C
HETATM   19  C15 UNL     1     135.592  89.627  69.280  1.00  0.00     0.219 C
HETATM   20  O2  UNL     1     135.147  89.680  70.438  1.00  0.00    -0.273 OA
HETATM   21  C16 UNL     1     135.309  90.605  68.196  1.00  0.00     0.103 C
HETATM   22  C17 UNL     1     134.762  89.947  66.939  1.00  0.00     0.020 C
HETATM   23  C21 UNL     1     135.179  87.346  62.925  1.00  0.00     0.029 A
HETATM   24  C22 UNL     1     136.523  87.239  62.340  1.00  0.00    -0.030 A
HETATM   25  C23 UNL     1     136.517  87.734  60.881  1.00  0.00     0.016 C
HETATM   26  C19 UNL     1     134.192  87.764  67.834  1.00  0.00     0.018 C
BRANCH  24  27
HETATM   27  C24 UNL     1     137.271  85.927  62.419  1.00  0.00     0.037 C
BRANCH  27  28
HETATM   28  C25 UNL     1     136.442  84.769  62.068  1.00  0.00    -0.020 C
HETATM   29  C26 UNL     1     136.741  83.511  62.000  1.00  0.00     0.072 C
BRANCH  29  30
HETATM   30  C27 UNL     1     137.976  82.823  62.240  1.00  0.00     0.267 C
HETATM   31  O3  UNL     1     138.735  82.493  61.302  1.00  0.00    -0.266 OA
HETATM   32  N2  UNL     1     138.413  82.475  63.566  1.00  0.00    -0.212 N
BRANCH  32  33
HETATM   33  O4  UNL     1     139.587  81.831  63.692  1.00  0.00    -0.284 OA
ATOM     34  H4  UNL     1     140.346  82.340  63.951  1.00  0.00     0.245 HD
ENDBRANCH  32  33
BRANCH  32  35
HETATM   35  C28 UNL     1     137.629  82.797  64.747  1.00  0.00     0.283 C
HETATM   36  C29 UNL     1     138.455  83.285  65.846  1.00  0.00     0.081 C
HETATM   37  N3  UNL     1     139.108  83.671  66.716  1.00  0.00    -0.195 NA
ENDBRANCH  32  35
ENDBRANCH  29  30
ENDBRANCH  27  28
ENDBRANCH  24  27
ENDBRANCH   6   7
ENDBRANCH   4   6
TORSDOF 7
ENDMDL