MODEL 5
REMARK VINA RESULT: -9.531283118      1.363      2.247
REMARK  7 active torsions:
REMARK  status: ('A' for Active; 'I' for Inactive)
REMARK    1  A    between atoms: C4_5  and  C5_6
REMARK    2  A    between atoms: C5_6  and  N1_7
REMARK    3  A    between atoms: N2_10  and  C8_11
REMARK    4  A    between atoms: C8_11  and  C9_12
REMARK    5  A    between atoms: N3_15  and  C12_16
REMARK    6  A    between atoms: C12_16  and  C13_17
REMARK    7  A    between atoms: C24_28  and  O2_29
ROOT
HETATM    1  N1  UNL     1     135.823  88.841  65.562  1.00  0.00     0.095 N
HETATM    2  C6  UNL     1     134.430  89.243  65.225  1.00  0.00     0.293 C
HETATM    3  C7  UNL     1     134.492  90.757  64.998  1.00  0.00     0.157 C
HETATM    4  N2  UNL     1     134.463  91.354  66.292  1.00  0.00    -0.370 N
HETATM    5  C20 UNL     1     135.090  90.541  67.239  1.00  0.00     0.093 C
HETATM    6  C21 UNL     1     136.133  89.566  66.745  1.00  0.00     0.317 C
ENDROOT
BRANCH   1   7
HETATM    7  C5  UNL     1     135.877  87.424  65.591  1.00  0.00     0.282 C
BRANCH   7   8
HETATM    8  C4  UNL     1     137.156  86.724  65.268  1.00  0.00    -0.008 C
HETATM    9  C3  UNL     1     138.198  87.723  64.845  1.00  0.00     0.019 C
HETATM   10  C2  UNL     1     139.602  87.099  64.811  1.00  0.00     0.080 C
HETATM   11  C1  UNL     1     139.564  85.629  64.963  1.00  0.00     0.139 C
HETATM   12  O1  UNL     1     140.178  84.891  64.215  1.00  0.00    -0.297 OA
HETATM   13  C30 UNL     1     138.762  85.045  66.049  1.00  0.00     0.056 C
HETATM   14  C24 UNL     1     137.841  83.936  65.589  1.00  0.00     0.073 C
HETATM   15  C29 UNL     1     139.561  84.525  67.200  1.00  0.00     0.021 C
HETATM   16  C31 UNL     1     137.743  86.070  66.488  1.00  0.00     0.019 C
HETATM   17  C23 UNL     1     137.101  84.340  64.354  1.00  0.00     0.040 C
HETATM   18  C25 UNL     1     136.815  83.844  66.716  1.00  0.00     0.044 C
HETATM   19  C22 UNL     1     136.981  85.782  64.103  1.00  0.00     0.014 C
HETATM   20  C26 UNL     1     136.847  85.241  67.319  1.00  0.00    -0.006 C
HETATM   21  C27 UNL     1     137.563  85.052  68.668  1.00  0.00     0.005 C
HETATM   22  C28 UNL     1     139.037  84.918  68.541  1.00  0.00     0.002 C
BRANCH  14  23
HETATM   23  O2  UNL     1     138.486  82.724  65.506  1.00  0.00    -0.389 OA
ATOM     24  H2  UNL     1     139.244  82.635  66.072  1.00  0.00     0.210 HD
ENDBRANCH  14  23
ENDBRANCH   7   8
ENDBRANCH   1   7
BRANCH   4  25
HETATM   25  C8  UNL     1     134.675  92.737  66.259  1.00  0.00     0.069 C
BRANCH  25  26
HETATM   26  C9  UNL     1     134.864  93.318  64.878  1.00  0.00     0.054 C
HETATM   27  C10 UNL     1     136.002  94.298  64.822  1.00  0.00     0.042 C
HETATM   28  C11 UNL     1     135.377  95.602  65.172  1.00  0.00     0.273 C
HETATM   29  N3  UNL     1     133.945  95.503  65.001  1.00  0.00     0.093 N
HETATM   30  C19 UNL     1     133.630  94.175  64.586  1.00  0.00     0.282 C
BRANCH  29  31
HETATM   31  C12 UNL     1     133.444  96.529  64.117  1.00  0.00     0.311 C
BRANCH  31  32
HETATM   32  C13 UNL     1     134.472  97.152  63.260  1.00  0.00    -0.030 A
HETATM   33  C14 UNL     1     135.111  96.434  62.252  1.00  0.00     0.009 A
HETATM   34  C15 UNL     1     136.056  96.997  61.428  1.00  0.00     0.001 A
HETATM   35  C16 UNL     1     136.411  98.304  61.570  1.00  0.00     0.000 A
HETATM   36  C17 UNL     1     135.809  99.059  62.550  1.00  0.00     0.001 A
HETATM   37  C18 UNL     1     134.859  98.485  63.377  1.00  0.00     0.009 A
ENDBRANCH  31  32
ENDBRANCH  29  31
ENDBRANCH  25  26
ENDBRANCH   4  25
TORSDOF 7
ENDMDL