MODEL 2
REMARK VINA RESULT: -9.506984782      0.996      1.270
REMARK  7 active torsions:
REMARK  status: ('A' for Active; 'I' for Inactive)
REMARK    1  A    between atoms: C5_5  and  C7_7
REMARK    2  A    between atoms: C7_7  and  C8_8
REMARK    3  A    between atoms: C9_9  and  C11_11
REMARK    4  A    between atoms: C14_15  and  O1_16
REMARK    5  A    between atoms: C20_24  and  C21_25
REMARK    6  A    between atoms: C21_25  and  S1_26
REMARK    7  A    between atoms: S1_26  and  N2_29
ROOT
HETATM    1  C11 UNL     1     134.675  91.440  67.144  1.00  0.00     0.157 C
HETATM    2  C12 UNL     1     133.903  92.700  67.330  1.00  0.00     0.063 C
HETATM    3  N1  UNL     1     133.306  93.675  67.471  1.00  0.00    -0.197 NA
ENDROOT
BRANCH   1   4
HETATM    4  C9  UNL     1     134.824  90.717  68.408  1.00  0.00    -0.074 C
HETATM    5  C8  UNL     1     135.008  89.429  68.526  1.00  0.00    -0.023 C
HETATM    6  C10 UNL     1     134.746  91.545  69.663  1.00  0.00     0.044 C
BRANCH   5   7
HETATM    7  C7  UNL     1     135.102  88.515  67.403  1.00  0.00     0.036 C
BRANCH   7   8
HETATM    8  C5  UNL     1     136.476  87.877  67.168  1.00  0.00    -0.038 C
HETATM    9  C4  UNL     1     137.160  88.631  66.097  1.00  0.00     0.014 C
HETATM   10  C3  UNL     1     137.026  88.146  64.722  1.00  0.00     0.035 C
HETATM   11  C2  UNL     1     137.726  86.919  64.437  1.00  0.00    -0.076 C
HETATM   12  C1  UNL     1     138.396  86.936  63.280  1.00  0.00     0.015 C
HETATM   13  C20 UNL     1     137.825  85.576  65.111  1.00  0.00     0.039 C
HETATM   14  C14 UNL     1     137.349  85.564  66.505  1.00  0.00     0.082 C
HETATM   15  C18 UNL     1     139.279  85.234  65.217  1.00  0.00     0.068 C
HETATM   16  C13 UNL     1     136.258  86.454  66.934  1.00  0.00     0.049 C
HETATM   17  C15 UNL     1     138.537  85.523  67.443  1.00  0.00     0.087 C
HETATM   18  C16 UNL     1     138.266  84.639  68.669  1.00  0.00     0.021 C
HETATM   19  C17 UNL     1     139.489  84.715  66.629  1.00  0.00     0.138 C
HETATM   20  O2  UNL     1     140.259  83.858  66.933  1.00  0.00    -0.297 OA
HETATM   21  C19 UNL     1     140.271  86.361  65.126  1.00  0.00     0.019 C
HETATM   22  C6  UNL     1     137.205  88.228  68.476  1.00  0.00     0.015 C
BRANCH  13  23
HETATM   23  C21 UNL     1     137.044  84.724  64.175  1.00  0.00     0.181 C
BRANCH  23  24
HETATM   24  S1  UNL     1     137.567  83.526  63.116  1.00  0.00     0.230 S
HETATM   25  O3  UNL     1     139.037  83.315  62.874  1.00  0.00    -0.206 OA
HETATM   26  O4  UNL     1     137.236  82.154  63.828  1.00  0.00    -0.206 OA
BRANCH  24  27
HETATM   27  N2  UNL     1     136.652  83.400  61.673  1.00  0.00    -0.306 N
HETATM   28  C22 UNL     1     136.028  84.586  61.219  1.00  0.00     0.135 C
HETATM   29  C23 UNL     1     135.224  84.395  59.954  1.00  0.00     0.021 C
HETATM   30  C24 UNL     1     134.987  82.939  59.642  1.00  0.00     0.004 C
HETATM   31  C25 UNL     1     136.191  82.070  59.746  1.00  0.00     0.026 C
HETATM   32  C26 UNL     1     137.261  82.590  60.664  1.00  0.00     0.091 C
HETATM   33  C27 UNL     1     138.342  83.299  59.885  1.00  0.00     0.033 C
ENDBRANCH  24  27
ENDBRANCH  23  24
ENDBRANCH  13  23
BRANCH  14  34
HETATM   34  O1  UNL     1     136.802  84.289  66.722  1.00  0.00    -0.388 OA
ATOM     35  H1  UNL     1     136.444  84.367  67.599  1.00  0.00     0.210 HD
ENDBRANCH  14  34
ENDBRANCH   7   8
ENDBRANCH   5   7
ENDBRANCH   1   4
TORSDOF 7
ENDMDL