MODEL 3
REMARK VINA RESULT: -9.609549545      3.008      5.878
REMARK  5 active torsions:
REMARK  status: ('A' for Active; 'I' for Inactive)
REMARK    1  A    between atoms: N1_22  and  C20_23
REMARK    2  A    between atoms: C20_23  and  C21_24
REMARK    3  A    between atoms: C27_30  and  C28_31
REMARK       I    between atoms: C28_31  and  N2_33
REMARK    4  A    between atoms: N2_33  and  C29_35
REMARK    5  A    between atoms: C29_35  and  C30_36
ROOT
HETATM    1  C1  UNL     1     138.925  83.778  64.106  1.00  0.00     0.018 C
HETATM    2  C2  UNL     1     137.942  84.649  64.811  1.00  0.00    -0.002 C
HETATM    3  C3  UNL     1     137.273  83.786  65.892  1.00  0.00     0.018 C
HETATM    4  C4  UNL     1     136.888  85.209  63.891  1.00  0.00     0.036 C
HETATM    5  C5  UNL     1     137.028  84.828  62.465  1.00  0.00     0.086 C
HETATM    6  C6  UNL     1     136.499  85.890  61.579  1.00  0.00     0.137 C
HETATM    7  O1  UNL     1     136.357  85.552  60.404  1.00  0.00    -0.297 OA
HETATM    8  C7  UNL     1     136.132  87.267  61.932  1.00  0.00     0.033 C
HETATM    9  C8  UNL     1     137.168  88.271  61.394  1.00  0.00     0.025 C
HETATM   10  C9  UNL     1     135.998  87.467  63.446  1.00  0.00     0.036 C
HETATM   11  C10 UNL     1     134.662  87.209  63.975  1.00  0.00     0.008 C
HETATM   12  C11 UNL     1     133.560  86.748  63.110  1.00  0.00     0.006 C
HETATM   13  C12 UNL     1     133.845  86.598  61.664  1.00  0.00     0.006 C
HETATM   14  C13 UNL     1     132.545  86.809  60.879  1.00  0.00     0.088 C
HETATM   15  C14 UNL     1     132.270  88.268  60.748  1.00  0.00     0.149 C
HETATM   16  O2  UNL     1     131.287  88.610  60.050  1.00  0.00    -0.293 OA
HETATM   17  C15 UNL     1     133.101  89.273  61.398  1.00  0.00     0.047 C
HETATM   18  C16 UNL     1     134.357  88.969  61.645  1.00  0.00    -0.012 C
HETATM   19  C17 UNL     1     134.837  87.621  61.241  1.00  0.00    -0.008 C
HETATM   20  C18 UNL     1     135.013  87.662  59.746  1.00  0.00     0.021 C
HETATM   21  C19 UNL     1     137.138  86.675  64.015  1.00  0.00     0.234 C
HETATM   22  N1  UNL     1     137.657  86.980  65.280  1.00  0.00     0.108 N
HETATM   23  C27 UNL     1     138.536  85.837  65.530  1.00  0.00     0.322 C
ENDROOT
BRANCH  22  24
HETATM   24  C20 UNL     1     136.769  87.273  66.338  1.00  0.00     0.278 C
BRANCH  24  25
HETATM   25  C21 UNL     1     137.056  88.641  66.914  1.00  0.00     0.014 C
HETATM   26  C22 UNL     1     136.201  89.728  66.249  1.00  0.00     0.006 C
HETATM   27  C23 UNL     1     134.868  89.729  66.937  1.00  0.00     0.000 C
HETATM   28  C24 UNL     1     134.946  90.398  68.313  1.00  0.00     0.000 C
HETATM   29  C25 UNL     1     136.339  90.096  68.838  1.00  0.00     0.000 C
HETATM   30  C26 UNL     1     136.680  88.695  68.396  1.00  0.00     0.006 C
ENDBRANCH  24  25
ENDBRANCH  22  24
BRANCH  23  31
HETATM   31  C28 UNL     1     139.893  86.205  65.059  1.00  0.00     0.252 C
HETATM   32  O3  UNL     1     140.896  85.416  65.131  1.00  0.00    -0.271 OA
HETATM   33  N2  UNL     1     140.195  87.476  64.480  1.00  0.00    -0.353 N
ATOM     34  H2  UNL     1     139.435  88.150  64.391  1.00  0.00     0.162 HD
BRANCH  33  35
HETATM   35  C29 UNL     1     141.486  87.866  64.018  1.00  0.00     0.192 C
BRANCH  35  36
HETATM   36  C30 UNL     1     141.371  89.002  63.074  1.00  0.00     0.250 C
HETATM   37  O4  UNL     1     140.528  88.979  62.206  1.00  0.00    -0.305 OA
ENDBRANCH  35  36
ENDBRANCH  33  35
ENDBRANCH  23  31
TORSDOF 5
ENDMDL