MODEL 1
REMARK VINA RESULT: -9.953772027      0.000      0.000
REMARK  9 active torsions:
REMARK  status: ('A' for Active; 'I' for Inactive)
REMARK    1  A    between atoms: N2_3  and  C2_4
REMARK    2  A    between atoms: N2_3  and  C11_18
REMARK    3  A    between atoms: C2_4  and  O1_5
REMARK    4  A    between atoms: C2_4  and  C3_7
REMARK    5  A    between atoms: C3_7  and  N3_8
REMARK       I    between atoms: N3_8  and  C4_10
REMARK    6  A    between atoms: C4_10  and  C5_12
REMARK    7  A    between atoms: C11_18  and  O3_19
REMARK    8  A    between atoms: C18_27  and  C19_28
REMARK    9  A    between atoms: N4_33  and  C23_34
ROOT
HETATM    1  N1  UNL     1     138.920  84.685  69.466  1.00  0.00    -0.171 NA
HETATM    2  C1  UNL     1     138.063  85.223  68.909  1.00  0.00     0.193 C
HETATM    3  N2  UNL     1     136.945  85.900  68.173  1.00  0.00    -0.209 N
ENDROOT
BRANCH   3   4
HETATM    4  C2  UNL     1     136.405  86.903  68.957  1.00  0.00     0.151 C
BRANCH   4   5
HETATM    5  O1  UNL     1     135.422  86.481  69.744  1.00  0.00    -0.347 OA
ATOM      6  H1  UNL     1     135.172  87.116  70.405  1.00  0.00     0.219 HD
ENDBRANCH   4   5
BRANCH   4   7
HETATM    7  C3  UNL     1     136.665  88.320  69.121  1.00  0.00     0.208 C
BRANCH   7   8
HETATM    8  N3  UNL     1     135.763  89.118  68.283  1.00  0.00    -0.353 N
HETATM    9  C4  UNL     1     135.421  90.419  68.681  1.00  0.00     0.222 C
HETATM   10  O2  UNL     1     135.796  91.013  69.719  1.00  0.00    -0.273 OA
ATOM     11  H3  UNL     1     135.388  88.730  67.418  1.00  0.00     0.162 HD
BRANCH   9  12
HETATM   12  C5  UNL     1     134.505  91.210  67.787  1.00  0.00     0.078 C
HETATM   13  C6  UNL     1     135.187  91.571  66.488  1.00  0.00     0.014 C
HETATM   14  C7  UNL     1     134.170  92.344  65.660  1.00  0.00     0.001 C
HETATM   15  C8  UNL     1     133.935  93.649  66.377  1.00  0.00     0.000 C
HETATM   16  C9  UNL     1     133.307  93.403  67.722  1.00  0.00     0.001 C
HETATM   17  C10 UNL     1     134.102  92.443  68.561  1.00  0.00     0.014 C
ENDBRANCH   9  12
ENDBRANCH   7   8
ENDBRANCH   4   7
ENDBRANCH   3   4
BRANCH   3  18
HETATM   18  C11 UNL     1     136.758  85.331  66.927  1.00  0.00     0.160 C
HETATM   19  C12 UNL     1     136.666  85.730  65.550  1.00  0.00    -0.019 C
HETATM   20  C13 UNL     1     135.863  86.897  65.139  1.00  0.00     0.064 C
HETATM   21  C17 UNL     1     138.021  85.686  64.873  1.00  0.00     0.048 C
HETATM   22  C14 UNL     1     136.623  87.523  63.959  1.00  0.00     0.089 C
HETATM   23  C15 UNL     1     137.941  88.043  64.387  1.00  0.00     0.026 C
HETATM   24  N4  UNL     1     136.723  86.352  63.024  1.00  0.00    -0.371 N
HETATM   25  C16 UNL     1     138.742  86.972  65.128  1.00  0.00     0.013 C
HETATM   26  C18 UNL     1     137.855  85.623  63.324  1.00  0.00     0.150 C
BRANCH  18  27
HETATM   27  O3  UNL     1     136.629  83.991  67.040  1.00  0.00    -0.345 OA
ATOM     28  H3  UNL     1     136.709  83.580  66.188  1.00  0.00     0.219 HD
ENDBRANCH  18  27
BRANCH  24  29
HETATM   29  C23 UNL     1     136.200  86.710  61.809  1.00  0.00    -0.015 C
HETATM   30  C24 UNL     1     134.768  86.431  61.462  1.00  0.00     0.052 C
HETATM   31  C25 UNL     1     134.120  87.831  61.456  1.00  0.00     0.006 C
HETATM   32  C26 UNL     1     135.188  88.636  60.757  1.00  0.00     0.006 C
HETATM   33  C27 UNL     1     136.505  88.026  61.167  1.00  0.00     0.052 C
ENDBRANCH  24  29
BRANCH  26  34
HETATM   34  C19 UNL     1     138.045  84.238  62.872  1.00  0.00     0.076 A
HETATM   35  C20 UNL     1     138.417  83.147  63.623  1.00  0.00     0.037 A
HETATM   36  C21 UNL     1     138.474  82.064  62.776  1.00  0.00     0.027 A
HETATM   37  C22 UNL     1     138.130  82.544  61.538  1.00  0.00     0.142 A
HETATM   38  O4  UNL     1     137.891  83.813  61.652  1.00  0.00    -0.325 OA
ENDBRANCH  26  34
ENDBRANCH   3  18
TORSDOF 9
ENDMDL