MODEL 5
REMARK VINA RESULT: -9.920443652      2.752      4.083
REMARK  6 active torsions:
REMARK  status: ('A' for Active; 'I' for Inactive)
REMARK    1  A    between atoms: C7_7  and  O1_8
REMARK    2  A    between atoms: O1_8  and  C8_9
REMARK    3  A    between atoms: C8_9  and  C9_11
REMARK       I    between atoms: N1_14  and  C12_15
REMARK    4  A    between atoms: C12_15  and  C13_17
REMARK    5  A    between atoms: C13_17  and  C14_18
REMARK    6  A    between atoms: C14_18  and  C15_19
ROOT
HETATM    1  C1  UNL     1     135.462  88.875  70.096  1.00  0.00     0.013 C
HETATM    2  C2  UNL     1     135.331  88.467  68.633  1.00  0.00     0.023 C
HETATM    3  C3  UNL     1     134.459  89.402  67.917  1.00  0.00    -0.003 C
HETATM    4  C4  UNL     1     134.646  90.850  68.413  1.00  0.00     0.010 C
HETATM    5  C5  UNL     1     133.795  91.549  67.370  1.00  0.00    -0.007 C
HETATM    6  C6  UNL     1     133.947  93.047  67.438  1.00  0.00     0.037 C
HETATM    7  C7  UNL     1     133.981  93.603  66.035  1.00  0.00     0.132 C
HETATM    8  C16 UNL     1     135.215  93.177  65.286  1.00  0.00     0.033 C
HETATM    9  C17 UNL     1     135.573  91.749  65.627  1.00  0.00     0.008 C
HETATM   10  C18 UNL     1     134.351  90.980  66.088  1.00  0.00    -0.006 C
HETATM   11  C19 UNL     1     134.640  89.548  66.448  1.00  0.00    -0.005 C
HETATM   12  C20 UNL     1     135.949  89.078  65.907  1.00  0.00     0.018 C
HETATM   13  C21 UNL     1     136.503  87.855  66.600  1.00  0.00    -0.002 C
HETATM   14  C22 UNL     1     135.595  86.684  66.417  1.00  0.00     0.013 C
HETATM   15  C23 UNL     1     136.140  85.893  65.221  1.00  0.00     0.006 C
HETATM   16  C24 UNL     1     137.620  86.202  65.221  1.00  0.00    -0.009 A
HETATM   17  C25 UNL     1     138.375  86.154  66.506  1.00  0.00     0.011 A
HETATM   18  C26 UNL     1     137.809  87.452  65.960  1.00  0.00     0.001 A
HETATM   19  C27 UNL     1     136.696  88.265  68.044  1.00  0.00     0.094 A
HETATM   20  C28 UNL     1     137.873  88.958  68.421  1.00  0.00     0.208 A
HETATM   21  O6  UNL     1     137.648  87.655  68.816  1.00  0.00    -0.374 OA
ENDROOT
BRANCH   7  22
HETATM   22  O1  UNL     1     133.814  94.999  66.044  1.00  0.00    -0.314 OA
BRANCH  22  23
HETATM   23  C8  UNL     1     134.698  95.891  65.511  1.00  0.00     0.282 C
HETATM   24  O2  UNL     1     135.469  96.473  66.352  1.00  0.00    -0.263 OA
BRANCH  23  25
HETATM   25  C9  UNL     1     134.878  96.263  64.109  1.00  0.00     0.188 C
HETATM   26  C10 UNL     1     136.293  96.137  63.583  1.00  0.00     0.055 C
HETATM   27  C11 UNL     1     135.867  97.288  62.697  1.00  0.00     0.129 C
HETATM   28  N1  UNL     1     134.934  97.658  63.772  1.00  0.00    -0.338 N
HETATM   29  C12 UNL     1     134.394  98.894  64.188  1.00  0.00     0.221 C
HETATM   30  O3  UNL     1     133.588  98.965  65.145  1.00  0.00    -0.273 OA
BRANCH  29  31
HETATM   31  C13 UNL     1     134.773 100.171  63.490  1.00  0.00     0.113 C
BRANCH  31  32
HETATM   32  C14 UNL     1     133.840 100.437  62.334  1.00  0.00     0.122 C
BRANCH  32  33
HETATM   33  C15 UNL     1     134.323  99.818  61.078  1.00  0.00     0.172 C
HETATM   34  O4  UNL     1     135.506  99.908  60.670  1.00  0.00    -0.648 OA
HETATM   35  O5  UNL     1     133.431  99.096  60.298  1.00  0.00    -0.648 OA
ENDBRANCH  32  33
ENDBRANCH  31  32
ENDBRANCH  29  31
ENDBRANCH  23  25
ENDBRANCH  22  23
ENDBRANCH   7  22
TORSDOF 6
ENDMDL