MODEL 4
REMARK VINA RESULT: -8.169843201      4.871      9.176
REMARK  6 active torsions:
REMARK  status: ('A' for Active; 'I' for Inactive)
REMARK    1  A    between atoms: C2_2  and  C3_3
REMARK    2  A    between atoms: C4_5  and  C5_6
REMARK    3  A    between atoms: N1_7  and  N2_9
REMARK       I    between atoms: N2_9  and  C6_11
REMARK    4  A    between atoms: C6_11  and  C7_13
REMARK    5  A    between atoms: C7_13  and  O2_14
REMARK    6  A    between atoms: O2_14  and  C8_15
ROOT
HETATM    1  N2  UNL     1      -0.344 -39.931  -7.801  1.00  0.00    -0.269 N
ATOM      2  H2  UNL     1       0.556 -40.106  -7.354  1.00  0.00     0.190 HD
HETATM    3  C6  UNL     1      -0.406 -39.188  -9.006  1.00  0.00     0.260 C
HETATM    4  O1  UNL     1      -1.483 -38.964  -9.568  1.00  0.00    -0.269 OA
ENDROOT
BRANCH   1   5
HETATM    5  N1  UNL     1      -1.484 -40.410  -7.244  1.00  0.00    -0.308 N
HETATM    6  C5  UNL     1      -1.686 -40.791  -6.087  1.00  0.00     0.126 C
ATOM      7  H1  UNL     1      -2.288 -40.462  -7.869  1.00  0.00     0.186 HD
BRANCH   6   8
HETATM    8  C4  UNL     1      -0.737 -40.828  -4.998  1.00  0.00     0.023 A
HETATM    9  S1  UNL     1       0.090 -39.449  -4.339  1.00  0.00    -0.092 SA
HETATM   10  C3  UNL     1       1.007 -40.228  -3.132  1.00  0.00     0.000 A
HETATM   11  C15 UNL     1       0.646 -41.539  -3.273  1.00  0.00     0.025 A
HETATM   12  C14 UNL     1      -0.247 -41.833  -4.232  1.00  0.00     0.040 A
HETATM   13 BR1  UNL     1       1.448 -42.860  -2.085  1.00  0.00    -0.050 Br
BRANCH  10  14
HETATM   14  C2  UNL     1       1.984 -39.629  -2.141  1.00  0.00     0.043 C
HETATM   15  C1  UNL     1       1.212 -38.603  -1.359  1.00  0.00     0.010 C
ENDBRANCH  10  14
ENDBRANCH   6   8
ENDBRANCH   1   5
BRANCH   3  16
HETATM   16  C7  UNL     1       0.835 -38.662  -9.619  1.00  0.00     0.280 C
BRANCH  16  17
HETATM   17  O2  UNL     1       1.343 -39.612 -10.505  1.00  0.00    -0.340 OA
BRANCH  17  18
HETATM   18  C8  UNL     1       0.916 -39.629 -11.818  1.00  0.00     0.094 A
HETATM   19  C9  UNL     1       0.345 -38.536 -12.434  1.00  0.00     0.062 A
HETATM   20  C10 UNL     1      -0.054 -38.638 -13.752  1.00  0.00     0.038 A
HETATM   21 CL1  UNL     1      -0.777 -37.217 -14.497  1.00  0.00    -0.084 Cl
HETATM   22  C11 UNL     1       0.106 -39.808 -14.461  1.00  0.00     0.049 A
HETATM   23  C12 UNL     1       0.678 -40.875 -13.816  1.00  0.00     0.060 A
HETATM   24 CL2  UNL     1       0.878 -42.371 -14.742  1.00  0.00    -0.082 Cl
HETATM   25  C13 UNL     1       1.094 -40.832 -12.509  1.00  0.00     0.089 A
HETATM   26 CL3  UNL     1       1.820 -42.226 -11.729  1.00  0.00    -0.080 Cl
ENDBRANCH  17  18
ENDBRANCH  16  17
ENDBRANCH   3  16
TORSDOF 6
ENDMDL