MODEL 1
REMARK VINA RESULT: -10.231849341      0.000      0.000
REMARK  7 active torsions:
REMARK  status: ('A' for Active; 'I' for Inactive)
REMARK    1  A    between atoms: C3_4  and  N1_5
REMARK    2  A    between atoms: C10_14  and  C11_15
REMARK    3  A    between atoms: C11_15  and  C12_16
REMARK    4  A    between atoms: C12_16  and  N3_17
REMARK    5  A    between atoms: N3_17  and  C13_19
REMARK    6  A    between atoms: C13_19  and  C14_20
REMARK    7  A    between atoms: C14_20  and  C15_21
ROOT
HETATM    1  C12 UNL     1       0.684 -40.188  -5.070  1.00  0.00     0.044 C
HETATM    2  C20 UNL     1      -0.459 -40.751  -5.218  1.00  0.00     0.126 C
HETATM    3 CL2  UNL     1      -1.538 -40.124  -6.500  1.00  0.00    -0.069 Cl
HETATM    4 CL3  UNL     1      -1.115 -42.055  -4.289  1.00  0.00    -0.069 Cl
ENDROOT
BRANCH   1   5
HETATM    5  C11 UNL     1       1.727 -40.495  -4.130  1.00  0.00     0.117 C
BRANCH   5   6
HETATM    6  C10 UNL     1       1.514 -40.238  -2.672  1.00  0.00     0.029 A
HETATM    7  C2  UNL     1       1.399 -41.295  -1.763  1.00  0.00     0.005 A
HETATM    8  C1  UNL     1       1.436 -42.768  -2.039  1.00  0.00     0.058 C
HETATM    9  S1  UNL     1       1.224 -40.468  -0.289  1.00  0.00    -0.057 SA
HETATM   10  C3  UNL     1       1.301 -38.867  -0.860  1.00  0.00     0.147 A
HETATM   11  N2  UNL     1       1.457 -39.043  -2.155  1.00  0.00    -0.339 N
ATOM     12  H2  UNL     1       1.534 -38.229  -2.765  1.00  0.00     0.168 HD
BRANCH  10  13
HETATM   13  N1  UNL     1       1.210 -37.663  -0.090  1.00  0.00    -0.361 N
HETATM   14  C4  UNL     1       1.266 -36.409  -0.800  1.00  0.00     0.125 C
HETATM   15  C5  UNL     1       1.836 -35.295   0.039  1.00  0.00     0.024 C
HETATM   16  C6  UNL     1       2.764 -35.804   1.114  1.00  0.00    -0.015 C
HETATM   17  C7  UNL     1       3.183 -34.616   1.962  1.00  0.00     0.010 C
HETATM   18  C8  UNL     1       2.124 -36.812   2.016  1.00  0.00     0.024 C
HETATM   19  C9  UNL     1       1.069 -37.649   1.334  1.00  0.00     0.125 C
ENDBRANCH  10  13
ENDBRANCH   5   6
ENDBRANCH   1   5
BRANCH   1  20
HETATM   20  N3  UNL     1       1.006 -39.064  -5.971  1.00  0.00    -0.391 N
ATOM     21  H3  UNL     1       0.856 -38.112  -5.635  1.00  0.00     0.159 HD
BRANCH  20  22
HETATM   22  C13 UNL     1       1.515 -39.246  -7.280  1.00  0.00     0.124 C
BRANCH  22  23
HETATM   23  C14 UNL     1       1.048 -38.231  -8.301  1.00  0.00     0.059 C
BRANCH  23  24
HETATM   24  C15 UNL     1       0.479 -39.021  -9.445  1.00  0.00    -0.041 A
HETATM   25  C16 UNL     1       1.243 -39.958 -10.106  1.00  0.00     0.012 A
HETATM   26  C17 UNL     1       0.663 -40.665 -11.156  1.00  0.00     0.043 A
HETATM   27  C18 UNL     1      -0.650 -40.446 -11.541  1.00  0.00     0.103 A
HETATM   28 CL1  UNL     1      -1.338 -41.375 -12.880  1.00  0.00    -0.065 Cl
HETATM   29  N4  UNL     1      -1.356 -39.528 -10.870  1.00  0.00    -0.356 N
HETATM   30  C19 UNL     1      -0.817 -38.833  -9.854  1.00  0.00     0.096 A
ATOM     31  H4  UNL     1      -2.324 -39.352 -11.137  1.00  0.00     0.166 HD
ENDBRANCH  23  24
ENDBRANCH  22  23
ENDBRANCH  20  22
ENDBRANCH   1  20
TORSDOF 7
ENDMDL