MODEL 3
REMARK VINA RESULT: -2.924917716      3.157      6.780
REMARK  6 active torsions:
REMARK  status: ('A' for Active; 'I' for Inactive)
REMARK    1  A    between atoms: C2_2  and  C3_3
REMARK    2  A    between atoms: C3_3  and  N1_4
REMARK    3  A    between atoms: C7_12  and  S1_13
REMARK    4  A    between atoms: S1_13  and  C8_14
REMARK    5  A    between atoms: N4_22  and  C15_23
REMARK    6  A    between atoms: C15_23  and  C16_24
ROOT
HETATM    1  N1  UNL     1      -1.343 -38.223 -13.897  1.00  0.00    -0.334 N
HETATM    2  C4  UNL     1      -1.396 -39.484 -14.473  1.00  0.00     0.100 A
HETATM    3  N2  UNL     1      -1.966 -39.695 -15.629  1.00  0.00    -0.387 N
ATOM      4  H21 UNL     1      -2.005 -40.622 -16.053  1.00  0.00     0.157 HD
ATOM      5  H22 UNL     1      -2.347 -38.874 -16.101  1.00  0.00     0.157 HD
HETATM    6  C5  UNL     1      -0.842 -40.678 -13.786  1.00  0.00     0.201 A
HETATM    7  C6  UNL     1       0.366 -40.992 -14.616  1.00  0.00     0.077 C
HETATM    8  N3  UNL     1       1.312 -41.213 -15.279  1.00  0.00    -0.196 NA
HETATM    9  C7  UNL     1      -0.371 -40.476 -12.415  1.00  0.00     0.032 A
HETATM   10  C10 UNL     1      -0.332 -39.264 -11.804  1.00  0.00     0.078 A
HETATM   11  C11 UNL     1      -0.821 -38.131 -12.569  1.00  0.00     0.064 A
HETATM   12  C12 UNL     1      -0.728 -37.044 -11.820  1.00  0.00     0.052 A
HETATM   13  C13 UNL     1      -0.148 -37.396 -10.522  1.00  0.00     0.131 A
HETATM   14  C14 UNL     1       0.914 -36.485 -10.035  1.00  0.00     0.061 C
HETATM   15 CL1  UNL     1      -1.516 -37.217  -9.332  1.00  0.00    -0.091 Cl
HETATM   16  N4  UNL     1       0.172 -38.809 -10.548  1.00  0.00    -0.327 N
ENDROOT
BRANCH   9  17
HETATM   17  S1  UNL     1       0.038 -41.870 -11.401  1.00  0.00    -0.130 SA
BRANCH  17  18
HETATM   18  C8  UNL     1       1.470 -42.808 -11.799  1.00  0.00     0.075 C
HETATM   19  C9  UNL     1       2.766 -42.092 -11.981  1.00  0.00     0.016 C
ENDBRANCH  17  18
ENDBRANCH   9  17
BRANCH   1  20
HETATM   20  C3  UNL     1      -1.758 -37.042 -14.632  1.00  0.00     0.130 C
BRANCH  20  21
HETATM   21  C2  UNL     1      -0.858 -36.750 -15.820  1.00  0.00     0.016 C
HETATM   22  C1  UNL     1       0.496 -37.346 -15.498  1.00  0.00     0.006 C
ENDBRANCH  20  21
ENDBRANCH   1  20
BRANCH  16  23
HETATM   23  C15 UNL     1       0.842 -39.526  -9.551  1.00  0.00     0.111 C
BRANCH  23  24
HETATM   24  C16 UNL     1       0.321 -39.683  -8.209  1.00  0.00     0.060 A
HETATM   25  C17 UNL     1       1.090 -39.050  -7.207  1.00  0.00     0.131 A
HETATM   26  F1  UNL     1       2.213 -38.345  -7.579  1.00  0.00    -0.205 F
HETATM   27  C18 UNL     1       0.777 -39.103  -5.877  1.00  0.00     0.046 A
HETATM   28  C19 UNL     1      -0.336 -39.799  -5.476  1.00  0.00     0.048 A
HETATM   29  C20 UNL     1      -1.124 -40.435  -6.405  1.00  0.00     0.155 A
HETATM   30  F2  UNL     1      -2.231 -41.134  -6.063  1.00  0.00    -0.203 F
HETATM   31  C21 UNL     1      -0.770 -40.357  -7.745  1.00  0.00     0.169 A
HETATM   32  F3  UNL     1      -1.550 -40.989  -8.628  1.00  0.00    -0.202 F
ENDBRANCH  23  24
ENDBRANCH  16  23
TORSDOF 6
ENDMDL