MODEL 2
REMARK VINA RESULT: -8.933733577      1.594      1.840
REMARK  8 active torsions:
REMARK  status: ('A' for Active; 'I' for Inactive)
REMARK    1  A    between atoms: C5_8  and  C6_9
REMARK    2  A    between atoms: C6_9  and  O2_10
REMARK    3  A    between atoms: C6_9  and  C7_12
REMARK    4  A    between atoms: C7_12  and  O3_13
REMARK    5  A    between atoms: O3_13  and  C8_14
REMARK    6  A    between atoms: C8_14  and  C9_16
REMARK    7  A    between atoms: C9_16  and  C10_17
REMARK    8  A    between atoms: C10_17  and  C11_18
ROOT
HETATM    1  O3  UNL     1      -0.069 -40.120  -6.317  1.00  0.00    -0.315 OA
ENDROOT
BRANCH   1   2
HETATM    2  C7  UNL     1      -0.181 -39.735  -4.937  1.00  0.00     0.243 C
BRANCH   2   3
HETATM    3  C6  UNL     1       1.061 -40.063  -4.256  1.00  0.00     0.078 C
BRANCH   3   4
HETATM    4  C5  UNL     1       1.172 -40.580  -2.917  1.00  0.00     0.008 A
HETATM    5  C4  UNL     1       1.340 -41.991  -2.812  1.00  0.00     0.089 A
HETATM    6  C3  UNL     1       1.506 -42.580  -1.591  1.00  0.00     0.246 A
HETATM    7  N1  UNL     1       1.512 -41.820  -0.488  1.00  0.00    -0.327 N
HETATM    8  O1  UNL     1       1.656 -43.839  -1.504  1.00  0.00    -0.268 OA
HETATM    9  C2  UNL     1       1.359 -40.503  -0.518  1.00  0.00     0.015 A
ATOM     10  H1  UNL     1       1.638 -42.274   0.416  1.00  0.00     0.169 HD
HETATM   11  C1  UNL     1       1.372 -39.673   0.721  1.00  0.00     0.069 C
HETATM   12  C17 UNL     1       1.185 -39.870  -1.755  1.00  0.00    -0.027 A
HETATM   13  C18 UNL     1       0.965 -38.418  -1.760  1.00  0.00     0.051 C
ENDBRANCH   3   4
BRANCH   3  14
HETATM   14  O2  UNL     1       2.163 -39.859  -4.923  1.00  0.00    -0.362 OA
ATOM     15  H2  UNL     1       2.090 -39.523  -5.809  1.00  0.00     0.217 HD
ENDBRANCH   3  14
ENDBRANCH   2   3
ENDBRANCH   1   2
BRANCH   1  16
HETATM   16  C8  UNL     1       0.046 -39.213  -7.348  1.00  0.00     0.259 C
HETATM   17  O4  UNL     1      -0.954 -38.524  -7.660  1.00  0.00    -0.265 OA
BRANCH  16  18
HETATM   18  C9  UNL     1       1.299 -39.006  -8.118  1.00  0.00     0.116 C
BRANCH  18  19
HETATM   19  C10 UNL     1       0.985 -38.608  -9.531  1.00  0.00     0.050 C
BRANCH  19  20
HETATM   20  C11 UNL     1       1.039 -39.717 -10.485  1.00  0.00    -0.033 A
HETATM   21  C12 UNL     1       2.217 -40.385 -10.751  1.00  0.00     0.034 A
HETATM   22  C13 UNL     1       2.293 -41.434 -11.641  1.00  0.00     0.058 A
HETATM   23 CL1  UNL     1       3.824 -42.251 -11.938  1.00  0.00    -0.082 Cl
HETATM   24  C14 UNL     1       1.142 -41.824 -12.289  1.00  0.00     0.079 A
HETATM   25 CL2  UNL     1       1.165 -43.151 -13.436  1.00  0.00    -0.081 Cl
HETATM   26  C15 UNL     1      -0.046 -41.200 -12.065  1.00  0.00     0.079 A
HETATM   27 CL3  UNL     1      -1.542 -41.661 -12.865  1.00  0.00    -0.081 Cl
HETATM   28  C16 UNL     1      -0.083 -40.147 -11.159  1.00  0.00     0.063 A
HETATM   29 CL4  UNL     1      -1.591 -39.339 -10.866  1.00  0.00    -0.082 Cl
ENDBRANCH  19  20
ENDBRANCH  18  19
ENDBRANCH  16  18
ENDBRANCH   1  16
TORSDOF 8
ENDMDL