MODEL 4
REMARK VINA RESULT: -7.884422652      5.973     12.220
REMARK  6 active torsions:
REMARK  status: ('A' for Active; 'I' for Inactive)
REMARK    1  A    between atoms: C2_2  and  O1_3
REMARK    2  A    between atoms: O1_3  and  N1_4
REMARK    3  A    between atoms: C3_6  and  C4_7
REMARK    4  A    between atoms: C3_6  and  C17_26
REMARK    5  A    between atoms: C8_12  and  C9_13
REMARK       I    between atoms: C9_13  and  N2_15
REMARK    6  A    between atoms: N2_15  and  C10_17
ROOT
HETATM    1  C10 UNL     1      -0.023 -40.264  -5.327  1.00  0.00     0.125 C
HETATM    2  C11 UNL     1      -0.980 -41.312  -4.884  1.00  0.00     0.091 C
HETATM    3  N3  UNL     1      -1.709 -42.143  -4.544  1.00  0.00    -0.195 NA
HETATM    4  C12 UNL     1       1.378 -40.782  -5.248  1.00  0.00     0.049 C
HETATM    5  C13 UNL     1       2.117 -40.026  -4.175  1.00  0.00     0.041 C
HETATM    6  C14 UNL     1       1.025 -39.511  -3.290  1.00  0.00     0.173 C
HETATM    7  F1  UNL     1       0.596 -40.426  -2.379  1.00  0.00    -0.249 F
HETATM    8  C15 UNL     1      -0.055 -39.160  -4.292  1.00  0.00     0.084 C
ENDROOT
BRANCH   1   9
HETATM    9  N2  UNL     1      -0.416 -39.846  -6.633  1.00  0.00    -0.335 N
HETATM   10  C9  UNL     1       0.334 -38.966  -7.456  1.00  0.00     0.254 C
HETATM   11  O2  UNL     1       1.419 -38.525  -7.003  1.00  0.00    -0.268 OA
ATOM     12  H2  UNL     1      -1.297 -40.204  -7.001  1.00  0.00     0.164 HD
BRANCH  10  13
HETATM   13  C8  UNL     1      -0.072 -38.548  -8.777  1.00  0.00     0.054 A
HETATM   14  C7  UNL     1      -0.910 -37.453  -8.914  1.00  0.00     0.049 A
HETATM   15  C6  UNL     1      -1.326 -37.012 -10.145  1.00  0.00     0.026 A
HETATM   16 CL1  UNL     1      -1.491 -36.555  -7.506  1.00  0.00    -0.083 Cl
HETATM   17  C5  UNL     1      -0.920 -37.654 -11.314  1.00  0.00     0.015 A
HETATM   18  C4  UNL     1      -0.093 -38.739 -11.208  1.00  0.00    -0.010 A
HETATM   19  C16 UNL     1       0.308 -39.157  -9.947  1.00  0.00     0.032 A
BRANCH  18  20
HETATM   20  C3  UNL     1       0.360 -39.412 -12.410  1.00  0.00     0.046 C
HETATM   21  N1  UNL     1       0.561 -38.863 -13.496  1.00  0.00    -0.270 N
ATOM     22  H1  UNL     1       0.871 -39.569 -14.163  1.00  0.00     0.194 HD
BRANCH  21  23
HETATM   23  O1  UNL     1       0.523 -37.709 -14.103  1.00  0.00    -0.281 OA
BRANCH  23  24
HETATM   24  C2  UNL     1      -0.445 -37.195 -14.974  1.00  0.00     0.196 C
HETATM   25  C1  UNL     1      -1.258 -38.322 -15.566  1.00  0.00     0.036 C
ENDBRANCH  23  24
ENDBRANCH  21  23
BRANCH  20  26
HETATM   26  C17 UNL     1       0.567 -40.912 -12.319  1.00  0.00     0.039 C
HETATM   27  C18 UNL     1       2.030 -41.243 -12.623  1.00  0.00     0.017 C
HETATM   28  C19 UNL     1       2.185 -42.726 -12.660  1.00  0.00     0.080 C
HETATM   29  C20 UNL     1       1.461 -43.271 -13.874  1.00  0.00     0.243 C
HETATM   30  F2  UNL     1       2.348 -43.780 -14.787  1.00  0.00    -0.206 F
HETATM   31  F3  UNL     1       0.667 -44.312 -13.425  1.00  0.00    -0.206 F
HETATM   32  C21 UNL     1       0.566 -42.204 -14.480  1.00  0.00     0.080 C
HETATM   33  C22 UNL     1      -0.270 -41.616 -13.389  1.00  0.00     0.017 C
ENDBRANCH  20  26
ENDBRANCH  18  20
ENDBRANCH  10  13
ENDBRANCH   1   9
TORSDOF 6
ENDMDL