MODEL 3
REMARK VINA RESULT: -6.662944079      2.957      4.147
REMARK  7 active torsions:
REMARK  status: ('A' for Active; 'I' for Inactive)
REMARK    1  A    between atoms: C5_9  and  S1_10
REMARK    2  A    between atoms: S1_10  and  C6_11
REMARK    3  A    between atoms: C12_19  and  C13_20
REMARK    4  A    between atoms: C13_20  and  C14_21
REMARK    5  A    between atoms: C14_21  and  C15_22
REMARK    6  A    between atoms: C15_22  and  C16_23
REMARK    7  A    between atoms: C16_23  and  O3_24
ROOT
HETATM    1  O1  UNL     1      -0.589 -40.511 -14.120  1.00  0.00    -0.286 OA
HETATM    2  C1  UNL     1       0.182 -40.521 -13.128  1.00  0.00     0.198 A
HETATM    3  C2  UNL     1       1.151 -41.629 -13.077  1.00  0.00     0.087 A
HETATM    4 BR1  UNL     1       1.192 -42.940 -14.459  1.00  0.00    -0.045 Br
HETATM    5  C3  UNL     1       1.980 -41.673 -12.045  1.00  0.00     0.106 A
HETATM    6 CL1  UNL     1       3.130 -42.995 -11.991  1.00  0.00    -0.078 Cl
HETATM    7  C4  UNL     1       1.947 -40.658 -10.974  1.00  0.00     0.212 A
HETATM    8  O2  UNL     1       2.753 -40.743 -10.017  1.00  0.00    -0.285 OA
HETATM    9  C5  UNL     1       0.965 -39.578 -11.071  1.00  0.00     0.067 A
HETATM   10  C12 UNL     1       0.129 -39.509 -12.087  1.00  0.00     0.015 A
ENDROOT
BRANCH   9  11
HETATM   11  S1  UNL     1       0.875 -38.321  -9.812  1.00  0.00    -0.083 SA
BRANCH  11  12
HETATM   12  C6  UNL     1       0.537 -39.012  -8.208  1.00  0.00     0.046 A
HETATM   13  C7  UNL     1      -0.593 -39.757  -7.976  1.00  0.00     0.046 A
HETATM   14  C8  UNL     1      -0.896 -40.313  -6.750  1.00  0.00     0.035 A
HETATM   15 CL2  UNL     1      -2.337 -41.258  -6.467  1.00  0.00    -0.084 Cl
HETATM   16  C9  UNL     1       0.014 -40.082  -5.731  1.00  0.00     0.027 A
HETATM   17  C10 UNL     1       1.155 -39.336  -5.946  1.00  0.00     0.045 A
HETATM   18  C11 UNL     1       1.426 -38.796  -7.184  1.00  0.00     0.133 A
HETATM   19  F1  UNL     1       2.570 -38.058  -7.369  1.00  0.00    -0.205 F
ENDBRANCH  11  12
ENDBRANCH   9  11
BRANCH  10  20
HETATM   20  C13 UNL     1      -0.840 -38.425 -12.160  1.00  0.00     0.044 C
BRANCH  20  21
HETATM   21  C14 UNL     1      -0.397 -37.245 -12.999  1.00  0.00     0.007 C
BRANCH  21  22
HETATM   22  C15 UNL     1      -1.259 -37.314 -14.267  1.00  0.00     0.026 C
BRANCH  22  23
HETATM   23  C16 UNL     1      -0.393 -37.369 -15.502  1.00  0.00     0.164 C
BRANCH  23  24
HETATM   24  O3  UNL     1       0.867 -37.800 -15.094  1.00  0.00    -0.401 OA
ATOM     25  H3  UNL     1       0.919 -38.728 -15.292  1.00  0.00     0.209 HD
ENDBRANCH  23  24
ENDBRANCH  22  23
ENDBRANCH  21  22
ENDBRANCH  20  21
ENDBRANCH  10  20
TORSDOF 7
ENDMDL