MODEL 4
REMARK VINA RESULT: -6.679154416      1.152      2.141
REMARK  6 active torsions:
REMARK  status: ('A' for Active; 'I' for Inactive)
REMARK    1  A    between atoms: C2_2  and  N1_4
REMARK    2  A    between atoms: N2_7  and  C6_8
REMARK    3  A    between atoms: C6_8  and  C7_9
REMARK    4  A    between atoms: C7_9  and  C8_10
REMARK    5  A    between atoms: C8_10  and  O1_11
REMARK    6  A    between atoms: O1_11  and  C9_12
ROOT
HETATM    1  C8  UNL     1      -0.412 -36.830 -12.950  1.00  0.00     0.177 C
ENDROOT
BRANCH   1   2
HETATM    2  C7  UNL     1      -0.350 -36.228 -11.561  1.00  0.00     0.057 C
BRANCH   2   3
HETATM    3  C6  UNL     1      -1.111 -37.186 -10.672  1.00  0.00     0.275 C
BRANCH   3   4
HETATM    4  N2  UNL     1      -0.707 -37.206  -9.302  1.00  0.00     0.095 N
HETATM    5  C5  UNL     1      -1.822 -37.480  -8.422  1.00  0.00     0.317 C
HETATM    6  C4  UNL     1      -1.443 -38.199  -7.172  1.00  0.00     0.089 C
HETATM    7  N1  UNL     1      -0.622 -39.314  -7.348  1.00  0.00    -0.377 N
HETATM    8  C17 UNL     1       0.168 -39.376  -8.500  1.00  0.00     0.051 C
HETATM    9  C16 UNL     1       0.457 -37.972  -8.988  1.00  0.00     0.302 C
HETATM   10  C18 UNL     1       1.504 -40.052  -8.166  1.00  0.00     0.040 C
HETATM   11  C19 UNL     1      -0.429 -40.221  -9.615  1.00  0.00     0.040 C
BRANCH   7  12
HETATM   12  C2  UNL     1      -0.445 -40.198  -6.286  1.00  0.00     0.076 C
HETATM   13  C1  UNL     1       0.122 -39.491  -5.061  1.00  0.00     0.032 C
HETATM   14  C3  UNL     1      -1.724 -40.869  -5.809  1.00  0.00     0.032 C
ENDBRANCH   7  12
ENDBRANCH   3   4
ENDBRANCH   2   3
ENDBRANCH   1   2
BRANCH   1  15
HETATM   15  O1  UNL     1       0.625 -37.653 -13.325  1.00  0.00    -0.347 OA
BRANCH  15  16
HETATM   16  C9  UNL     1       0.760 -38.998 -13.157  1.00  0.00     0.116 A
HETATM   17  C10 UNL     1       1.809 -39.450 -12.341  1.00  0.00     0.093 A
HETATM   18 CL1  UNL     1       2.892 -38.330 -11.582  1.00  0.00    -0.079 Cl
HETATM   19  C11 UNL     1       1.999 -40.815 -12.124  1.00  0.00     0.087 A
HETATM   20 CL2  UNL     1       3.322 -41.366 -11.098  1.00  0.00    -0.080 Cl
HETATM   21  C12 UNL     1       1.164 -41.728 -12.707  1.00  0.00     0.089 A
HETATM   22  C13 UNL     1       0.140 -41.308 -13.506  1.00  0.00     0.123 A
HETATM   23  N3  UNL     1       1.169 -43.172 -12.626  1.00  0.00    -0.364 N
HETATM   24  C14 UNL     1      -0.049 -39.929 -13.723  1.00  0.00     0.104 A
HETATM   25  O2  UNL     1      -0.519 -42.445 -13.946  1.00  0.00    -0.328 OA
HETATM   26 CL3  UNL     1      -1.367 -39.467 -14.782  1.00  0.00    -0.078 Cl
HETATM   27  C15 UNL     1       0.008 -43.605 -13.341  1.00  0.00     0.298 C
ATOM     28  H3  UNL     1       1.858 -43.760 -12.157  1.00  0.00     0.162 HD
ENDBRANCH  15  16
ENDBRANCH   1  15
TORSDOF 6
ENDMDL