MODEL 3
REMARK VINA RESULT: -10.059975210      1.740      2.319
REMARK  6 active torsions:
REMARK  status: ('A' for Active; 'I' for Inactive)
REMARK    1  A    between atoms: C7_10  and  C8_11
REMARK    2  A    between atoms: N1_14  and  C11_15
REMARK    3  A    between atoms: C11_15  and  C12_16
REMARK    4  A    between atoms: C12_16  and  C13_17
REMARK    5  A    between atoms: C13_17  and  O1_18
REMARK    6  A    between atoms: O1_18  and  C14_19
ROOT
HETATM    1  C8  UNL     1       0.823 -39.385  -8.508  1.00  0.00    -0.064 C
HETATM    2  C9  UNL     1      -0.482 -40.036  -7.997  1.00  0.00     0.065 C
HETATM    3  C10 UNL     1      -0.729 -39.545  -6.530  1.00  0.00     0.276 C
HETATM    4  N1  UNL     1       0.327 -40.108  -5.775  1.00  0.00     0.089 N
HETATM    5  C18 UNL     1       1.506 -39.390  -6.104  1.00  0.00     0.276 C
HETATM    6  C19 UNL     1       1.475 -38.639  -7.435  1.00  0.00     0.065 C
ENDROOT
BRANCH   4   7
HETATM    7  C11 UNL     1       0.134 -40.033  -4.351  1.00  0.00     0.274 C
BRANCH   7   8
HETATM    8  C12 UNL     1       1.340 -39.711  -3.535  1.00  0.00     0.057 C
BRANCH   8   9
HETATM    9  C13 UNL     1       1.033 -39.365  -2.118  1.00  0.00     0.179 C
BRANCH   9  10
HETATM   10  O1  UNL     1       1.631 -38.228  -1.618  1.00  0.00    -0.336 OA
BRANCH  10  11
HETATM   11  C14 UNL     1       1.451 -37.498  -0.491  1.00  0.00     0.149 A
HETATM   12  C15 UNL     1       0.322 -37.539   0.278  1.00  0.00     0.130 A
HETATM   13  C16 UNL     1       0.207 -36.775   1.411  1.00  0.00     0.251 A
HETATM   14  O2  UNL     1      -0.824 -36.798   2.138  1.00  0.00    -0.268 OA
HETATM   15  N2  UNL     1       1.217 -35.975   1.768  1.00  0.00    -0.299 N
HETATM   16  C17 UNL     1       2.321 -35.949   0.995  1.00  0.00     0.183 A
ATOM     17  H2  UNL     1       1.154 -35.398   2.606  1.00  0.00     0.171 HD
HETATM   18 CL4  UNL     1       3.616 -34.881   1.499  1.00  0.00    -0.045 Cl
HETATM   19  N3  UNL     1       2.475 -36.675  -0.113  1.00  0.00    -0.313 N
ATOM     20  H3  UNL     1       3.333 -36.617  -0.664  1.00  0.00     0.170 HD
ENDBRANCH  10  11
ENDBRANCH   9  10
ENDBRANCH   8   9
ENDBRANCH   7   8
ENDBRANCH   4   7
BRANCH   1  21
HETATM   21  C7  UNL     1       0.620 -38.892  -9.840  1.00  0.00    -0.004 A
HETATM   22  C2  UNL     1       1.133 -39.514 -10.982  1.00  0.00    -0.048 A
HETATM   23  C1  UNL     1       1.934 -40.725 -10.917  1.00  0.00     0.049 C
HETATM   24  C3  UNL     1       0.822 -38.943 -12.217  1.00  0.00     0.033 A
HETATM   25  C4  UNL     1       0.052 -37.822 -12.379  1.00  0.00     0.058 A
HETATM   26 CL1  UNL     1      -0.250 -37.211 -14.002  1.00  0.00    -0.082 Cl
HETATM   27  C5  UNL     1      -0.456 -37.209 -11.265  1.00  0.00     0.078 A
HETATM   28 CL2  UNL     1      -1.438 -35.775 -11.455  1.00  0.00    -0.081 Cl
HETATM   29  C6  UNL     1      -0.173 -37.745 -10.032  1.00  0.00     0.068 A
HETATM   30 CL3  UNL     1      -1.041 -36.946  -8.718  1.00  0.00    -0.082 Cl
ENDBRANCH   1  21
TORSDOF 6
ENDMDL