MODEL 4
REMARK VINA RESULT: -7.143002265      3.540      8.552
REMARK  8 active torsions:
REMARK  status: ('A' for Active; 'I' for Inactive)
REMARK    1  A    between atoms: C1_2  and  C2_4
REMARK    2  A    between atoms: C2_4  and  C3_5
REMARK    3  A    between atoms: C3_5  and  C4_6
REMARK    4  A    between atoms: C7_10  and  C8_11
REMARK    5  A    between atoms: C8_11  and  C9_13
REMARK    6  A    between atoms: C12_17  and  C13_18
REMARK    7  A    between atoms: C13_18  and  O4_19
REMARK    8  A    between atoms: C13_18  and  C14_21
ROOT
HETATM    1  C9  UNL     1      -0.153 -39.845  -9.643  1.00  0.00     0.038 A
HETATM    2  C10 UNL     1      -1.094 -40.512  -8.905  1.00  0.00     0.042 A
HETATM    3  C11 UNL     1      -1.027 -40.479  -7.498  1.00  0.00     0.048 A
HETATM    4 CL1  UNL     1      -2.254 -41.346  -6.626  1.00  0.00    -0.083 Cl
HETATM    5  C12 UNL     1      -0.050 -39.803  -6.839  1.00  0.00     0.021 A
HETATM    6  C15 UNL     1       0.892 -39.138  -7.637  1.00  0.00     0.040 A
HETATM    7  C16 UNL     1       0.860 -39.145  -8.988  1.00  0.00     0.049 A
HETATM    8 CL5  UNL     1       2.031 -38.324 -10.015  1.00  0.00    -0.083 Cl
ENDROOT
BRANCH   1   9
HETATM    9  C8  UNL     1      -0.250 -39.844 -11.084  1.00  0.00     0.195 C
HETATM   10  O3  UNL     1      -0.818 -38.801 -11.572  1.00  0.00    -0.287 OA
BRANCH   9  11
HETATM   11  C7  UNL     1       0.241 -40.912 -11.968  1.00  0.00     0.028 A
HETATM   12  C4  UNL     1      -0.232 -41.005 -13.280  1.00  0.00    -0.003 A
HETATM   13  S1  UNL     1       0.619 -42.327 -13.902  1.00  0.00    -0.105 SA
HETATM   14  C5  UNL     1       1.544 -42.749 -12.543  1.00  0.00     0.051 A
HETATM   15  C6  UNL     1       1.154 -41.822 -11.612  1.00  0.00     0.024 A
BRANCH  12  16
HETATM   16  C3  UNL     1      -1.257 -40.105 -13.914  1.00  0.00     0.057 C
BRANCH  16  17
HETATM   17  C2  UNL     1      -0.573 -39.239 -14.938  1.00  0.00     0.118 C
BRANCH  17  18
HETATM   18  C1  UNL     1      -1.385 -38.143 -15.471  1.00  0.00     0.172 C
HETATM   19  O1  UNL     1      -2.649 -38.336 -15.582  1.00  0.00    -0.648 OA
HETATM   20  O2  UNL     1      -0.887 -36.929 -15.850  1.00  0.00    -0.648 OA
ENDBRANCH  17  18
ENDBRANCH  16  17
ENDBRANCH  12  16
ENDBRANCH   9  11
ENDBRANCH   1   9
BRANCH   5  21
HETATM   21  C13 UNL     1       0.046 -39.704  -5.409  1.00  0.00     0.109 C
BRANCH  21  22
HETATM   22  O4  UNL     1      -0.867 -39.010  -4.796  1.00  0.00    -0.360 OA
ATOM     23  H4  UNL     1      -0.827 -38.978  -3.848  1.00  0.00     0.217 HD
ENDBRANCH  21  22
BRANCH  21  24
HETATM   24  C14 UNL     1       1.053 -40.291  -4.520  1.00  0.00     0.237 C
HETATM   25 CL2  UNL     1       1.245 -39.333  -3.040  1.00  0.00    -0.076 Cl
HETATM   26 CL3  UNL     1       0.632 -41.960  -4.036  1.00  0.00    -0.076 Cl
HETATM   27 CL4  UNL     1       2.624 -40.290  -5.410  1.00  0.00    -0.076 Cl
ENDBRANCH  21  24
ENDBRANCH   5  21
TORSDOF 8
ENDMDL