MODEL 2
REMARK VINA RESULT: -8.651840133      4.380      6.086
REMARK  6 active torsions:
REMARK  status: ('A' for Active; 'I' for Inactive)
REMARK    1  A    between atoms: N2_7  and  C3_8
REMARK    2  A    between atoms: C10_16  and  C11_17
REMARK    3  A    between atoms: C11_17  and  C20_29
REMARK    4  A    between atoms: C12_18  and  C13_19
REMARK    5  A    between atoms: C13_19  and  O3_20
REMARK    6  A    between atoms: O3_20  and  C14_21
ROOT
HETATM    1  O1  UNL     1      -0.611 -35.994 -11.304  1.00  0.00    -0.267 OA
HETATM    2  C1  UNL     1      -0.395 -37.167 -11.676  1.00  0.00     0.263 A
HETATM    3  N1  UNL     1      -0.455 -37.388 -13.026  1.00  0.00    -0.275 N
ATOM      4  H1  UNL     1      -0.673 -36.602 -13.638  1.00  0.00     0.173 HD
HETATM    5  C2  UNL     1      -0.241 -38.583 -13.578  1.00  0.00     0.330 A
HETATM    6  O2  UNL     1      -0.303 -38.752 -14.824  1.00  0.00    -0.246 OA
HETATM    7  N2  UNL     1       0.042 -39.581 -12.748  1.00  0.00    -0.284 N
HETATM    8  C9  UNL     1       0.122 -39.450 -11.379  1.00  0.00     0.126 A
HETATM    9 CL1  UNL     1       0.487 -40.877 -10.437  1.00  0.00    -0.063 Cl
HETATM   10  C10 UNL     1      -0.097 -38.228 -10.806  1.00  0.00     0.079 A
ENDROOT
BRANCH  10  11
HETATM   11  C11 UNL     1      -0.101 -38.020  -9.340  1.00  0.00    -0.013 C
HETATM   12  C12 UNL     1       0.861 -38.461  -8.551  1.00  0.00     0.010 C
BRANCH  12  13
HETATM   13  C13 UNL     1       1.016 -38.342  -7.104  1.00  0.00     0.204 C
BRANCH  13  14
HETATM   14  O3  UNL     1       0.170 -39.112  -6.323  1.00  0.00    -0.346 OA
BRANCH  14  15
HETATM   15  C14 UNL     1       0.474 -39.951  -5.295  1.00  0.00     0.090 A
HETATM   16  C15 UNL     1       1.606 -39.940  -4.517  1.00  0.00     0.040 A
HETATM   17  C16 UNL     1       1.848 -40.828  -3.479  1.00  0.00     0.026 A
HETATM   18  C17 UNL     1       0.922 -41.781  -3.192  1.00  0.00     0.035 A
HETATM   19 CL2  UNL     1       1.135 -42.953  -1.899  1.00  0.00    -0.084 Cl
HETATM   20  C18 UNL     1      -0.222 -41.837  -3.934  1.00  0.00     0.050 A
HETATM   21  C19 UNL     1      -0.457 -40.961  -4.954  1.00  0.00     0.069 A
HETATM   22 CL3  UNL     1      -1.940 -41.081  -5.869  1.00  0.00    -0.081 Cl
ENDBRANCH  14  15
ENDBRANCH  13  14
ENDBRANCH  12  13
BRANCH  11  23
HETATM   23  C20 UNL     1      -1.346 -37.453  -8.759  1.00  0.00     0.261 C
HETATM   24  F1  UNL     1      -2.504 -37.792  -9.451  1.00  0.00    -0.251 F
ENDBRANCH  11  23
ENDBRANCH  10  11
BRANCH   7  25
HETATM   25  C3  UNL     1       0.284 -40.884 -13.267  1.00  0.00     0.096 C
HETATM   26  C4  UNL     1      -0.595 -41.991 -12.848  1.00  0.00     0.026 C
HETATM   27  C5  UNL     1      -0.508 -43.062 -13.954  1.00  0.00     0.002 C
HETATM   28  C6  UNL     1       0.931 -43.251 -14.323  1.00  0.00     0.000 C
HETATM   29  C7  UNL     1       1.893 -42.807 -13.247  1.00  0.00     0.002 C
HETATM   30  C8  UNL     1       1.657 -41.381 -12.817  1.00  0.00     0.026 C
ENDBRANCH   7  25
TORSDOF 6
ENDMDL