MODEL 5
REMARK VINA RESULT: -7.775622322      1.967      2.976
REMARK  16 active torsions:
REMARK  status: ('A' for Active; 'I' for Inactive)
REMARK    1  A    between atoms: C2_2  and  C3_3
REMARK    2  A    between atoms: C3_3  and  O1_4
REMARK    3  A    between atoms: C3_3  and  C13_33
REMARK    4  A    between atoms: O1_4  and  C4_5
REMARK    5  A    between atoms: C4_5  and  O2_6
REMARK    6  A    between atoms: C4_5  and  C5_8
REMARK    7  A    between atoms: C7_10  and  N1_11
REMARK    8  A    between atoms: N1_11  and  C8_13
REMARK    9  A    between atoms: C8_13  and  O3_14
REMARK   10  A    between atoms: C8_13  and  C9_16
REMARK   11  A    between atoms: C9_16  and  O4_17
REMARK   12  A    between atoms: C10_19  and  O5_20
REMARK   13  A    between atoms: N2_22  and  N3_23
REMARK   14  A    between atoms: C12_28  and  N4_29
REMARK   15  A    between atoms: C14_36  and  O7_37
REMARK   16  A    between atoms: C14_36  and  C16_39
ROOT
HETATM    1  C5  UNL     1     -15.002 -66.282 -49.309  1.00  0.00     0.082 C
HETATM    2  C6  UNL     1     -15.859 -66.539 -48.133  1.00  0.00     0.041 C
HETATM    3  C7  UNL     1     -15.192 -66.415 -46.814  1.00  0.00     0.130 C
HETATM    4  C10 UNL     1     -13.773 -66.905 -46.847  1.00  0.00     0.266 C
HETATM    5  N2  UNL     1     -12.868 -65.938 -47.420  1.00  0.00    -0.234 N
HETATM    6  C11 UNL     1     -13.146 -64.948 -48.392  1.00  0.00     0.271 C
HETATM    7  O6  UNL     1     -12.268 -64.056 -48.517  1.00  0.00    -0.269 OA
HETATM    8  C12 UNL     1     -14.371 -64.890 -49.249  1.00  0.00     0.285 C
ENDROOT
BRANCH   1   9
HETATM    9  C4  UNL     1     -15.717 -66.397 -50.599  1.00  0.00     0.264 C
BRANCH   9  10
HETATM   10  O1  UNL     1     -17.074 -66.141 -50.415  1.00  0.00    -0.351 OA
BRANCH  10  11
HETATM   11  C3  UNL     1     -17.732 -65.913 -51.652  1.00  0.00     0.175 C
BRANCH  11  12
HETATM   12  C2  UNL     1     -18.201 -64.467 -51.567  1.00  0.00     0.032 C
HETATM   13  C1  UNL     1     -17.256 -63.614 -52.365  1.00  0.00     0.007 C
ENDBRANCH  11  12
BRANCH  11  14
HETATM   14  C13 UNL     1     -18.865 -66.900 -51.637  1.00  0.00     0.280 C
HETATM   15  N5  UNL     1     -19.612 -66.886 -50.475  1.00  0.00    -0.335 N
HETATM   16  C14 UNL     1     -20.728 -67.785 -50.308  1.00  0.00     0.308 C
ATOM     17  H5  UNL     1     -19.373 -66.235 -49.729  1.00  0.00     0.161 HD
HETATM   18  N6  UNL     1     -21.176 -68.482 -51.484  1.00  0.00    -0.305 N
HETATM   19  C17 UNL     1     -20.360 -69.314 -52.324  1.00  0.00     0.212 C
ATOM     20  H6  UNL     1     -22.157 -68.377 -51.743  1.00  0.00     0.167 HD
HETATM   21  N7  UNL     1     -21.014 -70.395 -52.969  1.00  0.00    -0.062 NA
HETATM   22  N8  UNL     1     -19.070 -69.181 -52.569  1.00  0.00    -0.236 N
HETATM   23  O10 UNL     1     -18.320 -68.168 -52.015  1.00  0.00    -0.249 OA
ATOM     24  H8  UNL     1     -18.614 -69.851 -53.188  1.00  0.00     0.197 HD
BRANCH  16  25
HETATM   25  O7  UNL     1     -20.447 -68.698 -49.307  1.00  0.00    -0.340 OA
HETATM   26  C15 UNL     1     -21.412 -69.554 -48.912  1.00  0.00     0.207 C
ENDBRANCH  16  25
BRANCH  16  27
HETATM   27  C16 UNL     1     -21.898 -66.946 -49.843  1.00  0.00     0.255 C
HETATM   28  O8  UNL     1     -21.669 -66.043 -48.997  1.00  0.00    -0.643 OA
HETATM   29  O9  UNL     1     -23.176 -67.170 -50.341  1.00  0.00    -0.643 OA
ENDBRANCH  16  27
ENDBRANCH  11  14
ENDBRANCH  10  11
ENDBRANCH   9  10
BRANCH   9  30
HETATM   30  O2  UNL     1     -15.635 -67.796 -51.028  1.00  0.00    -0.371 OA
ATOM     31  H2  UNL     1     -14.780 -68.100 -50.745  1.00  0.00     0.212 HD
ENDBRANCH   9  30
ENDBRANCH   1   9
BRANCH   8  32
HETATM   32  N4  UNL     1     -15.319 -63.906 -48.819  1.00  0.00    -0.066 N
ATOM     33  H43 UNL     1     -15.947 -63.635 -49.577  1.00  0.00     0.275 HD
ATOM     34  H42 UNL     1     -16.006 -64.303 -48.179  1.00  0.00     0.275 HD
ATOM     35  H41 UNL     1     -14.854 -63.094 -48.412  1.00  0.00     0.275 HD
ENDBRANCH   8  32
BRANCH   3  36
HETATM   36  N1  UNL     1     -15.956 -67.062 -45.786  1.00  0.00    -0.387 N
ATOM     37  H1  UNL     1     -15.708 -67.989 -45.440  1.00  0.00     0.156 HD
BRANCH  36  38
HETATM   38  C8  UNL     1     -17.072 -66.354 -45.276  1.00  0.00     0.237 C
BRANCH  38  39
HETATM   39  O3  UNL     1     -16.667 -65.859 -44.005  1.00  0.00    -0.375 OA
ATOM     40  H3  UNL     1     -17.197 -66.323 -43.367  1.00  0.00     0.212 HD
ENDBRANCH  38  39
BRANCH  38  41
HETATM   41  C9  UNL     1     -18.332 -67.111 -45.036  1.00  0.00     0.217 C
BRANCH  41  42
HETATM   42  O4  UNL     1     -19.418 -66.368 -44.652  1.00  0.00    -0.397 OA
ATOM     43  H4  UNL     1     -20.241 -66.836 -44.583  1.00  0.00     0.209 HD
ENDBRANCH  41  42
ENDBRANCH  38  41
ENDBRANCH  36  38
ENDBRANCH   3  36
BRANCH   4  44
HETATM   44  O5  UNL     1     -13.648 -68.163 -47.421  1.00  0.00    -0.373 OA
ATOM     45  H5  UNL     1     -14.177 -68.822 -46.987  1.00  0.00     0.212 HD
ENDBRANCH   4  44
BRANCH   5  46
HETATM   46  N3  UNL     1     -11.537 -65.999 -46.936  1.00  0.00    -0.338 N
ATOM     47  H32 UNL     1     -11.385 -66.536 -46.082  1.00  0.00     0.177 HD
ATOM     48  H31 UNL     1     -10.850 -65.496 -47.497  1.00  0.00     0.177 HD
ENDBRANCH   5  46
TORSDOF 16
ENDMDL