MODEL 4
REMARK VINA RESULT: -8.463830963      1.121      1.126
REMARK  17 active torsions:
REMARK  status: ('A' for Active; 'I' for Inactive)
REMARK    1  A    between atoms: N1_1  and  C1_4
REMARK    2  A    between atoms: N4_13  and  C5_14
REMARK    3  A    between atoms: C6_16  and  C7_17
REMARK    4  A    between atoms: C7_17  and  O3_18
REMARK    5  A    between atoms: C7_17  and  C8_20
REMARK    6  A    between atoms: C8_20  and  C9_22
REMARK    7  A    between atoms: C9_22  and  O5_23
REMARK    8  A    between atoms: C9_22  and  C10_25
REMARK    9  A    between atoms: C10_25  and  C11_27
REMARK   10  A    between atoms: C11_27  and  O7_28
REMARK   11  A    between atoms: C11_27  and  C12_30
REMARK   12  A    between atoms: C12_30  and  O8_31
REMARK   13  A    between atoms: C12_30  and  C13_33
REMARK   14  A    between atoms: C13_33  and  N5_34
REMARK   15  A    between atoms: C13_33  and  C14_38
REMARK       I    between atoms: C14_38  and  N6_40
REMARK   16  A    between atoms: N6_40  and  N7_42
REMARK   17  A    between atoms: C16_47  and  O11_48
ROOT
HETATM    1  C7  UNL     1     -16.083 -66.842 -52.295  1.00  0.00     0.227 C
ENDROOT
BRANCH   1   2
HETATM    2  C6  UNL     1     -15.396 -66.581 -50.968  1.00  0.00     0.232 C
HETATM    3  O2  UNL     1     -14.667 -67.675 -50.543  1.00  0.00    -0.347 OA
HETATM    4  C5  UNL     1     -13.435 -67.274 -50.077  1.00  0.00     0.267 C
HETATM    5  C16 UNL     1     -13.136 -65.991 -50.760  1.00  0.00     0.239 C
HETATM    6  C15 UNL     1     -14.481 -65.441 -51.012  1.00  0.00     0.191 C
HETATM    7  O10 UNL     1     -14.734 -64.272 -51.211  1.00  0.00    -0.292 OA
BRANCH   4   8
HETATM    8  N4  UNL     1     -13.460 -67.188 -48.629  1.00  0.00    -0.296 N
HETATM    9  C4  UNL     1     -14.469 -66.927 -47.794  1.00  0.00     0.188 A
HETATM   10  N3  UNL     1     -14.042 -66.947 -46.524  1.00  0.00    -0.345 N
HETATM   11  C3  UNL     1     -12.708 -67.232 -46.555  1.00  0.00     0.147 A
ATOM     12  H3  UNL     1     -14.607 -66.781 -45.691  1.00  0.00     0.167 HD
HETATM   13  C2  UNL     1     -11.779 -67.371 -45.520  1.00  0.00     0.290 A
HETATM   14  C17 UNL     1     -12.365 -67.378 -47.876  1.00  0.00     0.159 A
HETATM   15  N2  UNL     1     -10.520 -67.659 -45.880  1.00  0.00    -0.154 N
HETATM   16  O1  UNL     1     -12.155 -67.225 -44.336  1.00  0.00    -0.265 OA
HETATM   17  C1  UNL     1     -10.192 -67.800 -47.174  1.00  0.00     0.680 A
ATOM     18  H2  UNL     1      -9.804 -67.772 -45.162  1.00  0.00     0.187 HD
HETATM   19  N8  UNL     1     -11.065 -67.671 -48.183  1.00  0.00    -0.174 N
ATOM     20  H8  UNL     1     -10.768 -67.788 -49.152  1.00  0.00     0.186 HD
BRANCH  17  21
HETATM   21  N1  UNL     1      -8.955 -68.079 -47.440  1.00  0.00    -0.234 N
ATOM     22  H12 UNL     1      -8.539 -67.730 -48.304  1.00  0.00     0.174 HD
ATOM     23  H11 UNL     1      -8.452 -68.644 -46.756  1.00  0.00     0.174 HD
ENDBRANCH  17  21
ENDBRANCH   4   8
BRANCH   5  24
HETATM   24  O11 UNL     1     -12.339 -65.126 -50.019  1.00  0.00    -0.383 OA
ATOM     25  H11 UNL     1     -12.665 -64.955 -49.143  1.00  0.00     0.210 HD
ENDBRANCH   5  24
ENDBRANCH   1   2
BRANCH   1  26
HETATM   26  O3  UNL     1     -15.240 -67.168 -53.303  1.00  0.00    -0.385 OA
ATOM     27  H3  UNL     1     -15.003 -66.439 -53.863  1.00  0.00     0.210 HD
ENDBRANCH   1  26
BRANCH   1  28
HETATM   28  C8  UNL     1     -17.164 -67.844 -52.154  1.00  0.00     0.194 C
HETATM   29  O4  UNL     1     -18.059 -67.510 -51.355  1.00  0.00    -0.292 OA
BRANCH  28  30
HETATM   30  C9  UNL     1     -17.286 -69.138 -52.831  1.00  0.00     0.262 C
BRANCH  30  31
HETATM   31  O5  UNL     1     -17.179 -68.848 -54.214  1.00  0.00    -0.380 OA
ATOM     32  H5  UNL     1     -17.554 -67.982 -54.318  1.00  0.00     0.211 HD
ENDBRANCH  30  31
BRANCH  30  33
HETATM   33  C10 UNL     1     -18.589 -69.829 -52.623  1.00  0.00     0.193 C
HETATM   34  O6  UNL     1     -18.612 -70.691 -51.751  1.00  0.00    -0.292 OA
BRANCH  33  35
HETATM   35  C11 UNL     1     -19.837 -69.584 -53.347  1.00  0.00     0.222 C
BRANCH  35  36
HETATM   36  O7  UNL     1     -19.827 -68.196 -53.709  1.00  0.00    -0.385 OA
ATOM     37  H7  UNL     1     -18.915 -67.930 -53.716  1.00  0.00     0.210 HD
ENDBRANCH  35  36
BRANCH  35  38
HETATM   38  C12 UNL     1     -21.106 -69.786 -52.599  1.00  0.00     0.194 C
BRANCH  38  39
HETATM   39  O8  UNL     1     -22.038 -70.454 -53.383  1.00  0.00    -0.390 OA
ATOM     40  H8  UNL     1     -21.795 -71.366 -53.488  1.00  0.00     0.210 HD
ENDBRANCH  38  39
BRANCH  38  41
HETATM   41  C13 UNL     1     -21.674 -68.663 -51.825  1.00  0.00     0.307 C
BRANCH  41  42
HETATM   42  N5  UNL     1     -23.100 -68.512 -51.882  1.00  0.00    -0.064 N
ATOM     43  H53 UNL     1     -23.357 -67.559 -51.624  1.00  0.00     0.275 HD
ATOM     44  H52 UNL     1     -23.411 -68.530 -52.853  1.00  0.00     0.275 HD
ATOM     45  H51 UNL     1     -23.646 -69.177 -51.333  1.00  0.00     0.275 HD
ENDBRANCH  41  42
BRANCH  41  46
HETATM   46  C14 UNL     1     -21.094 -68.528 -50.473  1.00  0.00     0.269 C
HETATM   47  O9  UNL     1     -21.115 -69.588 -49.759  1.00  0.00    -0.269 OA
HETATM   48  N6  UNL     1     -20.545 -67.321 -49.976  1.00  0.00    -0.275 N
ATOM     49  H6  UNL     1     -20.543 -66.490 -50.568  1.00  0.00     0.189 HD
BRANCH  48  50
HETATM   50  N7  UNL     1     -20.011 -67.251 -48.699  1.00  0.00    -0.343 N
ATOM     51  H72 UNL     1     -20.440 -66.614 -48.027  1.00  0.00     0.176 HD
ATOM     52  H71 UNL     1     -19.208 -67.821 -48.433  1.00  0.00     0.176 HD
ENDBRANCH  48  50
ENDBRANCH  41  46
ENDBRANCH  38  41
ENDBRANCH  35  38
ENDBRANCH  33  35
ENDBRANCH  30  33
ENDBRANCH  28  30
ENDBRANCH   1  28
TORSDOF 17
ENDMDL