MODEL 4
REMARK VINA RESULT: -7.078798777      2.738      4.330
REMARK  18 active torsions:
REMARK  status: ('A' for Active; 'I' for Inactive)
REMARK    1  A    between atoms: N1_1  and  C1_4
REMARK    2  A    between atoms: C2_7  and  N3_8
REMARK    3  A    between atoms: C4_10  and  C5_11
REMARK    4  A    between atoms: C5_11  and  N4_12
REMARK    5  A    between atoms: C6_16  and  O1_17
REMARK    6  A    between atoms: C7_19  and  O2_20
REMARK    7  A    between atoms: C8_22  and  O3_23
REMARK    8  A    between atoms: N7_34  and  C13_35
REMARK    9  A    between atoms: C13_35  and  C14_36
REMARK   10  A    between atoms: C14_36  and  O5_37
REMARK   11  A    between atoms: C14_36  and  N8_39
REMARK   12  A    between atoms: N8_39  and  C15_41
REMARK   13  A    between atoms: C15_41  and  C16_42
REMARK   14  A    between atoms: C15_41  and  C17_45
REMARK   15  A    between atoms: C16_42  and  O6_43
REMARK   16  A    between atoms: C17_45  and  C18_47
REMARK   17  A    between atoms: C18_47  and  O8_48
REMARK   18  A    between atoms: C18_47  and  O9_50
ROOT
HETATM    1  C1  UNL     1     -19.971 -69.004 -52.059  1.00  0.00     0.144 C
HETATM    2  N2  UNL     1     -19.963 -67.797 -51.484  1.00  0.00    -0.175 N
ATOM      3  H2  UNL     1     -19.565 -67.049 -52.052  1.00  0.00     0.186 HD
HETATM    4  C2  UNL     1     -20.407 -67.417 -50.254  1.00  0.00     0.687 C
HETATM    5  N5  UNL     1     -21.044 -68.241 -49.415  1.00  0.00    -0.154 N
ATOM      6  H5  UNL     1     -21.684 -67.768 -48.776  1.00  0.00     0.187 HD
HETATM    7  C9  UNL     1     -20.999 -69.598 -49.251  1.00  0.00     0.289 C
HETATM    8  O4  UNL     1     -21.306 -70.037 -48.140  1.00  0.00    -0.265 OA
HETATM    9  C10 UNL     1     -20.646 -70.550 -50.189  1.00  0.00     0.136 A
HETATM   10  C11 UNL     1     -20.161 -70.243 -51.471  1.00  0.00     0.110 A
HETATM   11  N6  UNL     1     -19.909 -71.417 -52.071  1.00  0.00    -0.347 N
ATOM     12  H6  UNL     1     -19.544 -71.530 -53.017  1.00  0.00     0.167 HD
HETATM   13  C12 UNL     1     -20.209 -72.413 -51.237  1.00  0.00     0.184 A
HETATM   14  N7  UNL     1     -20.673 -71.885 -50.057  1.00  0.00    -0.329 N
ENDROOT
BRANCH   4  15
HETATM   15  N3  UNL     1     -20.183 -66.076 -49.844  1.00  0.00    -0.188 N
HETATM   16  C3  UNL     1     -21.268 -65.243 -49.358  1.00  0.00     0.153 C
HETATM   17  C4  UNL     1     -20.985 -64.734 -47.963  1.00  0.00     0.061 C
HETATM   18  C6  UNL     1     -19.532 -64.712 -47.605  1.00  0.00     0.158 C
HETATM   19  C7  UNL     1     -18.612 -64.526 -48.774  1.00  0.00     0.196 C
HETATM   20  C8  UNL     1     -18.870 -65.467 -49.899  1.00  0.00     0.268 C
BRANCH  17  21
HETATM   21  C5  UNL     1     -21.624 -63.346 -47.866  1.00  0.00     0.238 C
BRANCH  21  22
HETATM   22  N4  UNL     1     -21.822 -62.879 -49.215  1.00  0.00    -0.079 N
ATOM     23  H43 UNL     1     -21.586 -61.895 -49.337  1.00  0.00     0.274 HD
ATOM     24  H42 UNL     1     -21.143 -63.259 -49.874  1.00  0.00     0.274 HD
ATOM     25  H41 UNL     1     -22.787 -63.095 -49.465  1.00  0.00     0.274 HD
ENDBRANCH  21  22
ENDBRANCH  17  21
BRANCH  18  26
HETATM   26  O1  UNL     1     -19.224 -65.869 -46.861  1.00  0.00    -0.392 OA
ATOM     27  H1  UNL     1     -18.535 -65.663 -46.240  1.00  0.00     0.210 HD
ENDBRANCH  18  26
BRANCH  19  28
HETATM   28  O2  UNL     1     -18.655 -63.206 -49.193  1.00  0.00    -0.389 OA
ATOM     29  H2  UNL     1     -18.812 -63.173 -50.129  1.00  0.00     0.210 HD
ENDBRANCH  19  28
BRANCH  20  30
HETATM   30  O3  UNL     1     -17.871 -66.427 -50.061  1.00  0.00    -0.373 OA
ATOM     31  H3  UNL     1     -18.041 -66.980 -50.815  1.00  0.00     0.212 HD
ENDBRANCH  20  30
ENDBRANCH   4  15
BRANCH   1  32
HETATM   32  N1  UNL     1     -19.781 -69.072 -53.341  1.00  0.00    -0.383 N
ATOM     33  H12 UNL     1     -19.136 -68.362 -53.689  1.00  0.00     0.157 HD
ATOM     34  H11 UNL     1     -20.270 -69.800 -53.862  1.00  0.00     0.157 HD
ENDBRANCH   1  32
BRANCH  14  35
HETATM   35  C13 UNL     1     -21.108 -72.627 -48.921  1.00  0.00     0.213 C
BRANCH  35  36
HETATM   36  C14 UNL     1     -20.697 -74.091 -49.066  1.00  0.00     0.130 C
BRANCH  36  37
HETATM   37  O5  UNL     1     -19.943 -74.579 -48.037  1.00  0.00    -0.348 OA
ATOM     38  H5  UNL     1     -19.086 -74.180 -47.946  1.00  0.00     0.219 HD
ENDBRANCH  36  37
BRANCH  36  39
HETATM   39  N8  UNL     1     -21.734 -74.928 -49.545  1.00  0.00    -0.359 N
ATOM     40  H8  UNL     1     -21.546 -75.650 -50.241  1.00  0.00     0.162 HD
BRANCH  39  41
HETATM   41  C15 UNL     1     -23.053 -74.735 -49.025  1.00  0.00     0.181 C
BRANCH  41  42
HETATM   42  C16 UNL     1     -23.235 -75.402 -47.674  1.00  0.00     0.197 C
BRANCH  42  43
HETATM   43  O6  UNL     1     -23.445 -76.753 -47.874  1.00  0.00    -0.398 OA
ATOM     44  H6  UNL     1     -24.280 -76.991 -47.488  1.00  0.00     0.209 HD
ENDBRANCH  42  43
ENDBRANCH  41  42
BRANCH  41  45
HETATM   45  C17 UNL     1     -23.980 -75.393 -49.979  1.00  0.00     0.205 C
HETATM   46  O7  UNL     1     -23.474 -76.099 -50.852  1.00  0.00    -0.290 OA
BRANCH  45  47
HETATM   47  C18 UNL     1     -25.429 -75.242 -49.938  1.00  0.00     0.327 C
BRANCH  47  48
HETATM   48  O8  UNL     1     -25.956 -74.900 -51.201  1.00  0.00    -0.365 OA
ATOM     49  H8  UNL     1     -26.802 -74.475 -51.127  1.00  0.00     0.213 HD
ENDBRANCH  47  48
BRANCH  47  50
HETATM   50  O9  UNL     1     -26.150 -76.271 -49.386  1.00  0.00    -0.365 OA
ATOM     51  H9  UNL     1     -27.072 -76.323 -49.610  1.00  0.00     0.213 HD
ENDBRANCH  47  50
ENDBRANCH  45  47
ENDBRANCH  41  45
ENDBRANCH  39  41
ENDBRANCH  36  39
ENDBRANCH  35  36
ENDBRANCH  14  35
TORSDOF 18
ENDMDL