MODEL 1
REMARK VINA RESULT: -7.942246334      0.000      0.000
REMARK  17 active torsions:
REMARK  status: ('A' for Active; 'I' for Inactive)
REMARK    1  A    between atoms: N1_1  and  C1_5
REMARK    2  A    between atoms: C1_5  and  C2_6
REMARK    3  A    between atoms: C2_6  and  O1_7
REMARK    4  A    between atoms: O1_7  and  N2_8
REMARK    5  A    between atoms: N2_8  and  C3_10
REMARK    6  A    between atoms: C7_14  and  O2_15
REMARK    7  A    between atoms: C8_17  and  O3_18
REMARK    8  A    between atoms: C9_20  and  O4_21
REMARK    9  A    between atoms: C10_23  and  O5_24
REMARK   10  A    between atoms: N3_26  and  O6_27
REMARK   11  A    between atoms: C11_31  and  C12_32
REMARK   12  A    between atoms: C12_32  and  N5_33
REMARK   13  A    between atoms: C13_39  and  S1_40
REMARK   14  A    between atoms: S1_40  and  C14_41
REMARK   15  A    between atoms: C14_41  and  C15_42
REMARK       I    between atoms: C15_42  and  N9_44
REMARK   16  A    between atoms: N9_44  and  N10_45
REMARK   17  A    between atoms: N10_45  and  N11_47
ROOT
HETATM    1  C3  UNL     1     -20.031 -65.191 -50.317  1.00  0.00     0.084 A
HETATM    2  C4  UNL     1     -19.075 -64.207 -50.736  1.00  0.00     0.065 A
HETATM    3  C5  UNL     1     -18.046 -64.907 -51.389  1.00  0.00     0.062 A
HETATM    4  C6  UNL     1     -16.981 -64.296 -51.912  1.00  0.00     0.095 C
HETATM    5  C7  UNL     1     -16.839 -62.837 -51.804  1.00  0.00     0.203 C
HETATM    6  C8  UNL     1     -15.682 -62.248 -52.489  1.00  0.00     0.186 C
HETATM    7  C9  UNL     1     -14.956 -63.114 -53.423  1.00  0.00     0.200 C
HETATM    8  C10 UNL     1     -14.673 -64.469 -52.767  1.00  0.00     0.278 C
HETATM    9  N3  UNL     1     -15.993 -65.007 -52.598  1.00  0.00    -0.228 N
HETATM   10  N4  UNL     1     -18.403 -66.187 -51.351  1.00  0.00    -0.351 N
ATOM     11  H4  UNL     1     -17.849 -66.940 -51.760  1.00  0.00     0.166 HD
HETATM   12  C11 UNL     1     -19.572 -66.385 -50.713  1.00  0.00     0.079 A
ENDROOT
BRANCH  12  13
HETATM   13  C12 UNL     1     -20.147 -67.579 -50.504  1.00  0.00     0.148 C
BRANCH  13  14
HETATM   14  N5  UNL     1     -21.490 -67.962 -50.775  1.00  0.00    -0.225 N
HETATM   15  N6  UNL     1     -22.534 -67.612 -50.022  1.00  0.00     0.002 NA
HETATM   16  N7  UNL     1     -23.636 -67.987 -50.650  1.00  0.00    -0.224 N
HETATM   17  N8  UNL     1     -23.317 -68.565 -51.790  1.00  0.00    -0.266 N
ATOM     18  H7  UNL     1     -24.586 -67.848 -50.305  1.00  0.00     0.205 HD
HETATM   19  C13 UNL     1     -21.937 -68.554 -51.873  1.00  0.00     0.180 A
ATOM     20  H8  UNL     1     -23.965 -68.947 -52.479  1.00  0.00     0.190 HD
BRANCH  19  21
HETATM   21  S1  UNL     1     -21.075 -69.328 -53.166  1.00  0.00    -0.080 SA
BRANCH  21  22
HETATM   22  C14 UNL     1     -20.349 -70.919 -52.848  1.00  0.00     0.203 C
BRANCH  22  23
HETATM   23  C15 UNL     1     -19.181 -70.792 -51.982  1.00  0.00     0.323 C
HETATM   24  O7  UNL     1     -19.203 -71.323 -50.863  1.00  0.00    -0.254 OA
HETATM   25  N9  UNL     1     -18.010 -70.078 -52.364  1.00  0.00    -0.271 NA
BRANCH  25  26
HETATM   26  N10 UNL     1     -16.944 -69.433 -52.704  1.00  0.00    -0.179 N
ATOM     27  H10 UNL     1     -16.097 -69.374 -52.139  1.00  0.00     0.223 HD
BRANCH  26  28
HETATM   28  N11 UNL     1     -17.111 -68.826 -53.955  1.00  0.00    -0.320 N
ATOM     29 2H11 UNL     1     -17.588 -69.267 -54.741  1.00  0.00     0.179 HD
ATOM     30 1H11 UNL     1     -16.692 -67.895 -53.963  1.00  0.00     0.179 HD
ENDBRANCH  26  28
ENDBRANCH  25  26
ENDBRANCH  22  23
ENDBRANCH  21  22
ENDBRANCH  19  21
ENDBRANCH  13  14
ENDBRANCH  12  13
BRANCH   1  31
HETATM   31  N2  UNL     1     -21.173 -64.855 -49.578  1.00  0.00    -0.265 N
ATOM     32  H2  UNL     1     -21.681 -65.580 -49.072  1.00  0.00     0.194 HD
BRANCH  31  33
HETATM   33  O1  UNL     1     -21.607 -63.579 -49.531  1.00  0.00    -0.278 OA
BRANCH  33  34
HETATM   34  C2  UNL     1     -21.713 -63.029 -48.284  1.00  0.00     0.228 C
BRANCH  34  35
HETATM   35  C1  UNL     1     -22.240 -61.607 -48.380  1.00  0.00     0.258 C
BRANCH  35  36
HETATM   36  N1  UNL     1     -23.396 -61.551 -49.205  1.00  0.00    -0.077 N
ATOM     37  H13 UNL     1     -23.164 -61.680 -50.190  1.00  0.00     0.274 HD
ATOM     38  H12 UNL     1     -23.991 -62.370 -49.079  1.00  0.00     0.274 HD
ATOM     39  H11 UNL     1     -23.911 -60.683 -49.050  1.00  0.00     0.274 HD
ENDBRANCH  35  36
ENDBRANCH  34  35
ENDBRANCH  33  34
ENDBRANCH  31  33
ENDBRANCH   1  31
BRANCH   5  40
HETATM   40  O2  UNL     1     -17.955 -62.099 -52.284  1.00  0.00    -0.387 OA
ATOM     41  H2  UNL     1     -17.766 -61.541 -53.030  1.00  0.00     0.210 HD
ENDBRANCH   5  40
BRANCH   9  42
HETATM   42  O6  UNL     1     -16.235 -66.261 -53.157  1.00  0.00    -0.285 OA
ATOM     43  H6  UNL     1     -16.573 -66.364 -54.039  1.00  0.00     0.245 HD
ENDBRANCH   9  42
BRANCH   6  44
HETATM   44  O3  UNL     1     -14.743 -61.859 -51.492  1.00  0.00    -0.390 OA
ATOM     45  H3  UNL     1     -13.920 -61.676 -51.928  1.00  0.00     0.210 HD
ENDBRANCH   6  44
BRANCH   8  46
HETATM   46  O5  UNL     1     -14.011 -64.374 -51.586  1.00  0.00    -0.372 OA
ATOM     47  H5  UNL     1     -14.299 -65.004 -50.936  1.00  0.00     0.212 HD
ENDBRANCH   8  46
BRANCH   7  48
HETATM   48  O4  UNL     1     -13.831 -62.513 -53.948  1.00  0.00    -0.388 OA
ATOM     49  H4  UNL     1     -13.069 -63.081 -53.935  1.00  0.00     0.210 HD
ENDBRANCH   7  48
TORSDOF 17
ENDMDL