MODEL 2
REMARK VINA RESULT: -7.322603617      4.797      7.305
REMARK  17 active torsions:
REMARK  status: ('A' for Active; 'I' for Inactive)
REMARK    1  A    between atoms: C2_2  and  O1_3
REMARK    2  A    between atoms: C2_2  and  C3_5
REMARK    3  A    between atoms: C3_5  and  N1_6
REMARK    4  A    between atoms: C3_5  and  C4_10
REMARK    5  A    between atoms: C4_10  and  C5_11
REMARK    6  A    between atoms: C4_10  and  C15_43
REMARK    7  A    between atoms: C5_11  and  C6_13
REMARK    8  A    between atoms: C6_13  and  N2_14
REMARK    9  A    between atoms: C6_13  and  C7_18
REMARK   10  A    between atoms: C7_18  and  C8_19
REMARK   11  A    between atoms: N5_23  and  C9_24
REMARK   12  A    between atoms: C9_24  and  C10_25
REMARK   13  A    between atoms: C11_27  and  O4_28
REMARK   14  A    between atoms: C12_30  and  O5_31
REMARK   15  A    between atoms: C13_33  and  N6_34
REMARK   16  A    between atoms: C14_38  and  O6_39
REMARK   17  A    between atoms: C17_48  and  N10_49
ROOT
HETATM    1  C6  UNL     1     -14.781 -63.978 -51.978  1.00  0.00     0.260 C
ENDROOT
BRANCH   1   2
HETATM    2  C5  UNL     1     -15.850 -64.812 -52.454  1.00  0.00     0.168 C
HETATM    3  O2  UNL     1     -16.090 -64.657 -53.693  1.00  0.00    -0.295 OA
BRANCH   2   4
HETATM    4  C4  UNL     1     -16.756 -65.829 -51.807  1.00  0.00     0.132 C
BRANCH   4   5
HETATM    5  C3  UNL     1     -16.703 -67.069 -52.607  1.00  0.00     0.227 C
BRANCH   5   6
HETATM    6  C2  UNL     1     -17.646 -67.737 -53.444  1.00  0.00     0.145 C
HETATM    7  C1  UNL     1     -18.896 -68.073 -52.554  1.00  0.00     0.041 C
BRANCH   6   8
HETATM    8  O1  UNL     1     -17.216 -69.066 -53.786  1.00  0.00    -0.394 OA
ATOM      9  H1  UNL     1     -17.827 -69.264 -54.486  1.00  0.00     0.210 HD
ENDBRANCH   6   8
ENDBRANCH   5   6
BRANCH   5  10
HETATM   10  N1  UNL     1     -15.335 -67.293 -53.113  1.00  0.00    -0.071 N
ATOM     11  H13 UNL     1     -15.319 -67.440 -54.122  1.00  0.00     0.274 HD
ATOM     12  H12 UNL     1     -14.770 -66.445 -53.078  1.00  0.00     0.274 HD
ATOM     13  H11 UNL     1     -14.899 -68.064 -52.608  1.00  0.00     0.274 HD
ENDBRANCH   5  10
ENDBRANCH   4   5
BRANCH   4  14
HETATM   14  C15 UNL     1     -16.510 -65.923 -50.364  1.00  0.00     0.065 A
HETATM   15  C16 UNL     1     -17.332 -65.134 -49.493  1.00  0.00     0.144 A
HETATM   16  N8  UNL     1     -18.395 -64.354 -49.974  1.00  0.00    -0.081 NA
HETATM   17  N9  UNL     1     -17.143 -65.149 -48.159  1.00  0.00    -0.178 N
HETATM   18  C17 UNL     1     -16.192 -65.891 -47.588  1.00  0.00     0.680 A
ATOM     19  H9  UNL     1     -17.744 -64.575 -47.568  1.00  0.00     0.185 HD
HETATM   20  N11 UNL     1     -15.421 -66.612 -48.361  1.00  0.00    -0.156 N
HETATM   21  C18 UNL     1     -15.570 -66.628 -49.711  1.00  0.00     0.270 A
ATOM     22  H11 UNL     1     -14.686 -67.178 -47.937  1.00  0.00     0.187 HD
HETATM   23  O7  UNL     1     -14.733 -67.369 -50.363  1.00  0.00    -0.267 OA
BRANCH  18  24
HETATM   24  N10 UNL     1     -16.082 -65.876 -46.274  1.00  0.00    -0.234 N
ATOM     25 2H10 UNL     1     -16.852 -65.624 -45.653  1.00  0.00     0.174 HD
ATOM     26 1H10 UNL     1     -15.183 -66.115 -45.856  1.00  0.00     0.174 HD
ENDBRANCH  18  24
ENDBRANCH   4  14
ENDBRANCH   2   4
ENDBRANCH   1   2
BRANCH   1  27
HETATM   27  N2  UNL     1     -14.970 -62.565 -51.940  1.00  0.00    -0.068 N
ATOM     28  H23 UNL     1     -15.866 -62.342 -52.372  1.00  0.00     0.275 HD
ATOM     29  H22 UNL     1     -15.139 -62.282 -50.975  1.00  0.00     0.275 HD
ATOM     30  H21 UNL     1     -14.254 -61.959 -52.339  1.00  0.00     0.275 HD
ENDBRANCH   1  27
BRANCH   1  31
HETATM   31  C7  UNL     1     -13.559 -64.189 -52.936  1.00  0.00     0.119 C
BRANCH  31  32
HETATM   32  C8  UNL     1     -12.372 -64.463 -52.125  1.00  0.00     0.112 A
HETATM   33  N3  UNL     1     -11.143 -64.032 -52.030  1.00  0.00    -0.270 N
HETATM   34  N4  UNL     1     -10.412 -64.653 -51.099  1.00  0.00    -0.003 NA
ATOM     35  H3  UNL     1     -10.772 -63.285 -52.618  1.00  0.00     0.185 HD
HETATM   36  N5  UNL     1     -11.274 -65.550 -50.580  1.00  0.00    -0.214 N
HETATM   37  N7  UNL     1     -12.438 -65.465 -51.159  1.00  0.00    -0.273 N
ATOM     38  H7  UNL     1     -13.257 -66.033 -50.941  1.00  0.00     0.189 HD
BRANCH  36  39
HETATM   39  C9  UNL     1     -10.926 -66.469 -49.528  1.00  0.00     0.202 C
BRANCH  39  40
HETATM   40  C10 UNL     1     -12.053 -66.715 -48.528  1.00  0.00     0.176 C
HETATM   41  O3  UNL     1     -12.421 -68.003 -48.354  1.00  0.00    -0.349 OA
HETATM   42  C11 UNL     1     -11.912 -68.658 -47.265  1.00  0.00     0.288 C
HETATM   43  C12 UNL     1     -12.243 -67.873 -46.005  1.00  0.00     0.206 C
HETATM   44  C13 UNL     1     -11.381 -66.616 -46.085  1.00  0.00     0.247 C
HETATM   45  C14 UNL     1     -11.797 -65.883 -47.318  1.00  0.00     0.182 C
BRANCH  42  46
HETATM   46  O4  UNL     1     -12.519 -69.925 -47.138  1.00  0.00    -0.369 OA
ATOM     47  H4  UNL     1     -12.913 -70.011 -46.278  1.00  0.00     0.212 HD
ENDBRANCH  42  46
BRANCH  43  48
HETATM   48  O5  UNL     1     -13.551 -67.462 -46.037  1.00  0.00    -0.388 OA
ATOM     49  H5  UNL     1     -13.832 -67.197 -45.169  1.00  0.00     0.210 HD
ENDBRANCH  43  48
BRANCH  44  50
HETATM   50  N6  UNL     1     -11.715 -65.817 -44.897  1.00  0.00    -0.070 N
ATOM     51  H63 UNL     1     -11.916 -64.840 -45.108  1.00  0.00     0.274 HD
ATOM     52  H62 UNL     1     -12.623 -66.047 -44.494  1.00  0.00     0.274 HD
ATOM     53  H61 UNL     1     -10.939 -65.941 -44.246  1.00  0.00     0.274 HD
ENDBRANCH  44  50
BRANCH  45  54
HETATM   54  O6  UNL     1     -12.938 -65.107 -47.000  1.00  0.00    -0.391 OA
ATOM     55  H6  UNL     1     -13.490 -65.568 -46.380  1.00  0.00     0.210 HD
ENDBRANCH  45  54
ENDBRANCH  39  40
ENDBRANCH  36  39
ENDBRANCH  31  32
ENDBRANCH   1  31
TORSDOF 17
ENDMDL