MODEL 3
REMARK VINA RESULT: -7.609286040      4.712      6.982
REMARK  16 active torsions:
REMARK  status: ('A' for Active; 'I' for Inactive)
REMARK    1  A    between atoms: C2_2  and  O1_3
REMARK    2  A    between atoms: C2_2  and  C3_5
REMARK    3  A    between atoms: C3_5  and  N1_6
REMARK    4  A    between atoms: C3_5  and  C16_50
REMARK    5  A    between atoms: N1_6  and  C4_8
REMARK    6  A    between atoms: C4_8  and  O2_9
REMARK    7  A    between atoms: C4_8  and  C5_11
REMARK    8  A    between atoms: C5_11  and  O3_12
REMARK    9  A    between atoms: C5_11  and  C6_14
REMARK   10  A    between atoms: N3_18  and  C8_19
REMARK   11  A    between atoms: C10_22  and  N4_23
REMARK       I    between atoms: C11_25  and  N6_27
REMARK   12  A    between atoms: N6_27  and  N7_29
REMARK   13  A    between atoms: N7_29  and  O5_33
REMARK   14  A    between atoms: C12_35  and  N9_36
REMARK   15  A    between atoms: C13_40  and  O6_41
REMARK   16  A    between atoms: C14_43  and  O7_44
ROOT
HETATM    1  C8  UNL     1     -19.719 -65.621 -49.551  1.00  0.00     0.264 C
HETATM    2  O4  UNL     1     -19.679 -64.430 -50.273  1.00  0.00    -0.361 OA
HETATM    3  C9  UNL     1     -20.569 -63.551 -49.718  1.00  0.00     0.198 C
HETATM    4  C10 UNL     1     -20.306 -63.116 -48.328  1.00  0.00     0.141 C
HETATM    5  C12 UNL     1     -18.963 -63.434 -47.771  1.00  0.00     0.239 C
HETATM    6  C13 UNL     1     -18.739 -64.885 -47.450  1.00  0.00     0.183 C
HETATM    7  C14 UNL     1     -18.447 -65.656 -48.721  1.00  0.00     0.198 C
ENDROOT
BRANCH   1   8
HETATM    8  N3  UNL     1     -19.832 -66.790 -50.396  1.00  0.00    -0.266 N
HETATM    9  C7  UNL     1     -19.041 -67.015 -51.460  1.00  0.00     0.191 A
HETATM   10  N2  UNL     1     -19.182 -68.123 -52.237  1.00  0.00    -0.339 N
HETATM   11  C6  UNL     1     -20.138 -69.005 -51.922  1.00  0.00     0.119 A
ATOM     12  H2  UNL     1     -18.572 -68.278 -53.039  1.00  0.00     0.168 HD
HETATM   13  N10 UNL     1     -20.921 -68.784 -50.870  1.00  0.00    -0.295 N
HETATM   14  C15 UNL     1     -20.791 -67.680 -50.084  1.00  0.00     0.331 A
ATOM     15  H10 UNL     1     -21.644 -69.466 -50.643  1.00  0.00     0.172 HD
HETATM   16  O8  UNL     1     -21.534 -67.477 -49.091  1.00  0.00    -0.246 OA
BRANCH  11  17
HETATM   17  C5  UNL     1     -20.316 -70.215 -52.763  1.00  0.00     0.233 C
BRANCH  17  18
HETATM   18  C4  UNL     1     -19.721 -71.441 -52.084  1.00  0.00     0.250 C
BRANCH  18  19
HETATM   19  N1  UNL     1     -20.560 -72.067 -51.181  1.00  0.00    -0.379 N
ATOM     20  H1  UNL     1     -21.559 -71.915 -51.318  1.00  0.00     0.156 HD
BRANCH  19  21
HETATM   21  C3  UNL     1     -20.211 -72.869 -50.119  1.00  0.00     0.209 C
BRANCH  21  22
HETATM   22  C2  UNL     1     -20.679 -74.276 -50.011  1.00  0.00     0.147 C
HETATM   23  C1  UNL     1     -22.084 -74.530 -49.616  1.00  0.00     0.042 C
BRANCH  22  24
HETATM   24  O1  UNL     1     -19.793 -75.056 -49.244  1.00  0.00    -0.393 OA
ATOM     25  H1  UNL     1     -19.874 -74.850 -48.320  1.00  0.00     0.210 HD
ENDBRANCH  22  24
ENDBRANCH  21  22
BRANCH  21  26
HETATM   26  C16 UNL     1     -20.642 -72.154 -48.840  1.00  0.00     0.199 C
HETATM   27  O9  UNL     1     -20.409 -72.631 -47.710  1.00  0.00    -0.646 OA
HETATM   28  O10 UNL     1     -21.306 -70.945 -49.010  1.00  0.00    -0.646 OA
ENDBRANCH  21  26
ENDBRANCH  19  21
ENDBRANCH  18  19
BRANCH  18  29
HETATM   29  O2  UNL     1     -18.478 -71.094 -51.590  1.00  0.00    -0.374 OA
ATOM     30  H2  UNL     1     -17.739 -71.424 -52.086  1.00  0.00     0.212 HD
ENDBRANCH  18  29
ENDBRANCH  17  18
BRANCH  17  31
HETATM   31  O3  UNL     1     -21.685 -70.461 -52.966  1.00  0.00    -0.384 OA
ATOM     32  H3  UNL     1     -22.064 -70.692 -52.126  1.00  0.00     0.210 HD
ENDBRANCH  17  31
ENDBRANCH  11  17
ENDBRANCH   1   8
BRANCH   7  33
HETATM   33  O7  UNL     1     -18.046 -66.961 -48.460  1.00  0.00    -0.389 OA
ATOM     34  H7  UNL     1     -18.765 -67.573 -48.566  1.00  0.00     0.210 HD
ENDBRANCH   7  33
BRANCH   6  35
HETATM   35  O6  UNL     1     -19.812 -65.479 -46.796  1.00  0.00    -0.391 OA
ATOM     36  H6  UNL     1     -20.030 -65.063 -45.970  1.00  0.00     0.210 HD
ENDBRANCH   6  35
BRANCH   4  37
HETATM   37  N4  UNL     1     -21.328 -63.615 -47.427  1.00  0.00    -0.354 N
HETATM   38  C11 UNL     1     -21.998 -62.877 -46.621  1.00  0.00     0.206 C
HETATM   39  N5  UNL     1     -21.779 -61.492 -46.557  1.00  0.00    -0.062 NA
HETATM   40  N6  UNL     1     -22.968 -63.547 -45.808  1.00  0.00    -0.232 N
ATOM     41  H6  UNL     1     -23.771 -64.006 -46.236  1.00  0.00     0.194 HD
ATOM     42  H4  UNL     1     -21.526 -64.615 -47.435  1.00  0.00     0.162 HD
BRANCH  40  43
HETATM   43  N7  UNL     1     -22.800 -63.563 -44.422  1.00  0.00    -0.099 N
HETATM   44  N8  UNL     1     -23.714 -64.016 -43.673  1.00  0.00    -0.303 N
ATOM     45  H82 UNL     1     -24.587 -64.376 -44.061  1.00  0.00     0.181 HD
ATOM     46  H81 UNL     1     -23.591 -64.028 -42.660  1.00  0.00     0.181 HD
BRANCH  43  47
HETATM   47  O5  UNL     1     -21.630 -63.081 -43.902  1.00  0.00    -0.254 OA
ATOM     48  H5  UNL     1     -20.829 -63.211 -44.395  1.00  0.00     0.248 HD
ENDBRANCH  43  47
ENDBRANCH  40  43
ENDBRANCH   4  37
BRANCH   5  49
HETATM   49  N9  UNL     1     -18.844 -62.707 -46.495  1.00  0.00    -0.070 N
ATOM     50  H93 UNL     1     -19.073 -61.716 -46.576  1.00  0.00     0.274 HD
ATOM     51  H92 UNL     1     -19.570 -62.954 -45.823  1.00  0.00     0.274 HD
ATOM     52  H91 UNL     1     -17.900 -62.874 -46.146  1.00  0.00     0.274 HD
ENDBRANCH   5  49
TORSDOF 16
ENDMDL