MODEL 5
REMARK VINA RESULT: -6.743052405      3.562      6.514
REMARK  20 active torsions:
REMARK  status: ('A' for Active; 'I' for Inactive)
REMARK    1  A    between atoms: N1_1  and  C1_4
REMARK    2  A    between atoms: N4_13  and  C5_14
REMARK    3  A    between atoms: C5_14  and  C6_15
REMARK    4  A    between atoms: C6_15  and  N5_16
REMARK    5  A    between atoms: C6_15  and  C15_45
REMARK    6  A    between atoms: N5_16  and  C7_18
REMARK    7  A    between atoms: C7_18  and  C8_19
REMARK    8  A    between atoms: C7_18  and  C12_36
REMARK    9  A    between atoms: C8_19  and  O2_20
REMARK   10  A    between atoms: C8_19  and  N6_22
REMARK   11  A    between atoms: N6_22  and  C9_23
REMARK   12  A    between atoms: N10_30  and  C10_31
REMARK   13  A    between atoms: C11_33  and  O4_34
REMARK   14  A    between atoms: C12_36  and  O5_37
REMARK   15  A    between atoms: C12_36  and  C13_39
REMARK   16  A    between atoms: C13_39  and  O6_40
REMARK   17  A    between atoms: C13_39  and  C14_42
REMARK   18  A    between atoms: C14_42  and  O7_43
REMARK   19  A    between atoms: C15_45  and  O8_46
REMARK   20  A    between atoms: C15_45  and  O9_48
ROOT
HETATM    1  C7  UNL     1     -21.196 -70.176 -50.548  1.00  0.00     0.199 C
ENDROOT
BRANCH   1   2
HETATM    2  N5  UNL     1     -20.958 -68.852 -50.622  1.00  0.00    -0.394 N
ATOM      3  H5  UNL     1     -20.076 -68.627 -51.081  1.00  0.00     0.155 HD
BRANCH   2   4
HETATM    4  C6  UNL     1     -21.655 -67.739 -50.208  1.00  0.00     0.172 C
BRANCH   4   5
HETATM    5  C5  UNL     1     -20.646 -66.568 -50.339  1.00  0.00     0.102 C
BRANCH   5   6
HETATM    6  N4  UNL     1     -20.301 -65.946 -49.126  1.00  0.00    -0.304 N
HETATM    7  C4  UNL     1     -19.464 -66.389 -48.180  1.00  0.00     0.190 A
HETATM    8  N3  UNL     1     -19.404 -65.538 -47.153  1.00  0.00    -0.344 N
HETATM    9  C3  UNL     1     -20.205 -64.506 -47.396  1.00  0.00     0.148 A
ATOM     10  H3  UNL     1     -18.835 -65.661 -46.315  1.00  0.00     0.167 HD
HETATM   11  C2  UNL     1     -20.546 -63.349 -46.718  1.00  0.00     0.290 A
HETATM   12  C16 UNL     1     -20.773 -64.757 -48.641  1.00  0.00     0.160 A
HETATM   13  N2  UNL     1     -21.420 -62.538 -47.327  1.00  0.00    -0.154 N
HETATM   14  O1  UNL     1     -20.030 -63.131 -45.602  1.00  0.00    -0.265 OA
HETATM   15  C1  UNL     1     -21.971 -62.767 -48.518  1.00  0.00     0.680 A
ATOM     16  H2  UNL     1     -21.685 -61.680 -46.842  1.00  0.00     0.187 HD
HETATM   17  N11 UNL     1     -21.645 -63.890 -49.186  1.00  0.00    -0.174 N
ATOM     18  H11 UNL     1     -22.056 -64.082 -50.100  1.00  0.00     0.186 HD
BRANCH  15  19
HETATM   19  N1  UNL     1     -22.825 -61.947 -49.085  1.00  0.00    -0.234 N
ATOM     20  H12 UNL     1     -22.894 -61.965 -50.103  1.00  0.00     0.174 HD
ATOM     21  H11 UNL     1     -23.414 -61.302 -48.559  1.00  0.00     0.174 HD
ENDBRANCH  15  19
ENDBRANCH   5   6
ENDBRANCH   4   5
BRANCH   4  22
HETATM   22  C15 UNL     1     -22.963 -67.414 -50.882  1.00  0.00     0.281 C
BRANCH  22  23
HETATM   23  O8  UNL     1     -23.236 -68.126 -52.013  1.00  0.00    -0.369 OA
ATOM     24  H8  UNL     1     -24.090 -67.971 -52.399  1.00  0.00     0.212 HD
ENDBRANCH  22  23
BRANCH  22  25
HETATM   25  O9  UNL     1     -23.945 -67.433 -49.910  1.00  0.00    -0.369 OA
ATOM     26  H9  UNL     1     -24.764 -67.660 -50.336  1.00  0.00     0.212 HD
ENDBRANCH  22  25
ENDBRANCH   4  22
ENDBRANCH   2   4
ENDBRANCH   1   2
BRANCH   1  27
HETATM   27  C8  UNL     1     -20.937 -70.776 -49.186  1.00  0.00     0.219 C
BRANCH  27  28
HETATM   28  O2  UNL     1     -20.885 -69.863 -48.215  1.00  0.00    -0.337 OA
ATOM     29  H2  UNL     1     -21.485 -70.044 -47.501  1.00  0.00     0.220 HD
ENDBRANCH  27  28
BRANCH  27  30
HETATM   30  N6  UNL     1     -20.759 -72.014 -48.805  1.00  0.00    -0.345 NA
BRANCH  30  31
HETATM   31  C9  UNL     1     -20.600 -73.141 -48.460  1.00  0.00     0.298 A
HETATM   32  N7  UNL     1     -19.582 -73.727 -47.731  1.00  0.00    -0.242 N
HETATM   33  N8  UNL     1     -19.818 -74.991 -47.561  1.00  0.00    -0.224 N
ATOM     34  H7  UNL     1     -18.762 -73.235 -47.377  1.00  0.00     0.192 HD
HETATM   35  N9  UNL     1     -20.948 -75.293 -48.139  1.00  0.00    -0.220 N
ATOM     36  H8  UNL     1     -19.217 -75.644 -47.057  1.00  0.00     0.210 HD
HETATM   37  N10 UNL     1     -21.441 -74.202 -48.688  1.00  0.00    -0.198 N
ATOM     38  H9  UNL     1     -21.377 -76.217 -48.162  1.00  0.00     0.210 HD
BRANCH  37  39
HETATM   39  C10 UNL     1     -22.689 -74.198 -49.410  1.00  0.00     0.308 A
HETATM   40  O3  UNL     1     -23.807 -74.817 -48.837  1.00  0.00    -0.326 OA
HETATM   41  C11 UNL     1     -23.241 -75.423 -49.958  1.00  0.00     0.310 A
BRANCH  41  42
HETATM   42  O4  UNL     1     -23.945 -75.332 -51.136  1.00  0.00    -0.367 OA
ATOM     43  H4  UNL     1     -24.605 -75.994 -51.306  1.00  0.00     0.212 HD
ENDBRANCH  41  42
ENDBRANCH  37  39
ENDBRANCH  30  31
ENDBRANCH  27  30
ENDBRANCH   1  27
BRANCH   1  44
HETATM   44  C12 UNL     1     -20.222 -70.931 -51.456  1.00  0.00     0.180 C
BRANCH  44  45
HETATM   45  O5  UNL     1     -18.898 -70.673 -51.164  1.00  0.00    -0.390 OA
ATOM     46  H5  UNL     1     -18.293 -71.203 -51.671  1.00  0.00     0.210 HD
ENDBRANCH  44  45
BRANCH  44  47
HETATM   47  C13 UNL     1     -20.467 -70.632 -52.910  1.00  0.00     0.172 C
BRANCH  47  48
HETATM   48  O6  UNL     1     -21.801 -70.333 -53.169  1.00  0.00    -0.391 OA
ATOM     49  H6  UNL     1     -22.148 -70.833 -53.899  1.00  0.00     0.210 HD
ENDBRANCH  47  48
BRANCH  47  50
HETATM   50  C14 UNL     1     -19.484 -69.720 -53.557  1.00  0.00     0.198 C
BRANCH  50  51
HETATM   51  O7  UNL     1     -19.609 -68.391 -53.231  1.00  0.00    -0.398 OA
ATOM     52  H7  UNL     1     -19.445 -68.177 -52.320  1.00  0.00     0.209 HD
ENDBRANCH  50  51
ENDBRANCH  47  50
ENDBRANCH  44  47
ENDBRANCH   1  44
TORSDOF 20
ENDMDL