MODEL 5
REMARK VINA RESULT: -7.722230730      2.045      5.946
REMARK  12 active torsions:
REMARK  status: ('A' for Active; 'I' for Inactive)
REMARK    1  A    between atoms: C1_4  and  C2_5
REMARK    2  A    between atoms: C1_4  and  C13_36
REMARK    3  A    between atoms: C4_13  and  O1_14
REMARK    4  A    between atoms: O1_14  and  C5_15
REMARK    5  A    between atoms: C5_15  and  C6_16
REMARK    6  A    between atoms: C7_18  and  N4_19
REMARK    7  A    between atoms: C11_29  and  O5_30
REMARK    8  A    between atoms: C12_32  and  O6_33
REMARK    9  A    between atoms: C13_36  and  O8_37
REMARK   10  A    between atoms: C13_36  and  C14_39
REMARK   11  A    between atoms: C14_39  and  N7_40
REMARK   12  A    between atoms: C14_39  and  C16_45
REMARK       I    between atoms: N7_40  and  C15_42
ROOT
HETATM    1  C2  UNL     1     -17.564 -69.625 -53.026  1.00  0.00     0.375 C
HETATM    2  N2  UNL     1     -17.187 -69.139 -54.336  1.00  0.00    -0.019 N
ATOM      3  H21 UNL     1     -17.587 -69.715 -55.077  1.00  0.00     0.282 HD
ATOM      4  H22 UNL     1     -16.198 -69.302 -54.525  1.00  0.00     0.282 HD
HETATM    5  C3  UNL     1     -17.534 -67.751 -54.502  1.00  0.00     0.472 C
HETATM    6  N3  UNL     1     -17.124 -67.043 -53.325  1.00  0.00    -0.001 N
ATOM      7  H31 UNL     1     -17.915 -66.743 -52.754  1.00  0.00     0.285 HD
ATOM      8  H32 UNL     1     -16.746 -66.120 -53.536  1.00  0.00     0.285 HD
HETATM    9  C4  UNL     1     -16.189 -67.871 -52.587  1.00  0.00     0.473 C
HETATM   10  O7  UNL     1     -16.938 -68.916 -52.035  1.00  0.00    -0.300 OA
ENDROOT
BRANCH   9  11
HETATM   11  O1  UNL     1     -15.500 -67.158 -51.643  1.00  0.00    -0.336 OA
BRANCH  11  12
HETATM   12  C5  UNL     1     -15.171 -65.918 -52.106  1.00  0.00     0.207 C
BRANCH  12  13
HETATM   13  C6  UNL     1     -15.790 -64.757 -51.404  1.00  0.00     0.179 C
HETATM   14  O2  UNL     1     -17.022 -65.096 -50.803  1.00  0.00    -0.353 OA
HETATM   15  C7  UNL     1     -17.525 -63.833 -50.533  1.00  0.00     0.265 C
HETATM   16  C11 UNL     1     -17.518 -63.215 -51.928  1.00  0.00     0.198 C
HETATM   17  C12 UNL     1     -16.164 -63.675 -52.428  1.00  0.00     0.182 C
BRANCH  15  18
HETATM   18  N4  UNL     1     -18.842 -63.850 -49.957  1.00  0.00    -0.266 N
HETATM   19  C8  UNL     1     -19.770 -64.776 -50.246  1.00  0.00     0.194 A
HETATM   20  N5  UNL     1     -20.966 -64.686 -49.642  1.00  0.00    -0.304 N
HETATM   21  C9  UNL     1     -21.273 -63.720 -48.768  1.00  0.00     0.329 A
ATOM     22  H5  UNL     1     -21.674 -65.387 -49.859  1.00  0.00     0.171 HD
HETATM   23  O3  UNL     1     -22.382 -63.612 -48.188  1.00  0.00    -0.247 OA
HETATM   24  N6  UNL     1     -20.340 -62.788 -48.475  1.00  0.00    -0.260 N
HETATM   25  C10 UNL     1     -19.143 -62.876 -49.078  1.00  0.00     0.333 A
ATOM     26  H6  UNL     1     -20.538 -62.038 -47.814  1.00  0.00     0.175 HD
HETATM   27  O4  UNL     1     -18.296 -61.973 -48.771  1.00  0.00    -0.246 OA
ENDBRANCH  15  18
BRANCH  16  28
HETATM   28  O5  UNL     1     -17.658 -61.850 -51.904  1.00  0.00    -0.388 OA
ATOM     29  H5  UNL     1     -16.879 -61.407 -51.588  1.00  0.00     0.210 HD
ENDBRANCH  16  28
BRANCH  17  30
HETATM   30  O6  UNL     1     -16.223 -64.176 -53.709  1.00  0.00    -0.390 OA
ATOM     31  H6  UNL     1     -16.424 -63.500 -54.346  1.00  0.00     0.210 HD
ENDBRANCH  17  30
ENDBRANCH  12  13
ENDBRANCH  11  12
ENDBRANCH   9  11
BRANCH   1  32
HETATM   32  C1  UNL     1     -19.032 -69.722 -52.850  1.00  0.00     0.068 C
HETATM   33  N1  UNL     1     -19.719 -70.390 -53.689  1.00  0.00    -0.400 N
ATOM     34  H12 UNL     1     -19.250 -70.847 -54.470  1.00  0.00     0.155 HD
ATOM     35  H11 UNL     1     -20.729 -70.457 -53.567  1.00  0.00     0.155 HD
BRANCH  32  36
HETATM   36  C13 UNL     1     -19.712 -69.059 -51.718  1.00  0.00     0.199 C
BRANCH  36  37
HETATM   37  O8  UNL     1     -19.858 -67.704 -52.102  1.00  0.00    -0.387 OA
ATOM     38  H8  UNL     1     -20.646 -67.672 -52.633  1.00  0.00     0.210 HD
ENDBRANCH  36  37
BRANCH  36  39
HETATM   39  C14 UNL     1     -21.035 -69.623 -51.342  1.00  0.00     0.211 C
BRANCH  39  40
HETATM   40  N7  UNL     1     -20.919 -70.332 -50.089  1.00  0.00    -0.319 N
HETATM   41  C15 UNL     1     -20.368 -71.620 -49.953  1.00  0.00     0.284 C
HETATM   42  O9  UNL     1     -19.939 -72.227 -50.972  1.00  0.00    -0.630 OA
HETATM   43  O10 UNL     1     -20.281 -72.251 -48.707  1.00  0.00    -0.630 OA
ATOM     44  H7  UNL     1     -21.259 -69.868 -49.247  1.00  0.00     0.166 HD
ENDBRANCH  39  40
BRANCH  39  45
HETATM   45  C16 UNL     1     -21.969 -68.451 -51.175  1.00  0.00     0.257 C
HETATM   46  N8  UNL     1     -21.963 -67.679 -49.999  1.00  0.00    -0.060 NA
HETATM   47  O11 UNL     1     -22.758 -68.168 -52.099  1.00  0.00    -0.274 OA
ENDBRANCH  39  45
ENDBRANCH  36  39
ENDBRANCH  32  36
ENDBRANCH   1  32
TORSDOF 12
ENDMDL