MODEL 1
REMARK VINA RESULT: -8.029002237      0.000      0.000
REMARK  19 active torsions:
REMARK  status: ('A' for Active; 'I' for Inactive)
REMARK    1  A    between atoms: C2_2  and  O1_3
REMARK    2  A    between atoms: C2_2  and  C3_5
REMARK    3  A    between atoms: C2_2  and  C13_28
REMARK    4  A    between atoms: C3_5  and  O2_6
REMARK    5  A    between atoms: C3_5  and  C4_8
REMARK    6  A    between atoms: C4_8  and  C5_10
REMARK    7  A    between atoms: C6_12  and  N1_13
REMARK    8  A    between atoms: C11_22  and  O7_23
REMARK    9  A    between atoms: C12_25  and  O8_26
REMARK   10  A    between atoms: C13_28  and  O9_29
REMARK   11  A    between atoms: C13_28  and  C14_31
REMARK   12  A    between atoms: C14_31  and  N3_32
REMARK   13  A    between atoms: C14_31  and  C17_45
REMARK       I    between atoms: N3_32  and  C15_34
REMARK   14  A    between atoms: C15_34  and  C16_36
REMARK   15  A    between atoms: C16_36  and  N4_37
REMARK   16  A    between atoms: C16_36  and  O11_41
REMARK   17  A    between atoms: O11_41  and  N5_42
REMARK   18  A    between atoms: C17_45  and  N6_46
REMARK   19  A    between atoms: C17_45  and  O12_50
ROOT
HETATM    1  C1  UNL     1     -20.882 -66.321 -49.332  1.00  0.00     0.052 C
HETATM    2  C2  UNL     1     -19.498 -65.999 -49.740  1.00  0.00     0.118 C
ENDROOT
BRANCH   2   3
HETATM    3  O1  UNL     1     -18.640 -66.910 -49.135  1.00  0.00    -0.384 OA
ATOM      4  H1  UNL     1     -18.207 -67.410 -49.817  1.00  0.00     0.210 HD
ENDBRANCH   2   3
BRANCH   2   5
HETATM    5  C3  UNL     1     -19.221 -66.128 -51.224  1.00  0.00     0.227 C
BRANCH   5   6
HETATM    6  O2  UNL     1     -18.250 -65.175 -51.664  1.00  0.00    -0.385 OA
ATOM      7  H2  UNL     1     -18.107 -65.229 -52.601  1.00  0.00     0.210 HD
ENDBRANCH   5   6
BRANCH   5   8
HETATM    8  C4  UNL     1     -18.739 -67.450 -51.677  1.00  0.00     0.189 C
HETATM    9  O3  UNL     1     -17.586 -67.645 -51.981  1.00  0.00    -0.292 OA
BRANCH   8  10
HETATM   10  C5  UNL     1     -19.657 -68.612 -51.772  1.00  0.00     0.227 C
HETATM   11  O4  UNL     1     -19.862 -69.254 -50.541  1.00  0.00    -0.348 OA
HETATM   12  C6  UNL     1     -20.667 -70.328 -50.923  1.00  0.00     0.264 C
HETATM   13  C11 UNL     1     -20.192 -70.815 -52.269  1.00  0.00     0.199 C
HETATM   14  C12 UNL     1     -19.092 -69.775 -52.570  1.00  0.00     0.187 C
BRANCH  12  15
HETATM   15  N1  UNL     1     -20.648 -71.432 -49.995  1.00  0.00    -0.280 N
HETATM   16  C7  UNL     1     -20.253 -72.646 -50.445  1.00  0.00     0.104 A
HETATM   17  C8  UNL     1     -20.210 -73.758 -49.624  1.00  0.00     0.092 A
HETATM   18  C9  UNL     1     -20.575 -73.629 -48.313  1.00  0.00     0.250 A
HETATM   19  O5  UNL     1     -20.550 -74.610 -47.541  1.00  0.00    -0.268 OA
HETATM   20  N2  UNL     1     -20.968 -72.414 -47.869  1.00  0.00    -0.275 N
HETATM   21  C10 UNL     1     -21.000 -71.338 -48.706  1.00  0.00     0.331 A
ATOM     22  H2  UNL     1     -21.244 -72.302 -46.894  1.00  0.00     0.173 HD
HETATM   23  O6  UNL     1     -21.373 -70.201 -48.272  1.00  0.00    -0.246 OA
ENDBRANCH  12  15
BRANCH  13  24
HETATM   24  O7  UNL     1     -21.157 -70.722 -53.244  1.00  0.00    -0.388 OA
ATOM     25  H7  UNL     1     -21.537 -69.854 -53.307  1.00  0.00     0.210 HD
ENDBRANCH  13  24
BRANCH  14  26
HETATM   26  O8  UNL     1     -17.879 -70.231 -52.093  1.00  0.00    -0.390 OA
ATOM     27  H8  UNL     1     -17.919 -70.546 -51.197  1.00  0.00     0.210 HD
ENDBRANCH  14  26
ENDBRANCH   8  10
ENDBRANCH   5   8
ENDBRANCH   2   5
BRANCH   2  28
HETATM   28  C13 UNL     1     -19.019 -64.649 -49.273  1.00  0.00     0.205 C
BRANCH  28  29
HETATM   29  O9  UNL     1     -17.622 -64.753 -48.981  1.00  0.00    -0.387 OA
ATOM     30  H9  UNL     1     -17.419 -65.671 -48.843  1.00  0.00     0.210 HD
ENDBRANCH  28  29
BRANCH  28  31
HETATM   31  C14 UNL     1     -19.602 -64.041 -48.074  1.00  0.00     0.077 C
BRANCH  31  32
HETATM   32  N3  UNL     1     -20.306 -62.793 -48.230  1.00  0.00    -0.324 N
HETATM   33  C15 UNL     1     -21.700 -62.671 -48.018  1.00  0.00     0.281 C
HETATM   34  O10 UNL     1     -22.388 -63.657 -47.680  1.00  0.00    -0.268 OA
ATOM     35  H3  UNL     1     -19.778 -61.963 -48.503  1.00  0.00     0.168 HD
BRANCH  33  36
HETATM   36  C16 UNL     1     -22.382 -61.370 -48.193  1.00  0.00     0.438 C
BRANCH  36  37
HETATM   37  N4  UNL     1     -23.353 -61.396 -49.270  1.00  0.00    -0.042 N
ATOM     38  H43 UNL     1     -22.893 -61.366 -50.180  1.00  0.00     0.278 HD
ATOM     39  H42 UNL     1     -23.797 -62.311 -49.342  1.00  0.00     0.278 HD
ATOM     40  H41 UNL     1     -24.048 -60.655 -49.183  1.00  0.00     0.278 HD
ENDBRANCH  36  37
BRANCH  36  41
HETATM   41  O11 UNL     1     -21.419 -60.369 -48.451  1.00  0.00    -0.244 OA
BRANCH  41  42
HETATM   42  N5  UNL     1     -21.478 -59.463 -47.456  1.00  0.00    -0.308 N
ATOM     43  H52 UNL     1     -22.337 -59.100 -47.043  1.00  0.00     0.184 HD
ATOM     44  H51 UNL     1     -20.523 -59.213 -47.197  1.00  0.00     0.184 HD
ENDBRANCH  41  42
ENDBRANCH  36  41
ENDBRANCH  33  36
ENDBRANCH  31  32
BRANCH  31  45
HETATM   45  C17 UNL     1     -18.891 -64.148 -46.763  1.00  0.00     0.365 C
BRANCH  45  46
HETATM   46  N6  UNL     1     -19.932 -63.991 -45.706  1.00  0.00    -0.048 N
ATOM     47  H63 UNL     1     -19.698 -64.469 -44.835  1.00  0.00     0.277 HD
ATOM     48  H62 UNL     1     -19.980 -63.047 -45.323  1.00  0.00     0.277 HD
ATOM     49  H61 UNL     1     -20.810 -64.307 -46.118  1.00  0.00     0.277 HD
ENDBRANCH  45  46
BRANCH  45  50
HETATM   50  O12 UNL     1     -18.487 -65.501 -46.530  1.00  0.00    -0.365 OA
ATOM     51  H12 UNL     1     -18.111 -65.870 -47.320  1.00  0.00     0.212 HD
ENDBRANCH  45  50
ENDBRANCH  31  45
ENDBRANCH  28  31
ENDBRANCH   2  28
TORSDOF 19
ENDMDL