MODEL 4
REMARK VINA RESULT: -8.032914704      5.007      6.783
REMARK  16 active torsions:
REMARK  status: ('A' for Active; 'I' for Inactive)
REMARK    1  A    between atoms: N3_9  and  C4_10
REMARK    2  A    between atoms: C5_12  and  C6_13
REMARK    3  A    between atoms: C6_13  and  O4_14
REMARK    4  A    between atoms: C7_16  and  C8_17
REMARK    5  A    between atoms: C8_17  and  O5_18
REMARK    6  A    between atoms: C8_17  and  C9_20
REMARK    7  A    between atoms: C9_20  and  O6_21
REMARK    8  A    between atoms: C9_20  and  C10_23
REMARK    9  A    between atoms: C10_23  and  O7_24
REMARK   10  A    between atoms: C10_23  and  C11_26
REMARK   11  A    between atoms: C11_26  and  N4_27
REMARK       I    between atoms: N4_27  and  C12_29
REMARK   12  A    between atoms: C12_29  and  C13_31
REMARK   13  A    between atoms: C13_31  and  N5_32
REMARK   14  A    between atoms: C13_31  and  C14_36
REMARK   15  A    between atoms: C15_39  and  N7_40
REMARK   16  A    between atoms: C16_48  and  O10_49
ROOT
HETATM    1  C9  UNL     1     -15.879 -67.649 -52.553  1.00  0.00     0.179 C
ENDROOT
BRANCH   1   2
HETATM    2  C8  UNL     1     -16.214 -66.518 -51.595  1.00  0.00     0.181 C
BRANCH   2   3
HETATM    3  C7  UNL     1     -16.176 -65.183 -52.291  1.00  0.00     0.187 C
HETATM    4  C5  UNL     1     -17.426 -64.407 -52.196  1.00  0.00     0.179 C
HETATM    5  O3  UNL     1     -17.246 -63.184 -52.833  1.00  0.00    -0.350 OA
HETATM    6  C4  UNL     1     -16.112 -62.495 -52.485  1.00  0.00     0.304 C
HETATM    7  C16 UNL     1     -14.852 -63.311 -52.511  1.00  0.00     0.308 C
HETATM    8  O9  UNL     1     -15.093 -64.483 -51.778  1.00  0.00    -0.346 OA
BRANCH   4   9
HETATM    9  C6  UNL     1     -18.016 -64.207 -50.844  1.00  0.00     0.198 C
BRANCH   9  10
HETATM   10  O4  UNL     1     -19.165 -63.391 -51.042  1.00  0.00    -0.398 OA
ATOM     11  H4  UNL     1     -19.897 -63.891 -50.703  1.00  0.00     0.209 HD
ENDBRANCH   9  10
ENDBRANCH   4   9
BRANCH   6  12
HETATM   12  N3  UNL     1     -16.040 -61.305 -53.289  1.00  0.00    -0.202 N
HETATM   13  N1  UNL     1     -16.167 -60.089 -52.782  1.00  0.00    -0.238 N
HETATM   14  C1  UNL     1     -16.395 -59.740 -51.371  1.00  0.00     0.183 C
HETATM   15  C2  UNL     1     -16.053 -59.179 -53.776  1.00  0.00     0.345 A
HETATM   16  O1  UNL     1     -16.126 -57.934 -53.630  1.00  0.00    -0.245 OA
HETATM   17  N2  UNL     1     -15.849 -59.817 -54.934  1.00  0.00    -0.258 N
HETATM   18  C3  UNL     1     -15.846 -61.133 -54.603  1.00  0.00     0.347 A
ATOM     19  H2  UNL     1     -15.725 -59.407 -55.859  1.00  0.00     0.175 HD
HETATM   20  O2  UNL     1     -15.681 -62.036 -55.427  1.00  0.00    -0.245 OA
ENDBRANCH   6  12
BRANCH   7  21
HETATM   21  O10 UNL     1     -13.883 -62.620 -51.786  1.00  0.00    -0.367 OA
ATOM     22  H10 UNL     1     -13.492 -61.977 -52.366  1.00  0.00     0.212 HD
ENDBRANCH   7  21
ENDBRANCH   2   3
BRANCH   2  23
HETATM   23  O5  UNL     1     -15.334 -66.629 -50.529  1.00  0.00    -0.390 OA
ATOM     24  H5  UNL     1     -14.823 -67.430 -50.527  1.00  0.00     0.210 HD
ENDBRANCH   2  23
ENDBRANCH   1   2
BRANCH   1  25
HETATM   25  O6  UNL     1     -15.865 -68.873 -51.846  1.00  0.00    -0.390 OA
ATOM     26  H6  UNL     1     -15.090 -68.911 -51.297  1.00  0.00     0.210 HD
ENDBRANCH   1  25
BRANCH   1  27
HETATM   27  C10 UNL     1     -16.905 -67.800 -53.635  1.00  0.00     0.167 C
BRANCH  27  28
HETATM   28  O7  UNL     1     -16.367 -67.617 -54.909  1.00  0.00    -0.391 OA
ATOM     29  H7  UNL     1     -16.737 -66.863 -55.355  1.00  0.00     0.210 HD
ENDBRANCH  27  28
BRANCH  27  30
HETATM   30  C11 UNL     1     -17.636 -69.099 -53.589  1.00  0.00     0.157 C
BRANCH  30  31
HETATM   31  N4  UNL     1     -18.690 -69.171 -52.623  1.00  0.00    -0.356 N
HETATM   32  C12 UNL     1     -19.260 -70.371 -52.109  1.00  0.00     0.256 C
HETATM   33  O8  UNL     1     -18.833 -71.461 -52.513  1.00  0.00    -0.271 OA
ATOM     34  H4  UNL     1     -19.064 -68.289 -52.274  1.00  0.00     0.162 HD
BRANCH  32  35
HETATM   35  C13 UNL     1     -20.349 -70.349 -51.104  1.00  0.00     0.343 C
BRANCH  35  36
HETATM   36  N5  UNL     1     -20.696 -71.692 -50.738  1.00  0.00    -0.059 N
ATOM     37  H53 UNL     1     -20.938 -71.771 -49.750  1.00  0.00     0.275 HD
ATOM     38  H52 UNL     1     -21.591 -71.979 -51.132  1.00  0.00     0.275 HD
ATOM     39  H51 UNL     1     -19.940 -72.326 -51.000  1.00  0.00     0.275 HD
ENDBRANCH  35  36
BRANCH  35  40
HETATM   40  C14 UNL     1     -21.514 -69.577 -51.640  1.00  0.00     0.152 A
HETATM   41  N6  UNL     1     -22.037 -69.666 -52.883  1.00  0.00    -0.176 N
HETATM   42  C15 UNL     1     -23.067 -68.801 -52.934  1.00  0.00     0.692 A
ATOM     43  H6  UNL     1     -21.713 -70.272 -53.637  1.00  0.00     0.185 HD
HETATM   44  N8  UNL     1     -23.186 -68.183 -51.750  1.00  0.00    -0.131 N
HETATM   45  N9  UNL     1     -22.221 -68.673 -50.965  1.00  0.00    -0.272 N
ATOM     46  H8  UNL     1     -23.877 -67.476 -51.499  1.00  0.00     0.205 HD
ATOM     47  H9  UNL     1     -22.053 -68.396 -49.997  1.00  0.00     0.189 HD
BRANCH  42  48
HETATM   48  N7  UNL     1     -23.792 -68.634 -53.991  1.00  0.00    -0.233 N
ATOM     49  H72 UNL     1     -24.437 -67.871 -54.194  1.00  0.00     0.174 HD
ATOM     50  H71 UNL     1     -23.788 -69.289 -54.774  1.00  0.00     0.174 HD
ENDBRANCH  42  48
ENDBRANCH  35  40
ENDBRANCH  32  35
ENDBRANCH  30  31
ENDBRANCH  27  30
ENDBRANCH   1  27
TORSDOF 16
ENDMDL