MODEL 2
REMARK VINA RESULT: -6.313464769      2.897      5.692
REMARK  7 active torsions:
REMARK  status: ('A' for Active; 'I' for Inactive)
REMARK    1  A    between atoms: N1_2  and  O1_3
REMARK    2  A    between atoms: N1_2  and  C2_5
REMARK    3  A    between atoms: C3_8  and  N3_9
REMARK    4  A    between atoms: C8_17  and  N5_18
REMARK    5  A    between atoms: N5_18  and  C9_20
REMARK    6  A    between atoms: C9_20  and  C10_21
REMARK    7  A    between atoms: C10_21  and  N6_22
ROOT
HETATM    1  C2  UNL     1     -38.160   9.532   3.548  1.00  0.00     0.167 A
HETATM    2  N2  UNL     1     -39.000   8.805   4.305  1.00  0.00    -0.173 N
ATOM      3  H2  UNL     1     -38.640   8.314   5.124  1.00  0.00     0.186 HD
HETATM    4  C3  UNL     1     -40.300   8.713   4.005  1.00  0.00     0.683 A
HETATM    5  N4  UNL     1     -40.765   9.361   2.927  1.00  0.00    -0.175 N
ATOM      6  H4  UNL     1     -41.758   9.288   2.701  1.00  0.00     0.186 HD
HETATM    7  C8  UNL     1     -39.979  10.098   2.136  1.00  0.00     0.141 A
HETATM    8  C12 UNL     1     -38.616  10.204   2.439  1.00  0.00     0.135 A
HETATM    9  C13 UNL     1     -37.751  11.001   1.588  1.00  0.00     0.107 C
HETATM   10  N9  UNL     1     -37.080  11.642   0.898  1.00  0.00    -0.191 NA
ENDROOT
BRANCH   1  11
HETATM   11  N1  UNL     1     -36.776   9.606   3.902  1.00  0.00    -0.247 N
HETATM   12  C1  UNL     1     -36.368  10.596   4.911  1.00  0.00     0.187 C
BRANCH  11  13
HETATM   13  O1  UNL     1     -35.809   8.838   3.383  1.00  0.00    -0.286 OA
ATOM     14  H1  UNL     1     -36.051   8.275   2.657  1.00  0.00     0.244 HD
ENDBRANCH  11  13
ENDBRANCH   1  11
BRANCH   7  15
HETATM   15  N5  UNL     1     -40.495  10.779   1.009  1.00  0.00    -0.373 N
ATOM     16  H5  UNL     1     -40.483  10.296   0.111  1.00  0.00     0.161 HD
BRANCH  15  17
HETATM   17  C9  UNL     1     -41.035  12.111   1.051  1.00  0.00     0.141 C
BRANCH  17  18
HETATM   18  C10 UNL     1     -41.636  12.493   2.381  1.00  0.00     0.141 C
BRANCH  18  19
HETATM   19  N6  UNL     1     -41.576  13.955   2.466  1.00  0.00    -0.365 N
HETATM   20  C11 UNL     1     -42.033  14.593   3.480  1.00  0.00     0.197 C
HETATM   21  N7  UNL     1     -42.621  13.921   4.577  1.00  0.00    -0.067 NA
HETATM   22  N8  UNL     1     -41.945  16.003   3.500  1.00  0.00    -0.067 NA
ATOM     23  H6  UNL     1     -41.159  14.480   1.697  1.00  0.00     0.161 HD
ENDBRANCH  18  19
ENDBRANCH  17  18
ENDBRANCH  15  17
ENDBRANCH   7  15
BRANCH   4  24
HETATM   24  N3  UNL     1     -41.181   7.926   4.834  1.00  0.00    -0.216 N
HETATM   25  C4  UNL     1     -41.414   6.555   4.476  1.00  0.00     0.151 C
HETATM   26  C5  UNL     1     -42.837   6.424   3.931  1.00  0.00     0.094 C
HETATM   27  S1  UNL     1     -43.944   6.965   5.274  1.00  0.00    -0.166 SA
HETATM   28  C6  UNL     1     -43.308   8.594   5.827  1.00  0.00     0.094 C
HETATM   29  C7  UNL     1     -41.794   8.527   5.982  1.00  0.00     0.151 C
ENDBRANCH   4  24
TORSDOF 7
ENDMDL