MODEL 2
REMARK VINA RESULT: -6.176650765      1.491      1.849
REMARK  6 active torsions:
REMARK  status: ('A' for Active; 'I' for Inactive)
REMARK    1  A    between atoms: C2_2  and  C3_3
REMARK    2  A    between atoms: C3_3  and  N1_5
REMARK    3  A    between atoms: N1_5  and  C5_7
REMARK    4  A    between atoms: N7_23  and  C11_24
REMARK    5  A    between atoms: C11_24  and  C12_25
REMARK    6  A    between atoms: C12_25  and  N8_26
ROOT
HETATM    1  C5  UNL     1     -40.035   9.024   5.401  1.00  0.00     0.683 A
HETATM    2  N2  UNL     1     -38.748   9.386   5.746  1.00  0.00    -0.184 N
ATOM      3  H2  UNL     1     -38.360   9.344   6.688  1.00  0.00     0.184 HD
HETATM    4  C6  UNL     1     -38.093   9.798   4.669  1.00  0.00     0.137 A
HETATM    5  C7  UNL     1     -36.814  10.268   4.410  1.00  0.00     0.132 A
HETATM    6  N3  UNL     1     -35.996  10.359   5.389  1.00  0.00    -0.383 N
ATOM      7  H31 UNL     1     -35.055  10.704   5.199  1.00  0.00     0.157 HD
ATOM      8  H32 UNL     1     -36.236  10.106   6.348  1.00  0.00     0.157 HD
HETATM    9  N4  UNL     1     -36.499  10.600   3.151  1.00  0.00    -0.318 N
ATOM     10  H4  UNL     1     -35.555  10.944   2.977  1.00  0.00     0.169 HD
HETATM   11  C8  UNL     1     -37.330  10.516   2.104  1.00  0.00     0.191 A
HETATM   12  C9  UNL     1     -36.918  10.895   0.768  1.00  0.00     0.137 C
HETATM   13  N5  UNL     1     -36.604  11.193  -0.306  1.00  0.00    -0.188 NA
HETATM   14  N6  UNL     1     -38.572  10.061   2.352  1.00  0.00    -0.317 N
ATOM     15  H6  UNL     1     -39.238   9.981   1.584  1.00  0.00     0.169 HD
HETATM   16  C10 UNL     1     -38.952   9.709   3.604  1.00  0.00     0.157 A
HETATM   17  N7  UNL     1     -40.146   9.226   4.089  1.00  0.00    -0.164 N
ENDROOT
BRANCH  17  18
HETATM   18  C11 UNL     1     -41.284   9.017   3.216  1.00  0.00     0.171 C
BRANCH  18  19
HETATM   19  C12 UNL     1     -42.259  10.176   3.256  1.00  0.00     0.170 C
BRANCH  19  20
HETATM   20  N8  UNL     1     -42.416  10.747   1.944  1.00  0.00    -0.289 N
HETATM   21  C13 UNL     1     -43.459  11.695   1.827  1.00  0.00     0.177 C
HETATM   22  C14 UNL     1     -43.020  13.087   2.229  1.00  0.00     0.256 C
HETATM   23  N9  UNL     1     -41.579  13.183   2.305  1.00  0.00    -0.050 N
HETATM   24  C15 UNL     1     -40.909  12.356   1.334  1.00  0.00     0.432 C
ATOM     25  H92 UNL     1     -41.274  14.154   2.230  1.00  0.00     0.279 HD
ATOM     26  H91 UNL     1     -41.250  12.977   3.248  1.00  0.00     0.279 HD
HETATM   27  O1  UNL     1     -41.277  11.052   1.338  1.00  0.00    -0.255 OA
ENDBRANCH  19  20
ENDBRANCH  18  19
ENDBRANCH  17  18
BRANCH   1  28
HETATM   28  N1  UNL     1     -40.845   8.600   6.254  1.00  0.00    -0.222 N
ATOM     29  H1  UNL     1     -40.409   8.541   7.175  1.00  0.00     0.178 HD
BRANCH  28  30
HETATM   30  C3  UNL     1     -42.167   8.187   6.304  1.00  0.00     0.095 C
HETATM   31  C4  UNL     1     -42.386   6.725   5.933  1.00  0.00     0.032 C
BRANCH  30  32
HETATM   32  C2  UNL     1     -42.599   8.245   7.796  1.00  0.00     0.021 C
HETATM   33  C1  UNL     1     -41.391   8.204   8.679  1.00  0.00     0.007 C
ENDBRANCH  30  32
ENDBRANCH  28  30
ENDBRANCH   1  28
TORSDOF 6
ENDMDL