MODEL 5
REMARK VINA RESULT: -5.304909867      2.972      4.106
REMARK  10 active torsions:
REMARK  status: ('A' for Active; 'I' for Inactive)
REMARK    1  A    between atoms: C2_2  and  N1_4
REMARK    2  A    between atoms: N1_4  and  C4_6
REMARK    3  A    between atoms: C5_9  and  N3_10
REMARK    4  A    between atoms: C9_14  and  N4_15
REMARK    5  A    between atoms: C9_14  and  C10_19
REMARK    6  A    between atoms: C10_19  and  O1_20
REMARK    7  A    between atoms: C12_25  and  S1_26
REMARK    8  A    between atoms: S1_26  and  C13_27
REMARK    9  A    between atoms: C13_27  and  C14_28
REMARK   10  A    between atoms: C14_28  and  N6_29
ROOT
HETATM    1  C4  UNL     1     -41.171  12.169   2.632  1.00  0.00     0.695 A
HETATM    2  N2  UNL     1     -40.564  11.953   1.445  1.00  0.00    -0.022 N
ATOM      3  H2  UNL     1     -40.706  12.635   0.700  1.00  0.00     0.203 HD
HETATM    4  C5  UNL     1     -39.789  10.894   1.196  1.00  0.00     0.696 A
HETATM    5  N5  UNL     1     -39.621  10.006   2.199  1.00  0.00    -0.169 N
ATOM      6  H5  UNL     1     -39.035   9.185   2.046  1.00  0.00     0.186 HD
HETATM    7  C12 UNL     1     -40.208  10.181   3.401  1.00  0.00     0.174 A
HETATM    8  N7  UNL     1     -40.978  11.252   3.626  1.00  0.00    -0.169 N
ATOM      9  H7  UNL     1     -41.420  11.383   4.537  1.00  0.00     0.186 HD
ENDROOT
BRANCH   4  10
HETATM   10  N3  UNL     1     -39.146  10.653  -0.063  1.00  0.00    -0.215 N
HETATM   11  C6  UNL     1     -37.738  10.928  -0.214  1.00  0.00     0.141 C
HETATM   12  C7  UNL     1     -37.186  10.041  -1.293  1.00  0.00     0.023 C
HETATM   13  C8  UNL     1     -37.854   8.704  -1.227  1.00  0.00     0.044 C
HETATM   14  C9  UNL     1     -39.324   8.785  -1.605  1.00  0.00     0.161 C
HETATM   15  C11 UNL     1     -39.885  10.138  -1.195  1.00  0.00     0.182 C
BRANCH  14  16
HETATM   16  N4  UNL     1     -39.994   7.725  -0.928  1.00  0.00    -0.067 N
ATOM     17  H43 UNL     1     -39.354   7.042  -0.524  1.00  0.00     0.275 HD
ATOM     18  H42 UNL     1     -40.435   8.023  -0.057  1.00  0.00     0.275 HD
ATOM     19  H41 UNL     1     -40.653   7.312  -1.588  1.00  0.00     0.275 HD
ENDBRANCH  14  16
BRANCH  14  20
HETATM   20  C10 UNL     1     -39.395   8.665  -3.127  1.00  0.00     0.204 C
BRANCH  20  21
HETATM   21  O1  UNL     1     -40.104   9.711  -3.692  1.00  0.00    -0.398 OA
ATOM     22  H1  UNL     1     -41.020   9.490  -3.815  1.00  0.00     0.209 HD
ENDBRANCH  20  21
ENDBRANCH  14  20
ENDBRANCH   4  10
BRANCH   1  23
HETATM   23  N1  UNL     1     -41.900  13.156   2.858  1.00  0.00    -0.222 N
ATOM     24  H1  UNL     1     -42.289  13.563   2.008  1.00  0.00     0.178 HD
BRANCH  23  25
HETATM   25  C2  UNL     1     -42.306  13.830   4.021  1.00  0.00     0.091 C
HETATM   26  C1  UNL     1     -41.997  15.311   4.061  1.00  0.00     0.032 C
HETATM   27  C3  UNL     1     -43.827  13.702   4.200  1.00  0.00     0.032 C
ENDBRANCH  23  25
ENDBRANCH   1  23
BRANCH   7  28
HETATM   28  S1  UNL     1     -39.986   8.973   4.700  1.00  0.00    -0.091 SA
BRANCH  28  29
HETATM   29  C13 UNL     1     -38.637   9.389   5.810  1.00  0.00     0.109 C
BRANCH  29  30
HETATM   30  C14 UNL     1     -37.496   9.911   4.957  1.00  0.00     0.240 C
BRANCH  30  31
HETATM   31  N6  UNL     1     -36.543   8.812   4.750  1.00  0.00    -0.079 N
ATOM     32  H63 UNL     1     -35.612   9.025   5.107  1.00  0.00     0.274 HD
ATOM     33  H62 UNL     1     -36.736   8.006   5.344  1.00  0.00     0.274 HD
ATOM     34  H61 UNL     1     -36.541   8.577   3.757  1.00  0.00     0.274 HD
ENDBRANCH  30  31
ENDBRANCH  29  30
ENDBRANCH  28  29
ENDBRANCH   7  28
TORSDOF 10
ENDMDL