MODEL 5
REMARK VINA RESULT: -6.322639849      1.702      6.941
REMARK  8 active torsions:
REMARK  status: ('A' for Active; 'I' for Inactive)
REMARK    1  A    between atoms: C3_5  and  N2_6
REMARK    2  A    between atoms: C4_13  and  C5_14
REMARK    3  A    between atoms: C5_14  and  C6_15
REMARK    4  A    between atoms: C6_15  and  N5_16
REMARK    5  A    between atoms: N5_16  and  C7_18
REMARK    6  A    between atoms: C9_24  and  N8_25
REMARK    7  A    between atoms: C13_29  and  C14_30
REMARK    8  A    between atoms: C14_30  and  N9_31
ROOT
HETATM    1  C7  UNL     1     -42.073   9.088   4.706  1.00  0.00     0.693 A
HETATM    2  N6  UNL     1     -42.242   8.678   5.992  1.00  0.00    -0.187 N
ATOM      3  H6  UNL     1     -43.181   8.463   6.329  1.00  0.00     0.185 HD
HETATM    4  C8  UNL     1     -41.200   8.551   6.824  1.00  0.00     0.215 A
HETATM    5  N7  UNL     1     -39.967   8.835   6.375  1.00  0.00    -0.187 N
ATOM      6  H7  UNL     1     -39.176   8.737   7.011  1.00  0.00     0.185 HD
HETATM    7  C9  UNL     1     -39.743   9.244   5.117  1.00  0.00     0.695 A
HETATM    8  N10 UNL     1     -40.823   9.357   4.314  1.00  0.00    -0.022 N
ATOM      9  H10 UNL     1     -40.677   9.665   3.353  1.00  0.00     0.203 HD
ENDROOT
BRANCH   1  10
HETATM   10  N5  UNL     1     -43.062   9.216   3.891  1.00  0.00    -0.225 N
ATOM     11  H5  UNL     1     -43.999   8.910   4.154  1.00  0.00     0.177 HD
BRANCH  10  12
HETATM   12  C6  UNL     1     -42.811   9.802   2.594  1.00  0.00     0.144 C
BRANCH  12  13
HETATM   13  C5  UNL     1     -43.770  10.958   2.336  1.00  0.00     0.081 C
BRANCH  13  14
HETATM   14  C4  UNL     1     -43.217  12.220   2.849  1.00  0.00     0.050 A
HETATM   15  C2  UNL     1     -43.773  12.852   3.934  1.00  0.00     0.046 A
HETATM   16  C1  UNL     1     -44.950  12.301   4.629  1.00  0.00     0.071 C
HETATM   17  N1  UNL     1     -43.183  14.013   4.333  1.00  0.00    -0.193 N
HETATM   18  C3  UNL     1     -42.112  14.530   3.710  1.00  0.00     0.690 A
ATOM     19  H1  UNL     1     -43.568  14.509   5.137  1.00  0.00     0.184 HD
HETATM   20  N3  UNL     1     -41.575  13.902   2.645  1.00  0.00    -0.132 N
HETATM   21  N4  UNL     1     -42.141  12.777   2.252  1.00  0.00    -0.289 N
ATOM     22  H3  UNL     1     -40.762  14.282   2.161  1.00  0.00     0.205 HD
ATOM     23  H4  UNL     1     -41.740  12.297   1.446  1.00  0.00     0.187 HD
BRANCH  18  24
HETATM   24  N2  UNL     1     -41.575  15.647   4.125  1.00  0.00    -0.233 N
ATOM     25  H22 UNL     1     -41.761  15.962   5.077  1.00  0.00     0.174 HD
ATOM     26  H21 UNL     1     -40.979  16.198   3.507  1.00  0.00     0.174 HD
ENDBRANCH  18  24
ENDBRANCH  13  14
ENDBRANCH  12  13
ENDBRANCH  10  12
ENDBRANCH   1  10
BRANCH   7  27
HETATM   27  N8  UNL     1     -38.459   9.555   4.600  1.00  0.00    -0.217 N
HETATM   28  C10 UNL     1     -37.241   9.451   5.353  1.00  0.00     0.141 C
HETATM   29  C11 UNL     1     -36.409  10.678   5.084  1.00  0.00     0.021 C
HETATM   30  C12 UNL     1     -36.013  10.801   3.635  1.00  0.00     0.009 C
HETATM   31  C13 UNL     1     -36.945  10.061   2.712  1.00  0.00     0.029 C
HETATM   32  C15 UNL     1     -38.355  10.004   3.230  1.00  0.00     0.147 C
BRANCH  31  33
HETATM   33  C14 UNL     1     -36.954  10.801   1.390  1.00  0.00     0.235 C
BRANCH  33  34
HETATM   34  N9  UNL     1     -38.085  11.690   1.276  1.00  0.00    -0.079 N
ATOM     35  H93 UNL     1     -37.941  12.379   0.538  1.00  0.00     0.274 HD
ATOM     36  H92 UNL     1     -38.897  11.208   0.891  1.00  0.00     0.274 HD
ATOM     37  H91 UNL     1     -38.308  12.139   2.164  1.00  0.00     0.274 HD
ENDBRANCH  33  34
ENDBRANCH  31  33
ENDBRANCH   7  27
TORSDOF 8
ENDMDL