MODEL 5
REMARK VINA RESULT: -6.203895604      1.944      4.401
REMARK  6 active torsions:
REMARK  status: ('A' for Active; 'I' for Inactive)
REMARK    1  A    between atoms: N1_1  and  C1_4
REMARK    2  A    between atoms: C2_7  and  N3_8
REMARK    3  A    between atoms: N8_21  and  C9_22
REMARK    4  A    between atoms: C9_22  and  C10_23
REMARK    5  A    between atoms: C10_23  and  C11_24
REMARK    6  A    between atoms: C11_24  and  N9_25
ROOT
HETATM    1  C1  UNL     1     -38.315   9.191   5.338  1.00  0.00     0.130 A
HETATM    2  N2  UNL     1     -39.478   8.602   4.941  1.00  0.00    -0.176 N
ATOM      3  H2  UNL     1     -40.044   8.117   5.637  1.00  0.00     0.186 HD
HETATM    4  C2  UNL     1     -39.910   8.635   3.663  1.00  0.00     0.684 A
HETATM    5  N6  UNL     1     -39.163   9.275   2.743  1.00  0.00    -0.174 N
ATOM      6  H6  UNL     1     -39.475   9.311   1.772  1.00  0.00     0.186 HD
HETATM    7  C6  UNL     1     -37.993   9.877   3.101  1.00  0.00     0.153 A
HETATM    8  C7  UNL     1     -37.547   9.846   4.406  1.00  0.00     0.071 A
HETATM    9  C8  UNL     1     -36.340  10.537   4.452  1.00  0.00     0.126 A
HETATM   10  N7  UNL     1     -36.097  10.958   3.201  1.00  0.00    -0.307 N
ATOM     11  H7  UNL     1     -35.280  11.498   2.914  1.00  0.00     0.186 HD
HETATM   12  N8  UNL     1     -37.083  10.566   2.384  1.00  0.00    -0.276 N
ENDROOT
BRANCH  12  13
HETATM   13  C9  UNL     1     -37.186  10.826   0.955  1.00  0.00     0.152 C
BRANCH  13  14
HETATM   14  C10 UNL     1     -38.209  11.909   0.715  1.00  0.00     0.052 C
BRANCH  14  15
HETATM   15  C11 UNL     1     -39.216  11.549  -0.326  1.00  0.00     0.274 C
BRANCH  15  16
HETATM   16  N9  UNL     1     -40.559  11.395   0.197  1.00  0.00     0.092 N
HETATM   17  C12 UNL     1     -41.536  11.994  -0.695  1.00  0.00     0.298 C
HETATM   18  C13 UNL     1     -42.880  12.102  -0.039  1.00  0.00     0.198 C
HETATM   19  O1  UNL     1     -42.809  12.982   1.018  1.00  0.00    -0.388 OA
HETATM   20  C14 UNL     1     -41.537  13.269   1.446  1.00  0.00     0.198 C
HETATM   21  C15 UNL     1     -40.627  12.074   1.469  1.00  0.00     0.298 C
ENDBRANCH  15  16
ENDBRANCH  14  15
ENDBRANCH  13  14
ENDBRANCH  12  13
BRANCH   4  22
HETATM   22  N3  UNL     1     -41.132   7.994   3.331  1.00  0.00    -0.202 N
HETATM   23  C3  UNL     1     -42.036   8.687   2.419  1.00  0.00     0.160 C
HETATM   24  C4  UNL     1     -42.489   7.600   1.431  1.00  0.00     0.151 C
HETATM   25  N4  UNL     1     -43.109   6.561   2.201  1.00  0.00    -0.145 NA
HETATM   26  N5  UNL     1     -42.200   5.878   2.979  1.00  0.00    -0.128 NA
HETATM   27  C5  UNL     1     -41.435   6.713   3.884  1.00  0.00     0.272 C
ENDBRANCH   4  22
BRANCH   1  28
HETATM   28  N1  UNL     1     -37.916   9.152   6.550  1.00  0.00    -0.384 N
ATOM     29  H12 UNL     1     -37.628   8.258   6.947  1.00  0.00     0.157 HD
ATOM     30  H11 UNL     1     -37.876   9.988   7.133  1.00  0.00     0.157 HD
ENDBRANCH   1  28
TORSDOF 6
ENDMDL