MODEL 1
REMARK VINA RESULT: -5.978525468      0.000      0.000
REMARK  9 active torsions:
REMARK  status: ('A' for Active; 'I' for Inactive)
REMARK    1  A    between atoms: C2_2  and  N1_4
REMARK    2  A    between atoms: N1_4  and  C4_6
REMARK    3  A    between atoms: C5_9  and  S1_10
REMARK    4  A    between atoms: S1_10  and  C6_11
REMARK    5  A    between atoms: C10_20  and  N6_21
REMARK    6  A    between atoms: N6_21  and  C11_23
REMARK    7  A    between atoms: C11_23  and  C12_29
REMARK    8  A    between atoms: N7_24  and  N8_26
REMARK    9  A    between atoms: C12_29  and  N9_31
ROOT
HETATM    1  C4  UNL     1     -41.195  11.777   3.294  1.00  0.00     0.695 A
HETATM    2  N2  UNL     1     -41.003  11.983   1.979  1.00  0.00    -0.169 N
ATOM      3  H2  UNL     1     -41.487  12.760   1.530  1.00  0.00     0.186 HD
HETATM    4  C5  UNL     1     -40.192  11.199   1.225  1.00  0.00     0.180 A
HETATM    5  N5  UNL     1     -39.538  10.159   1.803  1.00  0.00    -0.169 N
ATOM      6  H5  UNL     1     -38.923   9.557   1.255  1.00  0.00     0.186 HD
HETATM    7  C10 UNL     1     -39.721   9.943   3.115  1.00  0.00     0.700 A
HETATM    8  N10 UNL     1     -40.531  10.735   3.838  1.00  0.00    -0.022 N
ATOM      9  H10 UNL     1     -40.648  10.541   4.833  1.00  0.00     0.203 HD
ENDROOT
BRANCH   7  10
HETATM   10  N6  UNL     1     -39.100   8.957   3.659  1.00  0.00    -0.176 N
ATOM     11  H6  UNL     1     -39.082   8.053   3.187  1.00  0.00     0.185 HD
BRANCH  10  12
HETATM   12  C11 UNL     1     -38.427   9.111   4.929  1.00  0.00     0.141 C
HETATM   13  N7  UNL     1     -39.089   8.973   5.981  1.00  0.00    -0.293 N
ATOM     14  H7  UNL     1     -40.071   8.758   5.806  1.00  0.00     0.187 HD
BRANCH  13  15
HETATM   15  N8  UNL     1     -38.793   9.045   7.302  1.00  0.00    -0.344 N
ATOM     16  H82 UNL     1     -38.777   8.121   7.733  1.00  0.00     0.176 HD
ATOM     17  H81 UNL     1     -38.587   9.810   7.946  1.00  0.00     0.176 HD
ENDBRANCH  13  15
BRANCH  12  18
HETATM   18  C12 UNL     1     -37.005   9.420   4.865  1.00  0.00     0.248 C
HETATM   19  C13 UNL     1     -36.605  10.839   5.064  1.00  0.00     0.048 C
BRANCH  18  20
HETATM   20  N9  UNL     1     -36.407   8.910   3.621  1.00  0.00    -0.069 N
ATOM     21  H93 UNL     1     -36.215   7.909   3.679  1.00  0.00     0.275 HD
ATOM     22  H92 UNL     1     -37.083   8.895   2.857  1.00  0.00     0.275 HD
ATOM     23  H91 UNL     1     -35.571   9.438   3.372  1.00  0.00     0.275 HD
ENDBRANCH  18  20
ENDBRANCH  12  18
ENDBRANCH  10  12
ENDBRANCH   7  10
BRANCH   4  24
HETATM   24  S1  UNL     1     -39.957  11.496  -0.512  1.00  0.00    -0.034 SA
BRANCH  24  25
HETATM   25  C6  UNL     1     -38.974  10.170  -1.228  1.00  0.00     0.095 A
HETATM   26  C7  UNL     1     -39.456   9.141  -2.017  1.00  0.00     0.126 A
HETATM   27  N3  UNL     1     -38.389   8.392  -2.325  1.00  0.00    -0.359 N
HETATM   28  C8  UNL     1     -37.277   8.889  -1.780  1.00  0.00     0.183 A
ATOM     29  H3  UNL     1     -38.422   7.551  -2.902  1.00  0.00     0.166 HD
HETATM   30  N4  UNL     1     -37.657   9.995  -1.100  1.00  0.00    -0.341 N
HETATM   31  C9  UNL     1     -36.802  10.882  -0.338  1.00  0.00     0.158 C
ENDBRANCH  24  25
ENDBRANCH   4  24
BRANCH   1  32
HETATM   32  N1  UNL     1     -41.974  12.542   3.976  1.00  0.00    -0.222 N
ATOM     33  H1  UNL     1     -42.336  12.177   4.858  1.00  0.00     0.178 HD
BRANCH  32  34
HETATM   34  C2  UNL     1     -42.371  13.856   3.601  1.00  0.00     0.091 C
HETATM   35  C1  UNL     1     -41.873  14.850   4.618  1.00  0.00     0.032 C
HETATM   36  C3  UNL     1     -43.862  14.000   3.407  1.00  0.00     0.032 C
ENDBRANCH  32  34
ENDBRANCH   1  32
TORSDOF 9
ENDMDL