MODEL 4
REMARK VINA RESULT: -5.581781031      3.257      6.945
REMARK  6 active torsions:
REMARK  status: ('A' for Active; 'I' for Inactive)
REMARK    1  A    between atoms: S1_2  and  C2_3
REMARK    2  A    between atoms: C3_6  and  N2_7
REMARK    3  A    between atoms: C5_13  and  N4_14
REMARK    4  A    between atoms: N6_22  and  C10_23
REMARK    5  A    between atoms: C10_23  and  C11_24
REMARK    6  A    between atoms: C11_24  and  C12_25
ROOT
HETATM    1  C2  UNL     1     -37.386  10.452   3.088  1.00  0.00     0.147 A
HETATM    2  N1  UNL     1     -36.547  10.805   2.076  1.00  0.00    -0.321 N
ATOM      3  H1  UNL     1     -35.557  10.963   2.263  1.00  0.00     0.169 HD
HETATM    4  C3  UNL     1     -37.028  10.944   0.830  1.00  0.00     0.132 A
HETATM    5  C4  UNL     1     -38.372  10.720   0.626  1.00  0.00     0.137 A
HETATM    6  N3  UNL     1     -39.099  10.785  -0.479  1.00  0.00    -0.184 N
ATOM      7  H3  UNL     1     -38.740  11.028  -1.402  1.00  0.00     0.184 HD
HETATM    8  C5  UNL     1     -40.412  10.475  -0.197  1.00  0.00     0.684 A
HETATM    9  N6  UNL     1     -40.439  10.225   1.110  1.00  0.00    -0.165 N
HETATM   10  C13 UNL     1     -39.193  10.365   1.663  1.00  0.00     0.157 A
HETATM   11  N8  UNL     1     -38.694  10.231   2.902  1.00  0.00    -0.320 N
ATOM     12  H8  UNL     1     -39.295   9.966   3.682  1.00  0.00     0.169 HD
ENDROOT
BRANCH   8  13
HETATM   13  N4  UNL     1     -41.371  10.482  -1.224  1.00  0.00    -0.214 N
HETATM   14  C6  UNL     1     -41.517   9.575  -2.327  1.00  0.00     0.168 C
HETATM   15  C7  UNL     1     -42.594  10.094  -3.307  1.00  0.00     0.252 C
HETATM   16  N5  UNL     1     -42.390  11.463  -3.654  1.00  0.00    -0.072 N
HETATM   17  C8  UNL     1     -42.291  12.340  -2.511  1.00  0.00     0.252 C
ATOM     18  H52 UNL     1     -41.575  11.564  -4.258  1.00  0.00     0.277 HD
ATOM     19  H51 UNL     1     -43.117  11.785  -4.293  1.00  0.00     0.277 HD
HETATM   20  C9  UNL     1     -42.418  11.528  -1.264  1.00  0.00     0.168 C
ENDBRANCH   8  13
BRANCH   9  21
HETATM   21  C10 UNL     1     -41.566   9.853   1.883  1.00  0.00     0.158 C
BRANCH  21  22
HETATM   22  C11 UNL     1     -42.435  11.021   2.308  1.00  0.00     0.120 C
BRANCH  22  23
HETATM   23  C12 UNL     1     -42.017  11.547   3.631  1.00  0.00     0.232 C
HETATM   24  N7  UNL     1     -42.323  12.854   4.081  1.00  0.00    -0.062 NA
HETATM   25  O1  UNL     1     -41.360  10.803   4.399  1.00  0.00    -0.277 OA
ENDBRANCH  22  23
ENDBRANCH  21  22
ENDBRANCH   9  21
BRANCH   4  26
HETATM   26  N2  UNL     1     -36.232  11.278  -0.124  1.00  0.00    -0.383 N
ATOM     27  H22 UNL     1     -35.862  12.225  -0.222  1.00  0.00     0.157 HD
ATOM     28  H21 UNL     1     -35.954  10.581  -0.815  1.00  0.00     0.157 HD
ENDBRANCH   4  26
BRANCH   1  29
HETATM   29  S1  UNL     1     -36.708  10.277   4.723  1.00  0.00    -0.098 SA
HETATM   30  C1  UNL     1     -37.854   9.398   5.812  1.00  0.00     0.099 C
ENDBRANCH   1  29
TORSDOF 6
ENDMDL