MODEL 3
REMARK VINA RESULT: -6.300333979      1.106      2.083
REMARK  8 active torsions:
REMARK  status: ('A' for Active; 'I' for Inactive)
REMARK    1  A    between atoms: C4_5  and  C5_6
REMARK    2  A    between atoms: C5_6  and  C6_7
REMARK    3  A    between atoms: C5_6  and  N2_10
REMARK    4  A    between atoms: C6_7  and  O1_8
REMARK    5  A    between atoms: N2_10  and  C7_12
REMARK    6  A    between atoms: C9_14  and  N3_15
REMARK    7  A    between atoms: C12_20  and  N5_21
REMARK    8  A    between atoms: C15_28  and  N8_29
ROOT
HETATM    1  N1  UNL     1     -42.060  10.791  -0.326  1.00  0.00    -0.190 NA
HETATM    2  C1  UNL     1     -41.016  10.719   0.192  1.00  0.00     0.118 C
HETATM    3  C2  UNL     1     -39.723  10.642   0.810  1.00  0.00     0.131 A
HETATM    4  C3  UNL     1     -39.590  10.263   2.130  1.00  0.00     0.069 A
HETATM    5  C4  UNL     1     -38.332  10.188   2.732  1.00  0.00     0.054 A
HETATM    6  N7  UNL     1     -37.284  10.506   1.952  1.00  0.00    -0.194 N
ATOM      7  H7  UNL     1     -36.352  10.461   2.365  1.00  0.00     0.184 HD
HETATM    8  C15 UNL     1     -37.383  10.879   0.670  1.00  0.00     0.677 A
HETATM    9  N9  UNL     1     -38.619  10.943   0.104  1.00  0.00    -0.182 N
ATOM     10  H9  UNL     1     -38.709  11.224  -0.873  1.00  0.00     0.185 HD
ENDROOT
BRANCH   5  11
HETATM   11  C5  UNL     1     -38.199   9.778   4.154  1.00  0.00     0.157 C
BRANCH  11  12
HETATM   12  C6  UNL     1     -36.765  10.021   4.555  1.00  0.00     0.195 C
BRANCH  12  13
HETATM   13  O1  UNL     1     -35.950   8.926   4.333  1.00  0.00    -0.398 OA
ATOM     14  H1  UNL     1     -35.026   9.127   4.423  1.00  0.00     0.209 HD
ENDBRANCH  12  13
ENDBRANCH  11  12
BRANCH  11  15
HETATM   15  N2  UNL     1     -39.143  10.425   5.005  1.00  0.00    -0.364 N
ATOM     16  H2  UNL     1     -39.339  11.422   4.916  1.00  0.00     0.162 HD
BRANCH  15  17
HETATM   17  C7  UNL     1     -39.751   9.694   5.906  1.00  0.00     0.121 A
HETATM   18  C8  UNL     1     -40.853   8.939   5.565  1.00  0.00     0.097 A
HETATM   19  C9  UNL     1     -41.478   8.177   6.526  1.00  0.00     0.122 A
HETATM   20  N4  UNL     1     -40.978   8.200   7.784  1.00  0.00    -0.177 N
HETATM   21  C12 UNL     1     -39.907   8.926   8.137  1.00  0.00     0.683 A
ATOM     22  H4  UNL     1     -41.438   7.636   8.498  1.00  0.00     0.186 HD
HETATM   23  N6  UNL     1     -39.323   9.657   7.178  1.00  0.00    -0.177 N
ATOM     24  H6  UNL     1     -38.508  10.216   7.428  1.00  0.00     0.185 HD
BRANCH  19  25
HETATM   25  N3  UNL     1     -42.620   7.381   6.224  1.00  0.00    -0.364 N
HETATM   26  C10 UNL     1     -44.005   7.119   5.945  1.00  0.00     0.144 A
HETATM   27  C11 UNL     1     -43.104   6.017   5.968  1.00  0.00     0.144 A
ENDBRANCH  19  25
BRANCH  21  28
HETATM   28  N5  UNL     1     -39.401   8.932   9.466  1.00  0.00    -0.214 N
HETATM   29  C13 UNL     1     -38.948   8.047  10.567  1.00  0.00     0.161 A
HETATM   30  C14 UNL     1     -38.951   9.493  10.708  1.00  0.00     0.161 A
ENDBRANCH  21  28
ENDBRANCH  15  17
ENDBRANCH  11  15
ENDBRANCH   5  11
BRANCH   8  31
HETATM   31  N8  UNL     1     -36.325  11.176  -0.037  1.00  0.00    -0.234 N
ATOM     32  H82 UNL     1     -35.395  11.051   0.362  1.00  0.00     0.174 HD
ATOM     33  H81 UNL     1     -36.405  11.535  -0.989  1.00  0.00     0.174 HD
ENDBRANCH   8  31
TORSDOF 8
ENDMDL