MODEL 1
REMARK VINA RESULT: -5.911850854      0.000      0.000
REMARK  8 active torsions:
REMARK  status: ('A' for Active; 'I' for Inactive)
REMARK    1  A    between atoms: C2_2  and  N1_4
REMARK    2  A    between atoms: C5_9  and  N3_10
REMARK    3  A    between atoms: C11_24  and  N8_25
REMARK    4  A    between atoms: N8_25  and  C12_27
REMARK    5  A    between atoms: C12_27  and  C13_28
REMARK    6  A    between atoms: C13_28  and  C14_29
REMARK    7  A    between atoms: C14_29  and  N9_30
REMARK    8  A    between atoms: N10_34  and  N11_35
ROOT
HETATM    1  N3  UNL     1     -43.034  11.526   2.153  1.00  0.00    -0.175 N
ATOM      2  H3  UNL     1     -43.902  11.075   1.867  1.00  0.00     0.186 HD
HETATM    3  C6  UNL     1     -43.063  12.731   2.638  1.00  0.00     0.124 A
HETATM    4  C7  UNL     1     -44.245  13.425   2.781  1.00  0.00     0.090 A
HETATM    5  C8  UNL     1     -44.284  14.715   3.300  1.00  0.00     0.118 A
HETATM    6  C9  UNL     1     -45.539  15.426   3.441  1.00  0.00     0.117 C
HETATM    7  N4  UNL     1     -46.556  15.978   3.555  1.00  0.00    -0.190 NA
HETATM    8  N5  UNL     1     -43.114  15.272   3.663  1.00  0.00    -0.344 N
ATOM      9  H5  UNL     1     -43.104  16.217   4.047  1.00  0.00     0.167 HD
HETATM   10  C10 UNL     1     -41.948  14.592   3.524  1.00  0.00     0.183 A
HETATM   11  N6  UNL     1     -41.927  13.341   3.019  1.00  0.00    -0.338 N
ATOM     12  H6  UNL     1     -41.037  12.852   2.924  1.00  0.00     0.168 HD
ENDROOT
BRANCH   1  13
HETATM   13  C5  UNL     1     -41.804  10.837   2.017  1.00  0.00     0.713 A
HETATM   14  N2  UNL     1     -41.090  10.776   0.895  1.00  0.00    -0.019 N
HETATM   15  C4  UNL     1     -39.900  10.099   0.796  1.00  0.00     0.729 A
ATOM     16  H2  UNL     1     -41.445  11.256   0.068  1.00  0.00     0.203 HD
HETATM   17  N1  UNL     1     -39.338  10.123  -0.307  1.00  0.00    -0.219 N
HETATM   18  N10 UNL     1     -39.469   9.485   1.896  1.00  0.00     0.084 N
ATOM     19  H1  UNL     1     -39.877  10.664  -0.983  1.00  0.00     0.178 HD
HETATM   20  C11 UNL     1     -40.159   9.522   3.051  1.00  0.00     0.728 A
HETATM   21  N7  UNL     1     -41.316  10.195   3.100  1.00  0.00    -0.019 N
ATOM     22  H7  UNL     1     -41.840  10.224   3.975  1.00  0.00     0.203 HD
BRANCH  17  23
HETATM   23  C2  UNL     1     -38.169   9.614  -0.882  1.00  0.00     0.091 C
HETATM   24  C1  UNL     1     -38.456   9.284  -2.348  1.00  0.00     0.032 C
HETATM   25  C3  UNL     1     -37.006  10.599  -0.872  1.00  0.00     0.032 C
ENDBRANCH  17  23
BRANCH  18  26
HETATM   26  N11 UNL     1     -38.279   8.768   1.918  1.00  0.00    -0.309 N
ATOM     27 2H11 UNL     1     -37.423   9.319   1.971  1.00  0.00     0.178 HD
ATOM     28 1H11 UNL     1     -38.264   7.749   1.884  1.00  0.00     0.178 HD
ENDBRANCH  18  26
BRANCH  20  29
HETATM   29  N8  UNL     1     -39.723   8.923   4.091  1.00  0.00    -0.223 N
ATOM     30  H8  UNL     1     -39.516   7.924   4.065  1.00  0.00     0.177 HD
BRANCH  29  31
HETATM   31  C12 UNL     1     -39.526   9.679   5.305  1.00  0.00     0.140 C
BRANCH  31  32
HETATM   32  C13 UNL     1     -38.217   9.310   5.975  1.00  0.00     0.047 C
BRANCH  32  33
HETATM   33  C14 UNL     1     -37.109   9.905   5.126  1.00  0.00     0.231 C
BRANCH  33  34
HETATM   34  N9  UNL     1     -36.246   8.865   4.588  1.00  0.00    -0.079 N
ATOM     35  H93 UNL     1     -36.621   7.934   4.770  1.00  0.00     0.274 HD
ATOM     36  H92 UNL     1     -36.271   8.846   3.568  1.00  0.00     0.274 HD
ATOM     37  H91 UNL     1     -35.293   8.961   4.939  1.00  0.00     0.274 HD
ENDBRANCH  33  34
ENDBRANCH  32  33
ENDBRANCH  31  32
ENDBRANCH  29  31
ENDBRANCH  20  29
ENDBRANCH   1  13
TORSDOF 8
ENDMDL