MODEL 5
REMARK VINA RESULT: -5.804017545      2.057      6.818
REMARK  7 active torsions:
REMARK  status: ('A' for Active; 'I' for Inactive)
REMARK    1  A    between atoms: C2_2  and  N1_4
REMARK    2  A    between atoms: C4_7  and  N3_8
REMARK    3  A    between atoms: N5_14  and  C6_16
REMARK    4  A    between atoms: C8_18  and  N6_19
REMARK    5  A    between atoms: N6_19  and  C9_21
REMARK    6  A    between atoms: C9_21  and  C10_22
REMARK    7  A    between atoms: C10_22  and  N7_23
ROOT
HETATM    1  C6  UNL     1     -39.824   9.023   5.458  1.00  0.00     0.140 A
HETATM    2  C7  UNL     1     -40.270   9.700   4.341  1.00  0.00     0.100 A
HETATM    3  C8  UNL     1     -39.450  10.139   3.329  1.00  0.00     0.145 A
HETATM    4  N8  UNL     1     -38.126   9.896   3.426  1.00  0.00    -0.069 N
HETATM    5  N9  UNL     1     -37.096  10.183   2.634  1.00  0.00    -0.273 N
ATOM      6  H9  UNL     1     -37.140  10.679   1.744  1.00  0.00     0.189 HD
HETATM    7  C13 UNL     1     -35.997   9.705   3.217  1.00  0.00     0.215 A
HETATM    8  N10 UNL     1     -36.310   9.114   4.377  1.00  0.00    -0.184 N
ATOM      9  H10 UNL     1     -35.671   8.662   5.031  1.00  0.00     0.185 HD
HETATM   10  C14 UNL     1     -37.676   9.241   4.502  1.00  0.00     0.707 A
HETATM   11  N11 UNL     1     -38.482   8.813   5.491  1.00  0.00    -0.174 N
ATOM     12  H11 UNL     1     -38.075   8.318   6.285  1.00  0.00     0.186 HD
ENDROOT
BRANCH   1  13
HETATM   13  N5  UNL     1     -40.673   8.564   6.485  1.00  0.00    -0.174 N
HETATM   14  C5  UNL     1     -40.522   8.723   7.741  1.00  0.00     0.716 A
HETATM   15  N1  UNL     1     -41.375   8.258   8.685  1.00  0.00    -0.105 N
HETATM   16  N4  UNL     1     -39.547   9.351   8.419  1.00  0.00    -0.020 N
HETATM   17  N2  UNL     1     -40.927   8.593   9.879  1.00  0.00    -0.115 N
HETATM   18  C4  UNL     1     -39.779   9.283   9.757  1.00  0.00     0.705 A
ATOM     19  H2  UNL     1     -41.383   8.365  10.762  1.00  0.00     0.206 HD
ATOM     20  H4  UNL     1     -38.746   9.813   7.990  1.00  0.00     0.203 HD
ATOM     21  H5  UNL     1     -41.501   8.047   6.191  1.00  0.00     0.186 HD
BRANCH  15  22
HETATM   22  C2  UNL     1     -42.593   7.506   8.397  1.00  0.00     0.119 C
HETATM   23  C1  UNL     1     -42.366   6.068   8.812  1.00  0.00     0.034 C
HETATM   24  C3  UNL     1     -43.770   8.104   9.149  1.00  0.00     0.034 C
ENDBRANCH  15  22
BRANCH  18  25
HETATM   25  N3  UNL     1     -39.045   9.780  10.708  1.00  0.00    -0.233 N
ATOM     26  H32 UNL     1     -39.069   9.536  11.699  1.00  0.00     0.174 HD
ATOM     27  H31 UNL     1     -38.322  10.495  10.629  1.00  0.00     0.174 HD
ENDBRANCH  18  25
ENDBRANCH   1  13
BRANCH   3  28
HETATM   28  N6  UNL     1     -39.964  10.745   2.364  1.00  0.00    -0.372 N
ATOM     29  H6  UNL     1     -39.343  10.820   1.558  1.00  0.00     0.161 HD
BRANCH  28  30
HETATM   30  C9  UNL     1     -41.224  11.347   2.155  1.00  0.00     0.151 C
BRANCH  30  31
HETATM   31  C10 UNL     1     -41.178  12.660   1.402  1.00  0.00     0.290 C
BRANCH  31  32
HETATM   32  N7  UNL     1     -41.972  12.630   0.227  1.00  0.00     0.081 N
HETATM   33  C11 UNL     1     -43.356  12.273   0.455  1.00  0.00     0.309 C
HETATM   34  C12 UNL     1     -41.487  11.852  -0.863  1.00  0.00     0.309 C
ENDBRANCH  31  32
ENDBRANCH  30  31
ENDBRANCH  28  30
ENDBRANCH   3  28
TORSDOF 7
ENDMDL