MODEL 1
REMARK VINA RESULT: -5.190201099      0.000      0.000
REMARK  2 active torsions:
REMARK  status: ('A' for Active; 'I' for Inactive)
REMARK    1  A    between atoms: C2_2  and  C3_3
REMARK    2  A    between atoms: C6_6  and  N1_7
ROOT
HETATM    1  C3  UNL     1      12.414  -5.692 -34.708  1.00  0.00     0.143 C
HETATM    2  C4  UNL     1      13.391  -6.796 -34.823  1.00  0.00     0.038 C
HETATM    3  C5  UNL     1      14.409  -6.912 -33.761  1.00  0.00     0.037 C
HETATM    4  C6  UNL     1      14.275  -5.977 -32.614  1.00  0.00     0.207 C
HETATM    5  C7  UNL     1      13.558  -4.740 -33.037  1.00  0.00     0.201 C
HETATM    6  O1  UNL     1      12.272  -5.156 -33.444  1.00  0.00    -0.380 OA
ENDROOT
BRANCH   4   7
HETATM    7  N1  UNL     1      15.573  -5.730 -32.040  1.00  0.00    -0.073 N
ATOM      8  H13 UNL     1      15.533  -5.628 -31.026  1.00  0.00     0.274 HD
ATOM      9  H12 UNL     1      16.176  -6.552 -32.081  1.00  0.00     0.274 HD
ATOM     10  H11 UNL     1      15.997  -4.919 -32.493  1.00  0.00     0.274 HD
ENDBRANCH   4   7
BRANCH   1  11
HETATM   11  C2  UNL     1      11.105  -6.151 -35.235  1.00  0.00    -0.005 C
HETATM   12  C1  UNL     1      10.018  -5.488 -34.896  1.00  0.00     0.009 C
ENDBRANCH   1  11
TORSDOF 2
ENDMDL