MODEL 4
REMARK VINA RESULT: -4.886271839      2.110      3.304
REMARK  2 active torsions:
REMARK  status: ('A' for Active; 'I' for Inactive)
REMARK    1  A    between atoms: C2_2  and  N2_5
REMARK    2  A    between atoms: N2_5  and  C4_7
ROOT
HETATM    1  C1  UNL     1      10.658  -5.106 -34.453  1.00  0.00     0.048 C
HETATM    2  C2  UNL     1      12.131  -5.006 -34.159  1.00  0.00     0.183 C
HETATM    3  C3  UNL     1      12.240  -4.031 -33.035  1.00  0.00     0.084 C
HETATM    4  N1  UNL     1      12.345  -3.280 -32.154  1.00  0.00    -0.195 NA
ENDROOT
BRANCH   2   5
HETATM    5  N2  UNL     1      12.780  -6.173 -33.742  1.00  0.00    -0.374 N
ATOM      6  H2  UNL     1      12.240  -6.914 -33.295  1.00  0.00     0.157 HD
BRANCH   5   7
HETATM    7  C4  UNL     1      14.162  -6.344 -33.928  1.00  0.00     0.149 A
HETATM    8  C5  UNL     1      14.657  -6.937 -35.214  1.00  0.00     0.073 C
HETATM    9  C6  UNL     1      14.938  -6.621 -32.635  1.00  0.00     0.231 A
HETATM   10  O1  UNL     1      15.072  -5.450 -33.357  1.00  0.00    -0.355 OA
ENDBRANCH   5   7
ENDBRANCH   2   5
TORSDOF 2
ENDMDL