MODEL 1
REMARK VINA RESULT: -4.891199554      0.000      0.000
REMARK  2 active torsions:
REMARK  status: ('A' for Active; 'I' for Inactive)
REMARK    1  A    between atoms: C2_2  and  C3_3
REMARK    2  A    between atoms: C5_6  and  N1_7
ROOT
HETATM    1  C3  UNL     1      12.023  -6.010 -34.294  1.00  0.00     0.283 C
HETATM    2  O1  UNL     1      12.314  -4.686 -33.921  1.00  0.00    -0.356 OA
HETATM    3  C4  UNL     1      13.196  -4.740 -32.857  1.00  0.00     0.206 C
HETATM    4  C5  UNL     1      14.488  -5.401 -33.354  1.00  0.00     0.231 C
HETATM    5  C6  UNL     1      14.080  -6.770 -33.854  1.00  0.00     0.206 C
HETATM    6  O2  UNL     1      13.153  -6.578 -34.880  1.00  0.00    -0.356 OA
ENDROOT
BRANCH   4   7
HETATM    7  N1  UNL     1      15.337  -5.545 -32.191  1.00  0.00    -0.071 N
ATOM      8  H13 UNL     1      15.601  -4.656 -31.767  1.00  0.00     0.274 HD
ATOM      9  H12 UNL     1      14.852  -5.930 -31.379  1.00  0.00     0.274 HD
ATOM     10  H11 UNL     1      16.134  -6.106 -32.492  1.00  0.00     0.274 HD
ENDBRANCH   4   7
BRANCH   1  11
HETATM   11  C2  UNL     1      10.818  -6.104 -35.121  1.00  0.00     0.023 C
HETATM   12  C1  UNL     1       9.820  -5.266 -34.975  1.00  0.00     0.012 C
ENDBRANCH   1  11
TORSDOF 2
ENDMDL