MODEL 3
REMARK VINA RESULT: -4.422065052      1.602      2.962
REMARK  1 active torsions:
REMARK  status: ('A' for Active; 'I' for Inactive)
REMARK    1  A    between atoms: O1_2  and  C2_3
ROOT
HETATM    1  C2  UNL     1      13.023  -5.261 -35.092  1.00  0.00     0.262 C
HETATM    2  C3  UNL     1      12.146  -4.676 -33.995  1.00  0.00     0.088 C
HETATM    3  C4  UNL     1      10.727  -5.138 -34.363  1.00  0.00     0.239 C
HETATM    4  N1  UNL     1      10.747  -6.588 -34.153  1.00  0.00    -0.054 N
ATOM      5  H11 UNL     1       9.820  -7.014 -34.179  1.00  0.00     0.279 HD
ATOM      6  H12 UNL     1      10.982  -6.856 -33.197  1.00  0.00     0.279 HD
HETATM    7  C5  UNL     1      11.663  -7.134 -35.149  1.00  0.00     0.402 C
HETATM    8  O2  UNL     1      12.339  -6.177 -35.851  1.00  0.00    -0.335 OA
ENDROOT
BRANCH   1   9
HETATM    9  O1  UNL     1      14.166  -5.850 -34.590  1.00  0.00    -0.366 OA
HETATM   10  C1  UNL     1      14.454  -5.456 -33.284  1.00  0.00     0.204 C
ENDBRANCH   1   9
TORSDOF 1
ENDMDL