MODEL 1
REMARK VINA RESULT: -4.395020158      0.000      0.000
REMARK  2 active torsions:
REMARK  status: ('A' for Active; 'I' for Inactive)
REMARK    1  A    between atoms: O1_2  and  C2_3
REMARK    2  A    between atoms: C5_7  and  N1_8
ROOT
HETATM    1  C2  UNL     1      12.873  -5.847 -32.782  1.00  0.00     0.162 C
HETATM    2  C3  UNL     1      11.926  -6.124 -33.858  1.00  0.00     0.045 C
HETATM    3  C4  UNL     1      12.561  -6.812 -35.006  1.00  0.00     0.079 C
HETATM    4  S1  UNL     1      14.361  -6.730 -34.690  1.00  0.00    -0.134 SA
HETATM    5  C5  UNL     1      14.236  -5.537 -33.311  1.00  0.00     0.273 C
ENDROOT
BRANCH   5   6
HETATM    6  N1  UNL     1      15.202  -5.808 -32.286  1.00  0.00    -0.064 N
ATOM      7  H13 UNL     1      14.786  -6.247 -31.464  1.00  0.00     0.275 HD
ATOM      8  H12 UNL     1      15.840  -6.561 -32.542  1.00  0.00     0.275 HD
ATOM      9  H11 UNL     1      15.692  -4.942 -32.059  1.00  0.00     0.275 HD
ENDBRANCH   5   6
BRANCH   1  10
HETATM   10  O1  UNL     1      12.460  -4.760 -32.011  1.00  0.00    -0.388 OA
HETATM   11  C1  UNL     1      12.460  -3.571 -32.730  1.00  0.00     0.202 C
ENDBRANCH   1  10
TORSDOF 2
ENDMDL