MODEL 1
REMARK VINA RESULT: -4.455151035      0.000      0.000
REMARK  1 active torsions:
REMARK  status: ('A' for Active; 'I' for Inactive)
REMARK    1  A    between atoms: O1_2  and  C2_3
ROOT
HETATM    1  C2  UNL     1      12.699  -5.418 -35.377  1.00  0.00     0.365 C
HETATM    2  N1  UNL     1      12.733  -5.192 -33.974  1.00  0.00    -0.375 N
ATOM      3  H1  UNL     1      13.269  -4.431 -33.557  1.00  0.00     0.158 HD
HETATM    4  C3  UNL     1      11.964  -6.107 -33.186  1.00  0.00     0.120 C
HETATM    5  C4  UNL     1      10.650  -6.493 -33.805  1.00  0.00     0.046 C
HETATM    6  C5  UNL     1      10.600  -6.161 -35.289  1.00  0.00     0.174 C
HETATM    7  O2  UNL     1      11.884  -6.466 -35.775  1.00  0.00    -0.344 OA
ENDROOT
BRANCH   1   8
HETATM    8  O1  UNL     1      13.955  -5.585 -35.949  1.00  0.00    -0.349 OA
HETATM    9  C1  UNL     1      14.554  -6.779 -35.591  1.00  0.00     0.206 C
ENDBRANCH   1   8
TORSDOF 1
ENDMDL