MODEL 3
REMARK VINA RESULT: -4.894972338      2.492      3.278
REMARK  1 active torsions:
REMARK  status: ('A' for Active; 'I' for Inactive)
REMARK    1  A    between atoms: C2_2  and  C3_3
ROOT
HETATM    1  C3  UNL     1      13.246  -4.562 -32.674  1.00  0.00     0.309 C
HETATM    2  O1  UNL     1      14.456  -4.255 -33.238  1.00  0.00    -0.247 OA
HETATM    3  N1  UNL     1      15.313  -5.273 -32.972  1.00  0.00    -0.066 NA
HETATM    4  C4  UNL     1      14.459  -6.425 -32.916  1.00  0.00     0.241 C
HETATM    5  C5  UNL     1      14.341  -7.149 -34.232  1.00  0.00     0.060 C
HETATM    6  O2  UNL     1      13.184  -5.965 -32.583  1.00  0.00    -0.333 OA
ENDROOT
BRANCH   1   7
HETATM    7  C2  UNL     1      12.166  -4.161 -33.618  1.00  0.00     0.024 C
HETATM    8  C1  UNL     1      11.251  -5.034 -34.022  1.00  0.00     0.012 C
ENDBRANCH   1   7
TORSDOF 1
ENDMDL