MODEL 1
REMARK VINA RESULT: -5.294522704      0.000      0.000
REMARK  1 active torsions:
REMARK  status: ('A' for Active; 'I' for Inactive)
REMARK    1  A    between atoms: O1_3  and  C2_4
ROOT
HETATM    1  N1  UNL     1      15.621  -6.073 -31.853  1.00  0.00    -0.164 NA
HETATM    2  C1  UNL     1      15.052  -5.391 -32.595  1.00  0.00     0.230 C
HETATM    3  O1  UNL     1      14.399  -4.587 -33.481  1.00  0.00    -0.249 OA
ENDROOT
BRANCH   3   4
HETATM    4  C2  UNL     1      13.291  -5.077 -34.153  1.00  0.00     0.340 C
HETATM    5  C3  UNL     1      12.009  -4.516 -33.526  1.00  0.00     0.063 C
HETATM    6  C4  UNL     1      10.812  -5.183 -34.171  1.00  0.00     0.006 C
HETATM    7  C5  UNL     1      10.877  -6.688 -34.009  1.00  0.00     0.028 C
HETATM    8  C6  UNL     1      12.166  -7.135 -34.693  1.00  0.00     0.235 C
HETATM    9  N2  UNL     1      13.257  -6.525 -33.961  1.00  0.00    -0.048 N
ATOM     10  H22 UNL     1      14.152  -6.953 -34.201  1.00  0.00     0.280 HD
ATOM     11  H21 UNL     1      13.224  -6.770 -32.972  1.00  0.00     0.280 HD
ENDBRANCH   3   4
TORSDOF 1
ENDMDL