MODEL 3
REMARK VINA RESULT: -4.048976282      0.676      1.942
REMARK  2 active torsions:
REMARK  status: ('A' for Active; 'I' for Inactive)
REMARK    1  A    between atoms: N1_1  and  C1_5
REMARK    2  A    between atoms: C1_5  and  C2_6
ROOT
HETATM    1  C2  UNL     1      13.213  -5.450 -34.030  1.00  0.00     0.021 C
HETATM    2  C3  UNL     1      11.965  -5.130 -33.243  1.00  0.00     0.017 C
HETATM    3  C4  UNL     1      10.923  -5.042 -34.363  1.00  0.00     0.074 C
HETATM    4  S1  UNL     1      11.246  -6.677 -35.150  1.00  0.00    -0.169 SA
HETATM    5  C5  UNL     1      12.988  -6.863 -34.582  1.00  0.00     0.080 C
ENDROOT
BRANCH   1   6
HETATM    6  C1  UNL     1      14.464  -5.395 -33.187  1.00  0.00     0.234 C
BRANCH   6   7
HETATM    7  N1  UNL     1      14.316  -4.228 -32.313  1.00  0.00    -0.079 N
ATOM      8  H13 UNL     1      15.058  -3.538 -32.429  1.00  0.00     0.274 HD
ATOM      9  H12 UNL     1      13.539  -3.620 -32.575  1.00  0.00     0.274 HD
ATOM     10  H11 UNL     1      14.245  -4.591 -31.362  1.00  0.00     0.274 HD
ENDBRANCH   6   7
ENDBRANCH   1   6
TORSDOF 2
ENDMDL