MODEL 4
REMARK VINA RESULT: -5.124604320      2.397      3.155
REMARK  1 active torsions:
REMARK  status: ('A' for Active; 'I' for Inactive)
REMARK    1  A    between atoms: N1_4  and  N2_5
ROOT
HETATM    1  N2  UNL     1      11.676  -5.337 -33.373  1.00  0.00    -0.254 N
ATOM      2  H2  UNL     1      10.842  -5.799 -33.009  1.00  0.00     0.193 HD
HETATM    3  C4  UNL     1      12.323  -4.386 -32.574  1.00  0.00     0.193 C
HETATM    4  N3  UNL     1      12.862  -3.590 -31.908  1.00  0.00    -0.171 NA
ENDROOT
BRANCH   1   5
HETATM    5  N1  UNL     1      12.124  -5.674 -34.643  1.00  0.00    -0.196 NA
HETATM    6  C3  UNL     1      13.087  -6.765 -34.572  1.00  0.00     0.148 C
HETATM    7  C2  UNL     1      14.271  -6.205 -35.300  1.00  0.00     0.134 C
HETATM    8  C1  UNL     1      14.929  -7.341 -36.056  1.00  0.00     0.041 C
HETATM    9  O1  UNL     1      13.689  -5.283 -36.160  1.00  0.00    -0.369 OA
HETATM   10  C5  UNL     1      12.806  -4.608 -35.291  1.00  0.00     0.282 C
ENDBRANCH   1   5
TORSDOF 1
ENDMDL