MODEL 3
REMARK VINA RESULT: -4.558483066      1.345      1.852
REMARK  1 active torsions:
REMARK  status: ('A' for Active; 'I' for Inactive)
REMARK    1  A    between atoms: C2_2  and  C4_4
ROOT
HETATM    1  C4  UNL     1      36.307  -0.020   3.569  1.00  0.00     0.324 C
HETATM    2  N1  UNL     1      36.414   1.219   4.328  1.00  0.00    -0.046 N
ATOM      3  H11 UNL     1      37.367   1.491   4.568  1.00  0.00     0.280 HD
ATOM      4  H12 UNL     1      36.079   1.159   5.291  1.00  0.00     0.280 HD
HETATM    5  C5  UNL     1      35.701   2.171   3.497  1.00  0.00     0.261 C
HETATM    6  C6  UNL     1      35.061   1.297   2.414  1.00  0.00     0.198 C
HETATM    7  O1  UNL     1      34.994   0.068   3.109  1.00  0.00    -0.357 OA
ENDROOT
BRANCH   1   8
HETATM    8  C2  UNL     1      36.509  -1.229   4.453  1.00  0.00     0.034 C
HETATM    9  C1  UNL     1      36.434  -2.494   3.626  1.00  0.00     0.014 C
HETATM   10  C3  UNL     1      35.347  -1.266   5.429  1.00  0.00     0.014 C
ENDBRANCH   1   8
TORSDOF 1
ENDMDL