MODEL 3
REMARK VINA RESULT: -5.593470486      0.828      1.501
REMARK  2 active torsions:
REMARK  status: ('A' for Active; 'I' for Inactive)
REMARK    1  A    between atoms: C2_3  and  C3_4
REMARK    2  A    between atoms: C3_4  and  C4_5
ROOT
HETATM    1  N1  UNL     1      34.919   4.056   4.545  1.00  0.00    -0.197 NA
HETATM    2  C1  UNL     1      35.428   3.035   4.379  1.00  0.00     0.059 C
HETATM    3  C2  UNL     1      36.096   1.731   4.150  1.00  0.00     0.124 C
ENDROOT
BRANCH   3   4
HETATM    4  C3  UNL     1      35.001   0.718   3.892  1.00  0.00     0.020 C
BRANCH   4   5
HETATM    5  C4  UNL     1      35.385  -0.556   4.573  1.00  0.00     0.014 C
HETATM    6  C5  UNL     1      36.470  -0.282   5.573  1.00  0.00     0.034 C
HETATM    7  C6  UNL     1      37.459  -1.395   5.438  1.00  0.00     0.232 C
HETATM    8  N2  UNL     1      36.911  -2.334   4.506  1.00  0.00    -0.075 N
HETATM    9  C7  UNL     1      35.954  -1.610   3.664  1.00  0.00     0.237 C
ATOM     10  H22 UNL     1      37.626  -2.822   3.966  1.00  0.00     0.277 HD
ATOM     11  H21 UNL     1      36.504  -3.152   4.958  1.00  0.00     0.277 HD
ENDBRANCH   4   5
ENDBRANCH   3   4
TORSDOF 2
ENDMDL