MODEL 5
REMARK VINA RESULT: -5.186741683      1.530      2.211
REMARK  1 active torsions:
REMARK  status: ('A' for Active; 'I' for Inactive)
REMARK    1  A    between atoms: C2_3  and  N2_4
ROOT
HETATM    1  N1  UNL     1      40.083   2.312   5.620  1.00  0.00    -0.191 NA
HETATM    2  C1  UNL     1      38.956   2.210   5.444  1.00  0.00     0.105 C
HETATM    3  C2  UNL     1      37.539   2.102   5.227  1.00  0.00     0.188 C
ENDROOT
BRANCH   3   4
HETATM    4  N2  UNL     1      37.086   0.813   4.852  1.00  0.00    -0.341 N
HETATM    5  C3  UNL     1      36.621   0.639   3.546  1.00  0.00     0.069 C
HETATM    6  C4  UNL     1      35.611  -0.465   3.355  1.00  0.00     0.045 C
HETATM    7  C5  UNL     1      35.639  -1.461   4.496  1.00  0.00     0.010 C
HETATM    8  C6  UNL     1      37.071  -1.575   4.970  1.00  0.00     0.045 C
HETATM    9  C7  UNL     1      37.462  -0.281   5.621  1.00  0.00     0.069 C
ENDBRANCH   3   4
TORSDOF 1
ENDMDL