MODEL 5
REMARK VINA RESULT: -5.003938937      2.012      3.912
REMARK  3 active torsions:
REMARK  status: ('A' for Active; 'I' for Inactive)
REMARK    1  A    between atoms: C2_2  and  C3_3
REMARK    2  A    between atoms: C6_7  and  C7_8
REMARK    3  A    between atoms: C7_8  and  N2_9
ROOT
HETATM    1  C3  UNL     1      37.203  -0.371   5.630  1.00  0.00     0.133 C
HETATM    2  C4  UNL     1      36.363  -1.388   4.991  1.00  0.00     0.059 C
HETATM    3  N1  UNL     1      35.693  -2.211   4.496  1.00  0.00    -0.197 NA
ENDROOT
BRANCH   1   4
HETATM    4  C2  UNL     1      37.229   0.854   4.717  1.00  0.00    -0.026 A
HETATM    5  C1  UNL     1      37.593   0.532   3.295  1.00  0.00     0.016 C
HETATM    6  C5  UNL     1      37.883   2.101   5.254  1.00  0.00     0.017 A
HETATM    7  C6  UNL     1      36.407   2.004   5.090  1.00  0.00     0.021 A
BRANCH   7   8
HETATM    8  C7  UNL     1      35.691   2.835   4.046  1.00  0.00     0.235 C
BRANCH   8   9
HETATM    9  N2  UNL     1      34.927   3.896   4.672  1.00  0.00    -0.079 N
ATOM     10  H23 UNL     1      34.449   3.572   5.513  1.00  0.00     0.274 HD
ATOM     11  H22 UNL     1      35.533   4.596   5.100  1.00  0.00     0.274 HD
ATOM     12  H21 UNL     1      34.278   4.315   4.006  1.00  0.00     0.274 HD
ENDBRANCH   8   9
ENDBRANCH   7   8
ENDBRANCH   1   4
TORSDOF 3
ENDMDL