MODEL 5
REMARK VINA RESULT: -5.280170985      2.104      3.209
REMARK  2 active torsions:
REMARK  status: ('A' for Active; 'I' for Inactive)
REMARK    1  A    between atoms: C2_2  and  C5_6
REMARK    2  A    between atoms: C5_6  and  N2_7
ROOT
HETATM    1  C1  UNL     1      36.162  -1.265   3.457  1.00  0.00     0.033 C
HETATM    2  C2  UNL     1      36.242   0.250   3.454  1.00  0.00     0.075 C
HETATM    3  C3  UNL     1      37.310   0.624   2.447  1.00  0.00     0.033 C
HETATM    4  C4  UNL     1      34.952   0.754   2.962  1.00  0.00     0.071 C
HETATM    5  N1  UNL     1      33.925   1.139   2.573  1.00  0.00    -0.196 NA
ENDROOT
BRANCH   2   6
HETATM    6  C5  UNL     1      36.566   0.801   4.822  1.00  0.00     0.143 A
HETATM    7  C6  UNL     1      37.699   1.773   4.934  1.00  0.00     0.043 A
HETATM    8  C7  UNL     1      36.270   2.197   5.189  1.00  0.00     0.043 A
BRANCH   6   9
HETATM    9  N2  UNL     1      36.475  -0.193   5.877  1.00  0.00    -0.069 N
ATOM     10  H23 UNL     1      36.174  -1.092   5.502  1.00  0.00     0.275 HD
ATOM     11  H22 UNL     1      37.402  -0.452   6.212  1.00  0.00     0.275 HD
ATOM     12  H21 UNL     1      35.877   0.097   6.652  1.00  0.00     0.275 HD
ENDBRANCH   6   9
ENDBRANCH   2   6
TORSDOF 2
ENDMDL