MODEL 2
REMARK VINA RESULT: -5.384440963      2.126      3.111
REMARK  2 active torsions:
REMARK  status: ('A' for Active; 'I' for Inactive)
REMARK    1  A    between atoms: C3_3  and  N1_6
REMARK    2  A    between atoms: N1_6  and  C6_8
ROOT
HETATM    1  C1  UNL     1      34.598   0.609   2.452  1.00  0.00     0.015 C
HETATM    2  C2  UNL     1      35.298   0.042   3.260  1.00  0.00    -0.086 C
HETATM    3  C3  UNL     1      36.110  -0.657   4.234  1.00  0.00     0.086 C
HETATM    4  C4  UNL     1      35.194  -1.067   5.378  1.00  0.00     0.052 C
HETATM    5  C5  UNL     1      36.562  -2.021   3.637  1.00  0.00     0.052 C
ENDROOT
BRANCH   3   6
HETATM    6  N1  UNL     1      37.279  -0.023   4.635  1.00  0.00    -0.371 N
ATOM      7  H1  UNL     1      38.155  -0.544   4.586  1.00  0.00     0.161 HD
BRANCH   6   8
HETATM    8  C6  UNL     1      37.314   1.294   5.104  1.00  0.00     0.179 C
HETATM    9  C7  UNL     1      38.655   1.870   5.263  1.00  0.00     0.104 C
HETATM   10  N2  UNL     1      39.721   2.327   5.427  1.00  0.00    -0.191 NA
ENDBRANCH   6   8
ENDBRANCH   3   6
TORSDOF 2
ENDMDL