MODEL 4
REMARK VINA RESULT: -5.811014646      1.402      1.976
REMARK  2 active torsions:
REMARK  status: ('A' for Active; 'I' for Inactive)
REMARK    1  A    between atoms: C2_2  and  C4_5
REMARK    2  A    between atoms: C6_7  and  N2_8
ROOT
HETATM    1  C1  UNL     1      34.754   0.814   2.296  1.00  0.00     0.026 C
HETATM    2  C2  UNL     1      35.038   0.992   3.774  1.00  0.00     0.093 C
HETATM    3  C3  UNL     1      35.715   2.275   3.952  1.00  0.00     0.064 C
HETATM    4  N1  UNL     1      36.241   3.311   4.094  1.00  0.00    -0.197 NA
ENDROOT
BRANCH   2   5
HETATM    5  C4  UNL     1      35.928  -0.079   4.318  1.00  0.00     0.007 C
HETATM    6  C5  UNL     1      36.069  -1.321   3.476  1.00  0.00     0.038 C
HETATM    7  C6  UNL     1      36.012  -2.119   4.787  1.00  0.00     0.184 C
HETATM    8  C7  UNL     1      35.243  -0.952   5.357  1.00  0.00     0.038 C
BRANCH   7   9
HETATM    9  N2  UNL     1      35.323  -3.350   4.658  1.00  0.00    -0.075 N
ATOM     10  H23 UNL     1      34.365  -3.268   4.998  1.00  0.00     0.274 HD
ATOM     11  H22 UNL     1      35.135  -3.560   3.678  1.00  0.00     0.274 HD
ATOM     12  H21 UNL     1      35.805  -4.127   5.110  1.00  0.00     0.274 HD
ENDBRANCH   7   9
ENDBRANCH   2   5
TORSDOF 2
ENDMDL