MODEL 5
REMARK VINA RESULT: -4.639255723      1.367      1.612
REMARK  1 active torsions:
REMARK  status: ('A' for Active; 'I' for Inactive)
REMARK    1  A    between atoms: C5_6  and  C6_7
ROOT
HETATM    1  C1  UNL     1      37.371   0.670   2.396  1.00  0.00     0.310 C
HETATM    2  N1  UNL     1      37.085   0.290   3.744  1.00  0.00     0.093 N
HETATM    3  C2  UNL     1      36.551  -1.032   3.885  1.00  0.00     0.273 C
HETATM    4  C3  UNL     1      35.365  -0.902   4.851  1.00  0.00     0.033 C
HETATM    5  C4  UNL     1      34.879   0.498   4.448  1.00  0.00     0.043 C
HETATM    6  C5  UNL     1      36.243   1.202   4.458  1.00  0.00     0.260 C
ENDROOT
BRANCH   6   7
HETATM    7  C6  UNL     1      36.180   2.548   3.911  1.00  0.00     0.088 C
HETATM    8  N2  UNL     1      35.157   3.278   4.088  1.00  0.00    -0.409 N
ATOM      9  H22 UNL     1      34.377   2.901   4.626  1.00  0.00     0.155 HD
ATOM     10  H21 UNL     1      35.113   4.222   3.704  1.00  0.00     0.155 HD
ENDBRANCH   6   7
TORSDOF 1
ENDMDL