MODEL 1
REMARK VINA RESULT: -4.856230797      0.000      0.000
REMARK  0 active torsions:
REMARK  status: ('A' for Active; 'I' for Inactive)
ROOT
HETATM    1  C1  UNL     1      38.015   1.814   5.236  1.00  0.00     0.356 C
HETATM    2  N1  UNL     1      37.365   0.695   4.606  1.00  0.00     0.009 N
HETATM    3  O1  UNL     1      38.059   0.372   3.495  1.00  0.00    -0.065 OA
HETATM    4  C2  UNL     1      35.963   0.945   4.326  1.00  0.00     0.311 C
HETATM    5  C3  UNL     1      35.548  -0.115   3.299  1.00  0.00     0.036 C
HETATM    6  C4  UNL     1      36.139  -1.440   3.634  1.00  0.00     0.004 C
HETATM    7  C5  UNL     1      36.637  -1.583   5.024  1.00  0.00     0.036 C
HETATM    8  C6  UNL     1      37.377  -0.414   5.565  1.00  0.00     0.311 C
ENDROOT
TORSDOF 0
ENDMDL