MODEL 2
REMARK VINA RESULT: -4.578305285      1.578      3.389
REMARK  1 active torsions:
REMARK  status: ('A' for Active; 'I' for Inactive)
REMARK    1  A    between atoms: C2_2  and  C3_3
ROOT
HETATM    1  C3  UNL     1      35.337  -0.190   3.760  1.00  0.00     0.320 C
HETATM    2  N1  UNL     1      36.207   0.783   4.350  1.00  0.00    -0.049 N
ATOM      3  H11 UNL     1      35.743   1.683   4.476  1.00  0.00     0.280 HD
ATOM      4  H12 UNL     1      36.940   1.081   3.706  1.00  0.00     0.280 HD
HETATM    5  C4  UNL     1      36.743   0.281   5.575  1.00  0.00     0.237 C
HETATM    6  C5  UNL     1      37.343  -1.069   5.407  1.00  0.00     0.054 C
HETATM    7  C6  UNL     1      36.715  -1.929   4.380  1.00  0.00     0.172 C
HETATM    8  O1  UNL     1      36.070  -1.301   3.363  1.00  0.00    -0.359 OA
ENDROOT
BRANCH   1   9
HETATM    9  C2  UNL     1      34.685   0.458   2.563  1.00  0.00     0.057 C
HETATM   10  C1  UNL     1      35.073   1.904   2.514  1.00  0.00     0.009 C
ENDBRANCH   1   9
TORSDOF 1
ENDMDL