MODEL 1
REMARK VINA RESULT: -7.703247718      0.000      0.000
REMARK  3 active torsions:
REMARK  status: ('A' for Active; 'I' for Inactive)
REMARK    1  A    between atoms: C4_5  and  C5_6
REMARK    2  A    between atoms: C5_6  and  N1_7
REMARK       I    between atoms: N1_7  and  C6_9
REMARK       I    between atoms: C6_9  and  N3_17
REMARK    3  A    between atoms: N2_10  and  C7_12
ROOT
HETATM    1  N1  UNL     1     -30.487  -6.220  -3.947  1.00  0.00    -0.221 N
ATOM      2  H1  UNL     1     -31.467  -6.352  -4.201  1.00  0.00     0.177 HD
HETATM    3  C6  UNL     1     -29.472  -6.231  -4.942  1.00  0.00     0.687 C
HETATM    4  N2  UNL     1     -29.174  -7.214  -5.692  1.00  0.00    -0.189 N
ATOM      5  H2  UNL     1     -28.416  -7.046  -6.354  1.00  0.00     0.184 HD
HETATM    6  N3  UNL     1     -28.675  -5.050  -5.167  1.00  0.00    -0.126 N
ATOM      7  H3  UNL     1     -27.887  -4.819  -4.563  1.00  0.00     0.197 HD
HETATM    8  C11 UNL     1     -29.025  -4.241  -6.238  1.00  0.00     0.196 C
HETATM    9  N4  UNL     1     -29.322  -3.573  -7.136  1.00  0.00    -0.171 NA
ENDROOT
BRANCH   1  10
HETATM   10  C5  UNL     1     -30.102  -6.017  -2.565  1.00  0.00     0.199 C
BRANCH  10  11
HETATM   11  C4  UNL     1     -30.461  -7.208  -1.706  1.00  0.00     0.339 C
HETATM   12  O1  UNL     1     -31.825  -7.468  -1.718  1.00  0.00    -0.356 OA
HETATM   13  C3  UNL     1     -32.085  -8.159  -0.547  1.00  0.00     0.203 C
HETATM   14  C2  UNL     1     -30.942  -7.849   0.396  1.00  0.00     0.208 C
HETATM   15  C1  UNL     1     -31.407  -7.441   1.763  1.00  0.00     0.042 C
HETATM   16  N5  UNL     1     -30.278  -6.762  -0.314  1.00  0.00    -0.041 N
ATOM     17  H52 UNL     1     -30.616  -5.823  -0.102  1.00  0.00     0.280 HD
ATOM     18  H51 UNL     1     -29.316  -6.571  -0.032  1.00  0.00     0.280 HD
ENDBRANCH  10  11
ENDBRANCH   1  10
BRANCH   4  19
HETATM   19  C7  UNL     1     -29.736  -8.492  -5.736  1.00  0.00     0.073 A
HETATM   20  C8  UNL     1     -30.905  -8.908  -5.132  1.00  0.00     0.056 A
HETATM   21  C9  UNL     1     -31.091 -10.248  -5.430  1.00  0.00     0.143 A
HETATM   22  O2  UNL     1     -30.086 -10.625  -6.177  1.00  0.00    -0.332 OA
HETATM   23  C10 UNL     1     -29.260  -9.632  -6.387  1.00  0.00     0.171 A
ENDBRANCH   4  19
TORSDOF 3
ENDMDL