MODEL 4
REMARK VINA RESULT: -4.431777390      2.704      5.771
REMARK  8 active torsions:
REMARK  status: ('A' for Active; 'I' for Inactive)
REMARK    1  A    between atoms: C3_4  and  N2_5
REMARK    2  A    between atoms: N2_5  and  N3_7
REMARK    3  A    between atoms: N3_7  and  N4_8
REMARK    4  A    between atoms: C4_11  and  C5_12
REMARK    5  A    between atoms: C5_12  and  O1_13
REMARK    6  A    between atoms: C7_16  and  O2_17
REMARK    7  A    between atoms: C8_19  and  O3_20
REMARK    8  A    between atoms: O3_20  and  C9_21
ROOT
HETATM    1  C1  UNL     1     -28.684  -6.613  -2.734  1.00  0.00     0.221 C
HETATM    2  N1  UNL     1     -29.039  -6.462  -3.827  1.00  0.00    -0.461 NA
HETATM    3  C2  UNL     1     -29.479  -6.258  -5.144  1.00  0.00     0.218 C
HETATM    4  C3  UNL     1     -30.372  -7.388  -5.520  1.00  0.00     0.159 C
HETATM    5  C4  UNL     1     -29.587  -8.667  -5.336  1.00  0.00     0.040 C
HETATM    6  C6  UNL     1     -28.307  -8.656  -6.083  1.00  0.00     0.043 C
HETATM    7  C7  UNL     1     -27.976  -7.407  -6.797  1.00  0.00     0.150 C
HETATM    8  C8  UNL     1     -28.295  -6.139  -6.064  1.00  0.00     0.189 C
ENDROOT
BRANCH   4   9
HETATM    9  N2  UNL     1     -31.482  -7.409  -4.564  1.00  0.00    -0.244 N
ATOM     10  H2  UNL     1     -32.410  -7.087  -4.840  1.00  0.00     0.197 HD
BRANCH   9  11
HETATM   11  N3  UNL     1     -31.276  -7.823  -3.421  1.00  0.00    -0.248 NA
BRANCH  11  12
HETATM   12  N4  UNL     1     -31.263  -8.240  -2.259  1.00  0.00    -0.261 N
ATOM     13  H42 UNL     1     -32.010  -7.575  -2.061  1.00  0.00     0.193 HD
ATOM     14  H41 UNL     1     -31.135  -8.682  -1.349  1.00  0.00     0.193 HD
ENDBRANCH  11  12
ENDBRANCH   9  11
ENDBRANCH   4   9
BRANCH   8  15
HETATM   15  O3  UNL     1     -28.570  -5.123  -6.971  1.00  0.00    -0.366 OA
BRANCH  15  16
HETATM   16  C9  UNL     1     -27.407  -4.434  -7.283  1.00  0.00     0.291 C
HETATM   17  C10 UNL     1     -27.377  -4.034  -8.687  1.00  0.00     0.085 C
HETATM   18  N5  UNL     1     -27.345  -3.711  -9.789  1.00  0.00    -0.195 NA
ENDBRANCH  15  16
ENDBRANCH   8  15
BRANCH   5  19
HETATM   19  C5  UNL     1     -30.467  -9.844  -5.710  1.00  0.00     0.171 C
BRANCH  19  20
HETATM   20  O1  UNL     1     -30.992 -10.373  -4.520  1.00  0.00    -0.400 OA
ATOM     21  H1  UNL     1     -31.476 -11.158  -4.746  1.00  0.00     0.209 HD
ENDBRANCH  19  20
ENDBRANCH   5  19
BRANCH   7  22
HETATM   22  O2  UNL     1     -28.518  -7.431  -8.093  1.00  0.00    -0.393 OA
ATOM     23  H2  UNL     1     -28.338  -6.611  -8.538  1.00  0.00     0.210 HD
ENDBRANCH   7  22
TORSDOF 8
ENDMDL