MODEL 3
REMARK VINA RESULT: -6.947716532      1.305      1.391
REMARK  6 active torsions:
REMARK  status: ('A' for Active; 'I' for Inactive)
REMARK    1  A    between atoms: O1_2  and  C2_3
REMARK    2  A    between atoms: C2_3  and  C3_5
REMARK    3  A    between atoms: C6_8  and  C7_9
REMARK    4  A    between atoms: C7_9  and  C8_10
REMARK    5  A    between atoms: C8_10  and  S1_11
REMARK    6  A    between atoms: N1_13  and  N2_15
REMARK       I    between atoms: N2_15  and  C10_17
ROOT
HETATM    1  C7  UNL     1     -29.605  -8.091  -5.210  1.00  0.00     0.018 C
HETATM    2  N1  UNL     1     -30.458  -9.055  -5.270  1.00  0.00    -0.305 N
ATOM      3  H1  UNL     1     -31.364  -8.928  -4.818  1.00  0.00     0.186 HD
ENDROOT
BRANCH   1   4
HETATM    4  C6  UNL     1     -30.017  -6.867  -4.485  1.00  0.00     0.047 C
HETATM    5  C3  UNL     1     -29.922  -6.962  -2.981  1.00  0.00     0.095 C
HETATM    6  C4  UNL     1     -29.392  -5.523  -2.996  1.00  0.00     0.016 C
HETATM    7  C5  UNL     1     -28.912  -5.807  -4.404  1.00  0.00     0.012 C
BRANCH   5   8
HETATM    8  C2  UNL     1     -31.229  -6.969  -2.274  1.00  0.00     0.263 C
HETATM    9  O2  UNL     1     -31.997  -5.998  -2.347  1.00  0.00    -0.265 OA
BRANCH   8  10
HETATM   10  O1  UNL     1     -31.593  -8.059  -1.533  1.00  0.00    -0.326 OA
HETATM   11  C1  UNL     1     -31.607  -8.121  -0.133  1.00  0.00     0.213 C
ENDBRANCH   8  10
ENDBRANCH   5   8
ENDBRANCH   1   4
BRANCH   1  12
HETATM   12  C8  UNL     1     -28.312  -8.281  -5.859  1.00  0.00     0.128 C
BRANCH  12  13
HETATM   13  S1  UNL     1     -28.257  -7.700  -7.562  1.00  0.00    -0.168 SA
HETATM   14  C9  UNL     1     -27.415  -6.093  -7.584  1.00  0.00     0.090 C
ENDBRANCH  12  13
ENDBRANCH   1  12
BRANCH   2  15
HETATM   15  N2  UNL     1     -30.206 -10.262  -5.918  1.00  0.00    -0.274 N
HETATM   16  C10 UNL     1     -31.256 -11.220  -5.962  1.00  0.00     0.200 C
HETATM   17  N3  UNL     1     -32.214 -11.217  -5.110  1.00  0.00    -0.372 N
HETATM   18  N4  UNL     1     -31.258 -12.216  -6.973  1.00  0.00    -0.062 NA
ATOM     19  H32 UNL     1     -32.213 -10.501  -4.384  1.00  0.00     0.158 HD
ATOM     20  H31 UNL     1     -32.967 -11.904  -5.142  1.00  0.00     0.158 HD
ATOM     21  H2  UNL     1     -29.300 -10.452  -6.346  1.00  0.00     0.189 HD
ENDBRANCH   2  15
TORSDOF 6
ENDMDL