MODEL 4
REMARK VINA RESULT: -4.951675767      2.422      4.137
REMARK  7 active torsions:
REMARK  status: ('A' for Active; 'I' for Inactive)
REMARK    1  A    between atoms: O1_1  and  C1_3
REMARK    2  A    between atoms: C1_3  and  C2_4
REMARK    3  A    between atoms: C2_4  and  S1_5
REMARK    4  A    between atoms: S1_5  and  C3_6
REMARK    5  A    between atoms: C4_8  and  C5_9
REMARK    6  A    between atoms: C5_9  and  O3_10
REMARK    7  A    between atoms: C6_12  and  O4_13
ROOT
HETATM    1  C3  UNL     1     -28.638  -7.979  -5.597  1.00  0.00     0.188 C
HETATM    2  O2  UNL     1     -27.829  -7.188  -6.355  1.00  0.00    -0.365 OA
HETATM    3  C4  UNL     1     -28.304  -5.938  -6.672  1.00  0.00     0.175 C
HETATM    4  C6  UNL     1     -28.950  -5.185  -5.527  1.00  0.00     0.153 C
HETATM    5  C7  UNL     1     -29.994  -6.027  -4.851  1.00  0.00     0.024 C
HETATM    6  C8  UNL     1     -30.438  -5.530  -3.507  1.00  0.00     0.008 C
HETATM    7  C9  UNL     1     -29.826  -6.434  -2.453  1.00  0.00     0.001 C
HETATM    8  C10 UNL     1     -28.660  -7.057  -3.243  1.00  0.00     0.008 C
HETATM    9  C11 UNL     1     -29.428  -7.392  -4.504  1.00  0.00     0.031 C
ENDROOT
BRANCH   1  10
HETATM   10  S1  UNL     1     -29.717  -9.126  -6.483  1.00  0.00    -0.135 SA
BRANCH  10  11
HETATM   11  C2  UNL     1     -31.116  -9.564  -5.455  1.00  0.00     0.102 C
BRANCH  11  12
HETATM   12  C1  UNL     1     -31.299 -11.060  -5.418  1.00  0.00     0.174 C
BRANCH  12  13
HETATM   13  O1  UNL     1     -30.956 -11.576  -6.639  1.00  0.00    -0.400 OA
ATOM     14  H1  UNL     1     -31.402 -12.407  -6.756  1.00  0.00     0.209 HD
ENDBRANCH  12  13
ENDBRANCH  11  12
ENDBRANCH  10  11
ENDBRANCH   1  10
BRANCH   3  15
HETATM   15  C5  UNL     1     -27.155  -5.078  -7.172  1.00  0.00     0.198 C
BRANCH  15  16
HETATM   16  O3  UNL     1     -26.343  -5.739  -8.070  1.00  0.00    -0.398 OA
ATOM     17  H3  UNL     1     -25.716  -5.164  -8.493  1.00  0.00     0.209 HD
ENDBRANCH  15  16
ENDBRANCH   3  15
BRANCH   4  18
HETATM   18  O4  UNL     1     -29.646  -4.105  -6.128  1.00  0.00    -0.393 OA
ATOM     19  H4  UNL     1     -30.146  -4.490  -6.839  1.00  0.00     0.210 HD
ENDBRANCH   4  18
TORSDOF 7
ENDMDL