MODEL 3
REMARK VINA RESULT: -6.809171013      1.515      2.994
REMARK  5 active torsions:
REMARK  status: ('A' for Active; 'I' for Inactive)
REMARK    1  A    between atoms: C2_2  and  O1_3
REMARK    2  A    between atoms: C2_2  and  C3_5
REMARK    3  A    between atoms: C3_5  and  C4_6
REMARK    4  A    between atoms: C4_6  and  N1_7
REMARK    5  A    between atoms: C4_6  and  C8_18
REMARK       I    between atoms: N1_7  and  C5_9
REMARK       I    between atoms: C5_9  and  N4_14
ROOT
HETATM    1  N1  UNL     1     -30.091  -7.643  -3.472  1.00  0.00    -0.218 N
ATOM      2  H1  UNL     1     -30.457  -8.499  -3.055  1.00  0.00     0.178 HD
HETATM    3  C5  UNL     1     -29.642  -6.612  -2.606  1.00  0.00     0.696 C
HETATM    4  N2  UNL     1     -28.373  -6.426  -2.468  1.00  0.00    -0.125 N
ATOM      5  H2  UNL     1     -27.734  -7.029  -2.987  1.00  0.00     0.197 HD
HETATM    6  C6  UNL     1     -27.833  -5.438  -1.640  1.00  0.00     0.196 C
HETATM    7  N3  UNL     1     -27.374  -4.623  -0.957  1.00  0.00    -0.171 NA
HETATM    8  N4  UNL     1     -30.504  -5.759  -1.869  1.00  0.00    -0.125 N
ATOM      9  H4  UNL     1     -30.473  -4.744  -1.977  1.00  0.00     0.197 HD
HETATM   10  C7  UNL     1     -31.397  -6.375  -0.987  1.00  0.00     0.196 C
HETATM   11  N5  UNL     1     -32.158  -6.879  -0.253  1.00  0.00    -0.171 NA
ENDROOT
BRANCH   1  12
HETATM   12  C4  UNL     1     -30.058  -7.546  -4.908  1.00  0.00     0.130 C
BRANCH  12  13
HETATM   13  C3  UNL     1     -28.639  -7.501  -5.433  1.00  0.00     0.059 C
BRANCH  13  14
HETATM   14  C2  UNL     1     -28.461  -6.459  -6.511  1.00  0.00     0.116 C
HETATM   15  C1  UNL     1     -28.727  -5.110  -5.877  1.00  0.00     0.039 C
BRANCH  14  16
HETATM   16  O1  UNL     1     -27.194  -6.440  -7.044  1.00  0.00    -0.396 OA
ATOM     17  H1  UNL     1     -26.572  -6.546  -6.334  1.00  0.00     0.210 HD
ENDBRANCH  14  16
ENDBRANCH  13  14
ENDBRANCH  12  13
BRANCH  12  18
HETATM   18  C8  UNL     1     -30.729  -8.735  -5.559  1.00  0.00     0.144 C
HETATM   19  C9  UNL     1     -29.809  -9.539  -6.407  1.00  0.00     0.036 C
HETATM   20  C10 UNL     1     -30.511 -10.882  -6.483  1.00  0.00     0.029 C
HETATM   21  C11 UNL     1     -31.596 -10.716  -5.439  1.00  0.00     0.168 C
HETATM   22  O2  UNL     1     -31.210  -9.646  -4.632  1.00  0.00    -0.384 OA
ENDBRANCH  12  18
ENDBRANCH   1  12
TORSDOF 5
ENDMDL