MODEL 3
REMARK VINA RESULT: -7.281355388      1.705      2.602
REMARK  7 active torsions:
REMARK  status: ('A' for Active; 'I' for Inactive)
REMARK    1  A    between atoms: C2_2  and  C3_3
REMARK    2  A    between atoms: N1_8  and  C8_9
REMARK    3  A    between atoms: C8_9  and  C9_10
REMARK    4  A    between atoms: C8_9  and  C10_15
REMARK    5  A    between atoms: N2_11  and  O1_13
REMARK    6  A    between atoms: C10_15  and  S1_16
REMARK    7  A    between atoms: S1_16  and  C11_17
ROOT
HETATM    1  C8  UNL     1     -14.671 -30.125 -11.931  1.00  0.00     0.134 C
ENDROOT
BRANCH   1   2
HETATM    2  N1  UNL     1     -13.915 -29.401 -12.827  1.00  0.00    -0.378 N
HETATM    3  C7  UNL     1     -13.452 -28.114 -12.502  1.00  0.00     0.059 C
HETATM    4  C6  UNL     1     -12.128 -27.902 -13.212  1.00  0.00     0.045 C
HETATM    5  C5  UNL     1     -11.516 -29.198 -13.689  1.00  0.00     0.016 C
HETATM    6  C3  UNL     1     -12.449 -30.010 -14.551  1.00  0.00    -0.024 C
HETATM    7  C4  UNL     1     -12.213 -31.472 -14.194  1.00  0.00     0.017 C
HETATM    8  C14 UNL     1     -13.903 -29.645 -14.206  1.00  0.00     0.088 C
HETATM    9  C15 UNL     1     -14.865 -30.626 -14.770  1.00  0.00     0.033 C
BRANCH   6  10
HETATM   10  C2  UNL     1     -12.157 -29.874 -16.009  1.00  0.00     0.006 C
HETATM   11  C1  UNL     1     -11.083 -30.786 -16.532  1.00  0.00     0.006 C
ENDBRANCH   6  10
ENDBRANCH   1   2
BRANCH   1  12
HETATM   12  C9  UNL     1     -13.746 -30.895 -11.021  1.00  0.00     0.112 C
HETATM   13  N2  UNL     1     -14.116 -31.208  -9.832  1.00  0.00    -0.282 N
ATOM     14  H2  UNL     1     -15.046 -30.924  -9.524  1.00  0.00     0.192 HD
BRANCH  13  15
HETATM   15  O1  UNL     1     -13.331 -31.899  -8.966  1.00  0.00    -0.290 OA
ATOM     16  H1  UNL     1     -13.672 -32.362  -8.209  1.00  0.00     0.244 HD
ENDBRANCH  13  15
ENDBRANCH   1  12
BRANCH   1  17
HETATM   17  C10 UNL     1     -15.451 -29.208 -10.978  1.00  0.00     0.113 C
BRANCH  17  18
HETATM   18  S1  UNL     1     -17.130 -28.923 -11.645  1.00  0.00    -0.092 SA
BRANCH  18  19
HETATM   19  C11 UNL     1     -17.333 -27.156 -11.826  1.00  0.00     0.136 C
HETATM   20  N3  UNL     1     -16.390 -26.309 -11.628  1.00  0.00    -0.369 N
HETATM   21  C12 UNL     1     -16.795 -24.952 -11.835  1.00  0.00     0.141 C
ATOM     22  H3  UNL     1     -15.445 -26.576 -11.351  1.00  0.00     0.161 HD
HETATM   23  C13 UNL     1     -18.131 -25.062 -12.539  1.00  0.00     0.141 C
HETATM   24  N4  UNL     1     -18.497 -26.435 -12.195  1.00  0.00    -0.369 N
ATOM     25  H4  UNL     1     -19.443 -26.814 -12.216  1.00  0.00     0.161 HD
ENDBRANCH  18  19
ENDBRANCH  17  18
ENDBRANCH   1  17
TORSDOF 7
ENDMDL