MODEL 3
REMARK VINA RESULT: -8.259099189      1.665      1.945
REMARK  5 active torsions:
REMARK  status: ('A' for Active; 'I' for Inactive)
REMARK    1  A    between atoms: C2_3  and  C8_10
REMARK    2  A    between atoms: C3_4  and  C4_5
REMARK       I    between atoms: C8_10  and  N2_12
REMARK    3  A    between atoms: N2_12  and  N3_14
REMARK    4  A    between atoms: N3_14  and  C9_16
REMARK    5  A    between atoms: C12_19  and  N4_20
ROOT
HETATM    1  N1  UNL     1     -13.210 -36.022 -10.766  1.00  0.00    -0.191 NA
HETATM    2  C1  UNL     1     -13.430 -34.981 -11.210  1.00  0.00     0.105 C
HETATM    3  C2  UNL     1     -13.745 -33.625 -11.805  1.00  0.00     0.115 C
HETATM    4  C3  UNL     1     -13.010 -33.332 -12.793  1.00  0.00     0.047 C
ENDROOT
BRANCH   3   5
HETATM    5  C8  UNL     1     -14.726 -32.884 -11.086  1.00  0.00     0.280 C
HETATM    6  O1  UNL     1     -14.393 -32.463  -9.904  1.00  0.00    -0.265 OA
HETATM    7  N2  UNL     1     -16.004 -32.554 -11.508  1.00  0.00    -0.265 N
ATOM      8  H2  UNL     1     -16.336 -32.835 -12.430  1.00  0.00     0.190 HD
BRANCH   7   9
HETATM    9  N3  UNL     1     -16.844 -31.816 -10.632  1.00  0.00    -0.298 N
ATOM     10  H3  UNL     1     -17.504 -32.295 -10.019  1.00  0.00     0.187 HD
BRANCH   9  11
HETATM   11  C9  UNL     1     -16.748 -30.400 -10.627  1.00  0.00     0.048 A
HETATM   12  C10 UNL     1     -16.393 -29.734  -9.453  1.00  0.00     0.033 A
HETATM   13  C11 UNL     1     -16.301 -28.363  -9.429  1.00  0.00     0.038 A
HETATM   14  C12 UNL     1     -16.553 -27.577 -10.549  1.00  0.00     0.103 A
HETATM   15  C13 UNL     1     -16.903 -28.235 -11.703  1.00  0.00     0.038 A
HETATM   16  C14 UNL     1     -16.995 -29.622 -11.729  1.00  0.00     0.033 A
BRANCH  14  17
HETATM   17  N4  UNL     1     -16.444 -26.160 -10.459  1.00  0.00    -0.116 N
HETATM   18  O2  UNL     1     -16.319 -25.630  -9.338  1.00  0.00    -0.532 OA
HETATM   19  O3  UNL     1     -16.472 -25.344 -11.556  1.00  0.00    -0.532 OA
ENDBRANCH  14  17
ENDBRANCH   9  11
ENDBRANCH   7   9
ENDBRANCH   3   5
BRANCH   4  20
HETATM   20  C4  UNL     1     -12.963 -32.173 -13.658  1.00  0.00     0.006 A
HETATM   21  C5  UNL     1     -14.000 -31.345 -13.983  1.00  0.00     0.019 A
HETATM   22  C6  UNL     1     -13.740 -30.265 -14.726  1.00  0.00     0.008 A
HETATM   23  C7  UNL     1     -12.440 -30.065 -15.113  1.00  0.00     0.050 A
HETATM   24  S1  UNL     1     -11.629 -31.395 -14.422  1.00  0.00    -0.102 SA
ENDBRANCH   4  20
TORSDOF 5
ENDMDL