MODEL 4
REMARK VINA RESULT: -8.297539946      2.862      4.992
REMARK  7 active torsions:
REMARK  status: ('A' for Active; 'I' for Inactive)
REMARK    1  A    between atoms: O1_1  and  C1_3
REMARK    2  A    between atoms: C1_3  and  C2_4
REMARK    3  A    between atoms: C3_6  and  C4_7
REMARK    4  A    between atoms: C5_8  and  C6_9
REMARK    5  A    between atoms: C6_9  and  O3_10
REMARK    6  A    between atoms: O3_10  and  C7_11
REMARK    7  A    between atoms: C17_23  and  O6_24
ROOT
HETATM    1  C6  UNL     1     -12.314 -31.528 -13.913  1.00  0.00     0.198 C
ENDROOT
BRANCH   1   2
HETATM    2  C5  UNL     1     -12.109 -30.529 -14.960  1.00  0.00     0.002 C
HETATM    3  C4  UNL     1     -12.285 -29.253 -14.849  1.00  0.00     0.035 C
BRANCH   3   4
HETATM    4  C3  UNL     1     -12.721 -28.496 -13.684  1.00  0.00     0.078 A
HETATM    5  O2  UNL     1     -13.831 -28.555 -12.997  1.00  0.00    -0.310 OA
HETATM    6  C2  UNL     1     -13.874 -27.717 -12.009  1.00  0.00     0.110 A
HETATM    7  C17 UNL     1     -12.698 -27.003 -11.991  1.00  0.00     0.100 A
HETATM    8  C16 UNL     1     -11.971 -27.496 -13.050  1.00  0.00     0.076 A
BRANCH   6   9
HETATM    9  C1  UNL     1     -14.958 -27.488 -11.008  1.00  0.00     0.232 C
BRANCH   9  10
HETATM   10  O1  UNL     1     -15.118 -26.112 -10.889  1.00  0.00    -0.394 OA
ATOM     11  H1  UNL     1     -15.793 -25.965 -10.238  1.00  0.00     0.209 HD
ENDBRANCH   9  10
ENDBRANCH   6   9
BRANCH   7  12
HETATM   12  O6  UNL     1     -12.311 -25.993 -11.097  1.00  0.00    -0.358 OA
ATOM     13  H6  UNL     1     -11.434 -25.764 -10.814  1.00  0.00     0.217 HD
ENDBRANCH   7  12
ENDBRANCH   3   4
ENDBRANCH   1   2
BRANCH   1  14
HETATM   14  O3  UNL     1     -13.685 -31.780 -13.690  1.00  0.00    -0.355 OA
BRANCH  14  15
HETATM   15  C7  UNL     1     -13.794 -32.699 -12.684  1.00  0.00     0.294 C
HETATM   16  O4  UNL     1     -12.566 -33.030 -12.108  1.00  0.00    -0.356 OA
HETATM   17  C8  UNL     1     -12.749 -34.135 -11.302  1.00  0.00     0.197 C
HETATM   18  C9  UNL     1     -14.172 -34.450 -10.993  1.00  0.00     0.195 C
HETATM   19  O5  UNL     1     -14.974 -33.364 -10.780  1.00  0.00    -0.373 OA
HETATM   20  C10 UNL     1     -14.699 -32.269 -11.560  1.00  0.00     0.110 C
HETATM   21  C11 UNL     1     -13.999 -31.244 -10.656  1.00  0.00     0.043 C
HETATM   22  C15 UNL     1     -15.976 -31.647 -12.013  1.00  0.00     0.043 C
HETATM   23  C12 UNL     1     -14.837 -31.165  -9.394  1.00  0.00     0.003 C
HETATM   24  C13 UNL     1     -16.252 -30.725  -9.697  1.00  0.00     0.000 C
HETATM   25  C14 UNL     1     -16.887 -31.539 -10.783  1.00  0.00     0.003 C
ENDBRANCH  14  15
ENDBRANCH   1  14
TORSDOF 7
ENDMDL