MODEL 1
REMARK VINA RESULT: -8.609099153      0.000      0.000
REMARK  7 active torsions:
REMARK  status: ('A' for Active; 'I' for Inactive)
REMARK    1  A    between atoms: O1_2  and  C2_3
REMARK    2  A    between atoms: C2_3  and  O2_4
REMARK    3  A    between atoms: C2_3  and  C11_16
REMARK    4  A    between atoms: O2_4  and  C3_5
REMARK       I    between atoms: C3_5  and  N1_7
REMARK    5  A    between atoms: N1_7  and  C4_9
REMARK    6  A    between atoms: C4_9  and  C5_10
REMARK    7  A    between atoms: C13_18  and  C14_19
ROOT
HETATM    1  C2  UNL     1     -15.818 -29.052  -9.917  1.00  0.00     0.331 C
ENDROOT
BRANCH   1   2
HETATM    2  O1  UNL     1     -15.824 -29.289  -8.558  1.00  0.00    -0.359 OA
HETATM    3  C1  UNL     1     -16.431 -30.478  -8.203  1.00  0.00     0.205 C
ENDBRANCH   1   2
BRANCH   1   4
HETATM    4  O2  UNL     1     -16.493 -30.055 -10.635  1.00  0.00    -0.266 OA
BRANCH   4   5
HETATM    5  C3  UNL     1     -15.917 -30.804 -11.653  1.00  0.00     0.363 C
HETATM    6  O3  UNL     1     -16.046 -32.050 -11.593  1.00  0.00    -0.238 OA
HETATM    7  N1  UNL     1     -15.210 -30.225 -12.726  1.00  0.00    -0.336 N
ATOM      8  H1  UNL     1     -15.118 -29.210 -12.754  1.00  0.00     0.164 HD
BRANCH   7   9
HETATM    9  C4  UNL     1     -14.618 -30.985 -13.772  1.00  0.00     0.129 C
BRANCH   9  10
HETATM   10  C5  UNL     1     -13.570 -30.254 -14.581  1.00  0.00     0.003 C
HETATM   11  C6  UNL     1     -12.411 -31.216 -14.746  1.00  0.00     0.006 C
HETATM   12  C7  UNL     1     -11.205 -30.591 -15.356  1.00  0.00     0.000 C
HETATM   13  C8  UNL     1     -11.227 -29.093 -15.365  1.00  0.00     0.000 C
HETATM   14  C9  UNL     1     -11.806 -28.531 -14.098  1.00  0.00     0.000 C
HETATM   15  C10 UNL     1     -13.173 -29.033 -13.782  1.00  0.00     0.006 C
ENDBRANCH   9  10
ENDBRANCH   7   9
ENDBRANCH   4   5
ENDBRANCH   1   4
BRANCH   1  16
HETATM   16  C11 UNL     1     -16.432 -27.732 -10.262  1.00  0.00     0.134 A
HETATM   17  C12 UNL     1     -17.125 -27.398 -11.408  1.00  0.00     0.078 A
HETATM   18  C13 UNL     1     -17.509 -26.080 -11.303  1.00  0.00     0.133 A
HETATM   19  N2  UNL     1     -17.040 -25.669 -10.112  1.00  0.00    -0.254 N
HETATM   20  O6  UNL     1     -16.417 -26.649  -9.527  1.00  0.00    -0.237 OA
ATOM     21  H2  UNL     1     -17.156 -24.732  -9.727  1.00  0.00     0.195 HD
BRANCH  18  22
HETATM   22  C14 UNL     1     -18.264 -25.275 -12.261  1.00  0.00     0.228 C
HETATM   23  O4  UNL     1     -17.908 -24.111 -12.568  1.00  0.00    -0.643 OA
HETATM   24  O5  UNL     1     -19.394 -25.793 -12.848  1.00  0.00    -0.643 OA
ENDBRANCH  18  22
ENDBRANCH   1  16
TORSDOF 7
ENDMDL