MODEL 2
REMARK VINA RESULT: -8.077856085      0.832      1.334
REMARK  6 active torsions:
REMARK  status: ('A' for Active; 'I' for Inactive)
REMARK    1  A    between atoms: C2_2  and  O1_3
REMARK    2  A    between atoms: C2_2  and  C3_5
REMARK    3  A    between atoms: C6_10  and  C7_11
REMARK    4  A    between atoms: C7_11  and  C8_13
REMARK    5  A    between atoms: N3_16  and  N4_18
REMARK    6  A    between atoms: N4_18  and  C10_20
ROOT
HETATM    1  C8  UNL     1     -15.156 -30.260 -11.330  1.00  0.00     0.179 C
HETATM    2  C9  UNL     1     -15.454 -31.597 -10.973  1.00  0.00     0.123 C
HETATM    3  N2  UNL     1     -15.709 -32.721 -10.717  1.00  0.00    -0.190 NA
HETATM    4  N3  UNL     1     -14.700 -30.052 -12.564  1.00  0.00    -0.287 N
ATOM      5  H3  UNL     1     -14.498 -29.111 -12.903  1.00  0.00     0.188 HD
ENDROOT
BRANCH   1   6
HETATM    6  C7  UNL     1     -15.337 -29.079 -10.533  1.00  0.00     0.223 C
HETATM    7  O2  UNL     1     -15.263 -29.245  -9.258  1.00  0.00    -0.284 OA
BRANCH   6   8
HETATM    8  C6  UNL     1     -15.586 -27.734 -10.998  1.00  0.00     0.046 A
HETATM    9  C3  UNL     1     -14.746 -26.699 -11.345  1.00  0.00     0.024 A
HETATM   10  C4  UNL     1     -15.532 -25.517 -11.502  1.00  0.00     0.102 A
HETATM   11  N1  UNL     1     -16.791 -25.848 -11.261  1.00  0.00    -0.373 N
HETATM   12  C5  UNL     1     -16.874 -27.153 -10.958  1.00  0.00     0.104 A
ATOM     13  H1  UNL     1     -17.582 -25.205 -11.300  1.00  0.00     0.164 HD
BRANCH   9  14
HETATM   14  C2  UNL     1     -13.340 -26.713 -11.683  1.00  0.00     0.052 C
HETATM   15  C1  UNL     1     -12.610 -27.484 -12.656  1.00  0.00     0.077 C
BRANCH  14  16
HETATM   16  O1  UNL     1     -12.600 -25.880 -10.999  1.00  0.00    -0.364 OA
ATOM     17  H1  UNL     1     -11.812 -26.269 -10.638  1.00  0.00     0.217 HD
ENDBRANCH  14  16
ENDBRANCH   9  14
ENDBRANCH   6   8
ENDBRANCH   1   6
BRANCH   4  18
HETATM   18  N4  UNL     1     -14.509 -31.164 -13.372  1.00  0.00    -0.300 N
ATOM     19  H4  UNL     1     -15.231 -31.881 -13.450  1.00  0.00     0.187 HD
BRANCH  18  20
HETATM   20  C10 UNL     1     -13.291 -31.285 -14.086  1.00  0.00     0.048 A
HETATM   21  C11 UNL     1     -13.016 -30.444 -15.133  1.00  0.00     0.032 A
HETATM   22  C12 UNL     1     -11.825 -30.556 -15.838  1.00  0.00     0.025 A
HETATM   23  C13 UNL     1     -10.929 -31.545 -15.449  1.00  0.00     0.044 A
HETATM   24  C14 UNL     1      -9.702 -31.652 -16.186  1.00  0.00     0.099 C
HETATM   25  C15 UNL     1     -11.190 -32.398 -14.401  1.00  0.00     0.025 A
HETATM   26  N5  UNL     1      -8.694 -31.732 -16.779  1.00  0.00    -0.191 NA
HETATM   27  C16 UNL     1     -12.387 -32.235 -13.743  1.00  0.00     0.032 A
ENDBRANCH  18  20
ENDBRANCH   4  18
TORSDOF 6
ENDMDL