MODEL 4
REMARK VINA RESULT: -7.374283693      2.528      4.372
REMARK  7 active torsions:
REMARK  status: ('A' for Active; 'I' for Inactive)
REMARK    1  A    between atoms: C2_2  and  O1_3
REMARK    2  A    between atoms: O1_3  and  C3_4
REMARK    3  A    between atoms: C3_4  and  C4_6
REMARK    4  A    between atoms: C5_10  and  C6_11
REMARK    5  A    between atoms: C6_11  and  N3_15
REMARK    6  A    between atoms: N3_15  and  N4_17
REMARK    7  A    between atoms: C7_19  and  C8_20
ROOT
HETATM    1  C6  UNL     1     -15.372 -30.139  -8.423  1.00  0.00     0.141 C
HETATM    2  N2  UNL     1     -16.388 -30.441  -7.649  1.00  0.00    -0.383 N
ATOM      3  H21 UNL     1     -16.928 -29.695  -7.209  1.00  0.00     0.157 HD
ATOM      4  H22 UNL     1     -16.591 -31.433  -7.530  1.00  0.00     0.157 HD
ENDROOT
BRANCH   1   5
HETATM    5  C5  UNL     1     -14.591 -31.214  -9.059  1.00  0.00     0.091 A
HETATM    6  N1  UNL     1     -13.392 -31.506  -8.497  1.00  0.00    -0.322 N
HETATM    7  S1  UNL     1     -12.745 -32.713  -9.407  1.00  0.00    -0.007 SA
ATOM      8  H1  UNL     1     -12.975 -31.066  -7.677  1.00  0.00     0.174 HD
HETATM    9  C4  UNL     1     -14.027 -32.885 -10.566  1.00  0.00     0.105 A
HETATM   10  C13 UNL     1     -14.920 -31.949 -10.151  1.00  0.00    -0.006 A
HETATM   11  C14 UNL     1     -16.247 -31.744 -10.881  1.00  0.00     0.052 C
BRANCH   9  12
HETATM   12  C3  UNL     1     -14.030 -33.842 -11.684  1.00  0.00     0.302 C
HETATM   13  O2  UNL     1     -14.562 -34.939 -11.629  1.00  0.00    -0.259 OA
BRANCH  12  14
HETATM   14  O1  UNL     1     -13.395 -33.496 -12.889  1.00  0.00    -0.317 OA
BRANCH  14  15
HETATM   15  C2  UNL     1     -12.927 -32.185 -13.126  1.00  0.00     0.174 C
HETATM   16  C1  UNL     1     -13.993 -31.439 -13.891  1.00  0.00     0.034 C
ENDBRANCH  14  15
ENDBRANCH  12  14
ENDBRANCH   9  12
ENDBRANCH   1   5
BRANCH   1  17
HETATM   17  N3  UNL     1     -15.097 -28.794  -8.585  1.00  0.00    -0.285 N
ATOM     18  H3  UNL     1     -14.381 -28.359  -8.003  1.00  0.00     0.188 HD
BRANCH  17  19
HETATM   19  N4  UNL     1     -15.782 -28.008  -9.535  1.00  0.00    -0.314 N
HETATM   20  C7  UNL     1     -15.342 -28.027 -10.735  1.00  0.00     0.084 C
ATOM     21  H4  UNL     1     -16.595 -27.448  -9.275  1.00  0.00     0.185 HD
BRANCH  20  22
HETATM   22  C8  UNL     1     -16.011 -27.225 -11.791  1.00  0.00     0.025 C
HETATM   23  C9  UNL     1     -16.190 -25.800 -11.383  1.00  0.00     0.010 C
HETATM   24  C10 UNL     1     -17.649 -25.484 -11.428  1.00  0.00     0.001 C
HETATM   25  C11 UNL     1     -18.249 -26.536 -12.322  1.00  0.00     0.001 C
HETATM   26  C12 UNL     1     -17.424 -27.766 -11.974  1.00  0.00     0.010 C
ENDBRANCH  20  22
ENDBRANCH  17  19
ENDBRANCH   1  17
TORSDOF 7
ENDMDL