MODEL 4
REMARK VINA RESULT: -7.458218417      2.679      4.253
REMARK  6 active torsions:
REMARK  status: ('A' for Active; 'I' for Inactive)
REMARK    1  A    between atoms: C3_4  and  O1_5
REMARK    2  A    between atoms: O1_5  and  C4_6
REMARK    3  A    between atoms: C4_6  and  C5_7
REMARK    4  A    between atoms: C11_15  and  N3_16
REMARK    5  A    between atoms: C12_21  and  O2_22
REMARK    6  A    between atoms: O2_22  and  C13_23
ROOT
HETATM    1  N1  UNL     1     -14.119 -30.527 -14.892  1.00  0.00    -0.191 NA
HETATM    2  C1  UNL     1     -14.037 -31.230 -13.989  1.00  0.00     0.108 C
HETATM    3  C2  UNL     1     -13.950 -32.121 -12.863  1.00  0.00     0.147 A
HETATM    4  C3  UNL     1     -14.935 -32.091 -11.858  1.00  0.00     0.182 A
HETATM    5  N2  UNL     1     -14.825 -32.934 -10.820  1.00  0.00    -0.169 N
ATOM      6  H2  UNL     1     -15.534 -32.921 -10.085  1.00  0.00     0.186 HD
HETATM    7  C11 UNL     1     -13.819 -33.778 -10.734  1.00  0.00     0.679 A
HETATM    8  N4  UNL     1     -12.880 -33.805 -11.696  1.00  0.00    -0.169 N
ATOM      9  H4  UNL     1     -12.112 -34.470 -11.603  1.00  0.00     0.186 HD
HETATM   10  C12 UNL     1     -12.898 -33.004 -12.771  1.00  0.00     0.183 A
ENDROOT
BRANCH   4  11
HETATM   11  O1  UNL     1     -15.930 -31.210 -12.001  1.00  0.00    -0.334 OA
BRANCH  11  12
HETATM   12  C4  UNL     1     -16.573 -30.152 -11.535  1.00  0.00     0.182 C
BRANCH  12  13
HETATM   13  C5  UNL     1     -16.206 -28.759 -12.015  1.00  0.00     0.010 C
HETATM   14  C6  UNL     1     -17.324 -27.808 -11.785  1.00  0.00     0.007 C
HETATM   15  C7  UNL     1     -16.978 -26.615 -10.941  1.00  0.00     0.000 C
HETATM   16  C8  UNL     1     -15.638 -26.087 -11.463  1.00  0.00     0.000 C
HETATM   17  C9  UNL     1     -14.632 -27.116 -10.932  1.00  0.00     0.000 C
HETATM   18  C10 UNL     1     -14.839 -28.406 -11.683  1.00  0.00     0.007 C
ENDBRANCH  12  13
ENDBRANCH  11  12
ENDBRANCH   4  11
BRANCH  10  19
HETATM   19  O2  UNL     1     -11.954 -33.004 -13.775  1.00  0.00    -0.329 OA
BRANCH  19  20
HETATM   20  C13 UNL     1     -10.657 -33.416 -13.622  1.00  0.00     0.130 C
HETATM   21  C14 UNL     1     -10.449 -34.640 -14.507  1.00  0.00     0.032 C
HETATM   22  C15 UNL     1      -9.977 -34.126 -15.839  1.00  0.00     0.002 C
HETATM   23  C16 UNL     1      -9.622 -32.669 -15.651  1.00  0.00     0.002 C
HETATM   24  C17 UNL     1      -9.637 -32.425 -14.163  1.00  0.00     0.032 C
ENDBRANCH  19  20
ENDBRANCH  10  19
BRANCH   7  25
HETATM   25  N3  UNL     1     -13.722 -34.597  -9.717  1.00  0.00    -0.234 N
ATOM     26  H32 UNL     1     -12.805 -34.785  -9.311  1.00  0.00     0.174 HD
ATOM     27  H31 UNL     1     -14.553 -35.046  -9.331  1.00  0.00     0.174 HD
ENDBRANCH   7  25
TORSDOF 6
ENDMDL