MODEL 3
REMARK VINA RESULT: -7.111044912      4.464      5.177
REMARK  6 active torsions:
REMARK  status: ('A' for Active; 'I' for Inactive)
REMARK       I    between atoms: C1_2  and  N1_3
REMARK    1  A    between atoms: C1_2  and  C8_14
REMARK    2  A    between atoms: N1_3  and  N2_5
REMARK    3  A    between atoms: C2_7  and  C3_8
REMARK    4  A    between atoms: C3_8  and  C4_9
REMARK    5  A    between atoms: C10_16  and  N3_17
REMARK    6  A    between atoms: C13_22  and  O4_23
ROOT
HETATM    1  O1  UNL     1     -16.228 -30.547  -7.574  1.00  0.00    -0.266 OA
HETATM    2  C1  UNL     1     -15.440 -29.876  -8.342  1.00  0.00     0.272 C
HETATM    3  N1  UNL     1     -14.147 -29.682  -7.836  1.00  0.00    -0.266 N
ATOM      4  H1  UNL     1     -13.467 -29.160  -8.389  1.00  0.00     0.190 HD
ENDROOT
BRANCH   2   5
HETATM    5  C8  UNL     1     -15.987 -29.423  -9.602  1.00  0.00     0.069 A
HETATM    6  C9  UNL     1     -15.764 -28.078  -9.946  1.00  0.00     0.056 A
HETATM    7  C10 UNL     1     -16.234 -27.539 -11.114  1.00  0.00     0.104 A
HETATM    8  C11 UNL     1     -16.952 -28.366 -11.971  1.00  0.00     0.039 A
HETATM    9  C12 UNL     1     -17.187 -29.681 -11.664  1.00  0.00     0.040 A
HETATM   10  C13 UNL     1     -16.704 -30.223 -10.471  1.00  0.00     0.081 A
BRANCH   7  11
HETATM   11  N3  UNL     1     -15.990 -26.177 -11.431  1.00  0.00    -0.116 N
HETATM   12  O2  UNL     1     -14.829 -25.751 -11.387  1.00  0.00    -0.532 OA
HETATM   13  O3  UNL     1     -16.996 -25.331 -11.780  1.00  0.00    -0.532 OA
ENDBRANCH   7  11
BRANCH  10  14
HETATM   14  O4  UNL     1     -16.955 -31.551 -10.188  1.00  0.00    -0.360 OA
ATOM     15  H4  UNL     1     -17.567 -32.061 -10.705  1.00  0.00     0.217 HD
ENDBRANCH  10  14
ENDBRANCH   2   5
BRANCH   3  16
HETATM   16  N2  UNL     1     -13.764 -30.196  -6.572  1.00  0.00    -0.313 N
HETATM   17  C2  UNL     1     -12.576 -29.998  -6.155  1.00  0.00     0.081 C
ATOM     18  H2  UNL     1     -14.431 -30.717  -6.003  1.00  0.00     0.185 HD
BRANCH  17  19
HETATM   19  C3  UNL     1     -12.074 -30.494  -4.845  1.00  0.00     0.061 C
BRANCH  19  20
HETATM   20  C4  UNL     1     -10.738 -31.186  -4.977  1.00  0.00     0.052 C
HETATM   21  C5  UNL     1     -10.534 -31.646  -6.353  1.00  0.00     0.016 C
HETATM   22  C6  UNL     1     -10.537 -33.080  -6.521  1.00  0.00     0.011 C
HETATM   23  C7  UNL     1     -11.146 -33.818  -5.406  1.00  0.00     0.074 C
HETATM   24  S1  UNL     1     -10.786 -32.707  -3.989  1.00  0.00    -0.164 SA
ENDBRANCH  19  20
ENDBRANCH  17  19
ENDBRANCH   3  16
TORSDOF 6
ENDMDL