MODEL 4
REMARK VINA RESULT: -8.535860728      2.667      8.682
REMARK  5 active torsions:
REMARK  status: ('A' for Active; 'I' for Inactive)
REMARK    1  A    between atoms: C2_3  and  C8_10
REMARK    2  A    between atoms: C3_4  and  C4_5
REMARK    3  A    between atoms: C8_10  and  C9_12
REMARK    4  A    between atoms: C10_13  and  C11_14
REMARK    5  A    between atoms: C14_17  and  N2_18
ROOT
HETATM    1  N1  UNL     1     -15.897 -28.379  -8.803  1.00  0.00    -0.191 NA
HETATM    2  C1  UNL     1     -16.075 -28.845  -9.859  1.00  0.00     0.103 C
HETATM    3  C2  UNL     1     -16.325 -29.434 -11.175  1.00  0.00     0.097 C
HETATM    4  C3  UNL     1     -16.739 -28.750 -12.142  1.00  0.00     0.064 C
ENDROOT
BRANCH   3   5
HETATM    5  C8  UNL     1     -15.995 -30.879 -11.290  1.00  0.00     0.192 C
HETATM    6  O2  UNL     1     -16.777 -31.744 -10.919  1.00  0.00    -0.287 OA
BRANCH   5   7
HETATM    7  C9  UNL     1     -14.699 -31.247 -11.873  1.00  0.00     0.057 C
HETATM    8  C10 UNL     1     -14.476 -31.559 -13.112  1.00  0.00     0.019 C
BRANCH   8   9
HETATM    9  C11 UNL     1     -13.115 -31.904 -13.532  1.00  0.00     0.008 A
HETATM   10  C12 UNL     1     -12.446 -32.987 -13.004  1.00  0.00     0.019 A
HETATM   11  C13 UNL     1     -11.120 -33.220 -13.349  1.00  0.00     0.056 A
HETATM   12  C14 UNL     1     -10.404 -32.419 -14.207  1.00  0.00     0.175 A
HETATM   13  N3  UNL     1     -11.082 -31.363 -14.717  1.00  0.00    -0.323 N
HETATM   14  C15 UNL     1     -12.378 -31.114 -14.397  1.00  0.00     0.110 A
ATOM     15  H3  UNL     1     -10.603 -30.735 -15.361  1.00  0.00     0.169 HD
HETATM   16  N4  UNL     1     -12.962 -30.088 -14.946  1.00  0.00    -0.385 N
ATOM     17  H42 UNL     1     -13.935 -29.901 -14.707  1.00  0.00     0.157 HD
ATOM     18  H41 UNL     1     -12.419 -29.507 -15.583  1.00  0.00     0.157 HD
BRANCH  12  19
HETATM   19  N2  UNL     1      -9.052 -32.730 -14.518  1.00  0.00    -0.098 N
HETATM   20  O3  UNL     1      -8.674 -32.587 -15.697  1.00  0.00    -0.531 OA
HETATM   21  O4  UNL     1      -8.156 -33.156 -13.586  1.00  0.00    -0.531 OA
ENDBRANCH  12  19
ENDBRANCH   8   9
ENDBRANCH   5   7
ENDBRANCH   3   5
BRANCH   4  22
HETATM   22  C4  UNL     1     -16.980 -27.322 -11.989  1.00  0.00     0.076 A
HETATM   23  C5  UNL     1     -18.225 -26.675 -12.126  1.00  0.00     0.039 A
HETATM   24  C6  UNL     1     -18.018 -25.349 -11.908  1.00  0.00     0.027 A
HETATM   25  C7  UNL     1     -16.676 -25.189 -11.641  1.00  0.00     0.142 A
HETATM   26  O1  UNL     1     -16.129 -26.367 -11.703  1.00  0.00    -0.323 OA
ENDBRANCH   4  22
TORSDOF 5
ENDMDL