MODEL 5
REMARK VINA RESULT: -7.424254686      1.676      1.991
REMARK  3 active torsions:
REMARK  status: ('A' for Active; 'I' for Inactive)
REMARK    1  A    between atoms: N1_5  and  C5_6
REMARK    2  A    between atoms: C5_6  and  C6_7
REMARK       I    between atoms: N2_14  and  C12_15
REMARK       I    between atoms: C12_15  and  N3_17
REMARK    3  A    between atoms: N3_17  and  C13_19
ROOT
HETATM    1  C6  UNL     1       9.948  -0.566  16.650  1.00  0.00     0.182 C
HETATM    2  O1  UNL     1       8.730  -0.046  16.998  1.00  0.00    -0.377 OA
HETATM    3  C7  UNL     1       8.182   0.633  15.943  1.00  0.00     0.194 C
HETATM    4  C8  UNL     1       7.953  -0.271  14.730  1.00  0.00     0.113 C
HETATM    5  C9  UNL     1       7.254  -1.546  15.175  1.00  0.00     0.030 C
HETATM    6  C10 UNL     1       8.362  -2.253  15.921  1.00  0.00     0.030 C
HETATM    7  C11 UNL     1       9.647  -1.574  15.525  1.00  0.00     0.123 C
HETATM    8  N2  UNL     1       9.245  -0.775  14.359  1.00  0.00    -0.320 N
HETATM    9  C12 UNL     1       9.971  -0.555  13.161  1.00  0.00     0.323 C
HETATM   10  O2  UNL     1      11.079  -1.119  13.088  1.00  0.00    -0.247 OA
HETATM   11  N3  UNL     1       9.439   0.251  12.152  1.00  0.00    -0.306 N
ATOM     12  H3  UNL     1       8.519   0.658  12.325  1.00  0.00     0.171 HD
ENDROOT
BRANCH   1  13
HETATM   13  C5  UNL     1      10.693  -1.304  17.690  1.00  0.00     0.097 C
BRANCH  13  14
HETATM   14  N1  UNL     1      11.387  -0.616  18.652  1.00  0.00    -0.371 N
HETATM   15  C4  UNL     1      12.377  -1.187  19.452  1.00  0.00     0.128 C
HETATM   16  C3  UNL     1      13.610  -0.348  19.067  1.00  0.00     0.029 C
HETATM   17  C2  UNL     1      13.022   0.982  18.613  1.00  0.00     0.022 C
HETATM   18  C1  UNL     1      13.377   1.248  17.165  1.00  0.00     0.015 C
HETATM   19  C18 UNL     1      11.512   0.774  18.669  1.00  0.00     0.067 C
ENDBRANCH  13  14
ENDBRANCH   1  13
BRANCH  11  20
HETATM   20  C13 UNL     1      10.049   0.558  10.916  1.00  0.00     0.073 A
HETATM   21  C14 UNL     1       9.732  -0.001   9.724  1.00  0.00     0.119 A
HETATM   22  N4  UNL     1      10.395   0.373   8.587  1.00  0.00    -0.373 N
HETATM   23  C15 UNL     1      11.366   1.287   8.590  1.00  0.00     0.089 A
ATOM     24  H4  UNL     1      10.136  -0.065   7.702  1.00  0.00     0.164 HD
HETATM   25  C16 UNL     1      11.745   1.903   9.777  1.00  0.00     0.043 A
HETATM   26  C17 UNL     1      11.076   1.524  10.917  1.00  0.00     0.063 A
HETATM   27 CL1  UNL     1      11.523   2.269  12.425  1.00  0.00    -0.082 Cl
ENDBRANCH  11  20
TORSDOF 3
ENDMDL