MODEL 2
REMARK VINA RESULT: -7.079896646      1.538      2.189
REMARK  5 active torsions:
REMARK  status: ('A' for Active; 'I' for Inactive)
REMARK    1  A    between atoms: C5_5  and  S1_6
REMARK    2  A    between atoms: S1_6  and  C6_7
REMARK    3  A    between atoms: C6_7  and  N1_9
REMARK    4  A    between atoms: N2_12  and  C9_13
REMARK    5  A    between atoms: C9_13  and  C10_14
ROOT
HETATM    1  N1  UNL     1       9.670   0.077  15.641  1.00  0.00    -0.360 N
HETATM    2  C7  UNL     1      10.317  -0.629  14.524  1.00  0.00     0.169 C
HETATM    3  C8  UNL     1       9.519  -0.483  13.266  1.00  0.00     0.083 C
HETATM    4  N2  UNL     1       9.228   0.853  12.929  1.00  0.00    -0.366 N
HETATM    5  C15 UNL     1       9.130   1.762  14.001  1.00  0.00     0.147 C
HETATM    6  C16 UNL     1       8.654   1.020  15.265  1.00  0.00     0.145 C
ENDROOT
BRANCH   4   7
HETATM    7  C9  UNL     1       8.947   1.183  11.630  1.00  0.00     0.100 C
BRANCH   7   8
HETATM    8  C10 UNL     1      10.092   1.537  10.778  1.00  0.00    -0.009 C
HETATM    9  C11 UNL     1      11.247   1.984  11.236  1.00  0.00     0.012 C
HETATM   10  C12 UNL     1      12.303   2.292  10.202  1.00  0.00     0.260 C
HETATM   11  N3  UNL     1      12.454   1.263   9.226  1.00  0.00    -0.069 N
HETATM   12  C13 UNL     1      11.220   0.787   8.679  1.00  0.00     0.274 C
ATOM     13  H32 UNL     1      13.081   1.568   8.480  1.00  0.00     0.277 HD
ATOM     14  H31 UNL     1      12.999   0.489   9.604  1.00  0.00     0.277 HD
HETATM   15  C14 UNL     1      10.008   1.414   9.275  1.00  0.00     0.229 C
HETATM   16  F1  UNL     1       8.927   0.568   9.019  1.00  0.00    -0.242 F
ENDBRANCH   7   8
ENDBRANCH   4   7
BRANCH   1  17
HETATM   17  C6  UNL     1      10.087  -0.195  16.965  1.00  0.00     0.137 C
HETATM   18  S2  UNL     1       9.597  -1.742  17.496  1.00  0.00    -0.053 SA
BRANCH  17  19
HETATM   19  S1  UNL     1      10.973   0.710  18.132  1.00  0.00    -0.096 SA
BRANCH  19  20
HETATM   20  C5  UNL     1      12.587   1.316  17.803  1.00  0.00     0.055 C
HETATM   21  C4  UNL     1      13.040   1.009  16.376  1.00  0.00     0.016 C
HETATM   22  C3  UNL     1      12.510   2.258  15.644  1.00  0.00     0.005 C
HETATM   23  C2  UNL     1      13.087   3.311  16.560  1.00  0.00    -0.017 C
HETATM   24  C1  UNL     1      12.526   4.692  16.273  1.00  0.00     0.010 C
HETATM   25  C17 UNL     1      12.672   2.837  17.919  1.00  0.00     0.019 C
ENDBRANCH  19  20
ENDBRANCH  17  19
ENDBRANCH   1  17
TORSDOF 5
ENDMDL