MODEL 3
REMARK VINA RESULT: -6.117627475      0.925      1.171
REMARK  3 active torsions:
REMARK  status: ('A' for Active; 'I' for Inactive)
REMARK       I    between atoms: C1_2  and  N1_3
REMARK    1  A    between atoms: C1_2  and  C7_14
REMARK    2  A    between atoms: N1_3  and  N2_5
REMARK    3  A    between atoms: C2_7  and  C3_8
ROOT
HETATM    1  O1  UNL     1      12.277   0.188  13.860  1.00  0.00    -0.271 OA
HETATM    2  C1  UNL     1      11.727   1.303  13.846  1.00  0.00     0.241 C
HETATM    3  N1  UNL     1      11.664   2.035  15.053  1.00  0.00    -0.270 N
ATOM      4  H1  UNL     1      11.212   2.949  15.043  1.00  0.00     0.190 HD
ENDROOT
BRANCH   2   5
HETATM    5  C7  UNL     1      11.150   1.855  12.598  1.00  0.00     0.096 C
HETATM    6  C8  UNL     1       9.870   2.576  12.882  1.00  0.00     0.090 C
HETATM    7  S2  UNL     1       8.614   1.298  12.608  1.00  0.00    -0.135 SA
HETATM    8  C9  UNL     1       9.729  -0.060  12.121  1.00  0.00     0.252 C
HETATM    9  N3  UNL     1       9.277  -0.730  10.923  1.00  0.00    -0.062 N
HETATM   10  C12 UNL     1      10.910   0.736  11.644  1.00  0.00     0.042 C
HETATM   11  C10 UNL     1       9.221   0.387   9.979  1.00  0.00     0.234 C
ATOM     12  H32 UNL     1       9.842  -1.527  10.627  1.00  0.00     0.278 HD
ATOM     13  H31 UNL     1       8.413  -1.265  11.020  1.00  0.00     0.278 HD
HETATM   14  C11 UNL     1      10.459   1.211  10.281  1.00  0.00     0.036 C
ENDBRANCH   2   5
BRANCH   3  15
HETATM   15  N2  UNL     1      12.187   1.570  16.251  1.00  0.00    -0.308 N
HETATM   16  C2  UNL     1      11.690   1.893  17.382  1.00  0.00     0.126 C
ATOM     17  H2  UNL     1      12.996   0.950  16.228  1.00  0.00     0.186 HD
BRANCH  16  18
HETATM   18  C3  UNL     1      12.242   1.404  18.647  1.00  0.00     0.023 A
HETATM   19  C4  UNL     1      11.920   1.780  19.923  1.00  0.00     0.022 A
HETATM   20  C5  UNL     1      12.577   1.172  20.919  1.00  0.00     0.028 A
HETATM   21  C6  UNL     1      13.513   0.232  20.588  1.00  0.00     0.052 A
HETATM   22 BR1  UNL     1      14.615  -0.805  21.782  1.00  0.00    -0.043 Br
HETATM   23  S1  UNL     1      13.448   0.220  18.882  1.00  0.00    -0.081 SA
ENDBRANCH  16  18
ENDBRANCH   3  15
TORSDOF 3
ENDMDL