MODEL 1
REMARK VINA RESULT: -7.381244112      0.000      0.000
REMARK  3 active torsions:
REMARK  status: ('A' for Active; 'I' for Inactive)
REMARK       I    between atoms: C1_2  and  N1_3
REMARK    1  A    between atoms: C1_2  and  C7_13
REMARK    2  A    between atoms: N1_3  and  C2_5
REMARK    3  A    between atoms: N3_15  and  C9_16
ROOT
HETATM    1  O1  UNL     1      12.214   0.248  14.070  1.00  0.00    -0.270 OA
HETATM    2  C1  UNL     1      11.741   1.328  14.475  1.00  0.00     0.253 C
HETATM    3  N1  UNL     1      10.868   2.087  13.698  1.00  0.00    -0.324 N
ATOM      4  H1  UNL     1      10.521   2.957  14.104  1.00  0.00     0.169 HD
ENDROOT
BRANCH   2   5
HETATM    5  C7  UNL     1      12.143   1.812  15.866  1.00  0.00     0.231 C
HETATM    6  C8  UNL     1      13.217   0.968  16.457  1.00  0.00     0.159 C
HETATM    7  N3  UNL     1      12.797   0.146  17.548  1.00  0.00    -0.403 N
HETATM    8  C14 UNL     1      11.421  -0.182  17.572  1.00  0.00     0.143 C
HETATM    9  C15 UNL     1      10.464   0.877  17.154  1.00  0.00     0.188 C
HETATM   10  O2  UNL     1      11.042   2.015  16.663  1.00  0.00    -0.373 OA
BRANCH   7  11
HETATM   11  C9  UNL     1      13.399   0.416  18.798  1.00  0.00     0.079 C
HETATM   12  C10 UNL     1      13.935  -0.769  19.540  1.00  0.00     0.025 C
HETATM   13  C11 UNL     1      13.828  -0.353  21.014  1.00  0.00     0.002 C
HETATM   14  C12 UNL     1      12.518   0.368  21.060  1.00  0.00     0.002 C
HETATM   15  C13 UNL     1      12.442   1.088  19.733  1.00  0.00     0.025 C
ENDBRANCH   7  11
ENDBRANCH   2   5
BRANCH   3  16
HETATM   16  C2  UNL     1      10.420   1.761  12.396  1.00  0.00     0.051 A
HETATM   17  C3  UNL     1       9.066   1.500  12.175  1.00  0.00     0.117 A
HETATM   18  N2  UNL     1       8.573   1.210  10.980  1.00  0.00    -0.372 N
HETATM   19  C4  UNL     1       9.359   1.152   9.901  1.00  0.00     0.106 A
ATOM     20  H2  UNL     1       7.574   1.028  10.882  1.00  0.00     0.164 HD
HETATM   21  C5  UNL     1      10.700   1.396  10.027  1.00  0.00     0.028 A
HETATM   22 BR1  UNL     1      11.849   1.323   8.518  1.00  0.00    -0.050 Br
HETATM   23  C6  UNL     1      11.219   1.701  11.291  1.00  0.00     0.051 A
ENDBRANCH   3  16
TORSDOF 3
ENDMDL