MODEL 5
REMARK VINA RESULT: -6.414404454      2.584      7.393
REMARK  4 active torsions:
REMARK  status: ('A' for Active; 'I' for Inactive)
REMARK    1  A    between atoms: C4_5  and  N2_6
REMARK       I    between atoms: N2_6  and  C5_8
REMARK    2  A    between atoms: C5_8  and  C6_10
REMARK    3  A    between atoms: C8_12  and  C9_13
REMARK    4  A    between atoms: N3_16  and  C12_17
ROOT
HETATM    1  C6  UNL     1      11.145   1.036  15.193  1.00  0.00     0.118 A
HETATM    2  C7  UNL     1      11.561   2.341  15.334  1.00  0.00     0.063 A
HETATM    3  C8  UNL     1      12.041   2.451  16.622  1.00  0.00     0.036 A
HETATM    4  N3  UNL     1      11.924   1.268  17.239  1.00  0.00    -0.287 N
HETATM    5  N4  UNL     1      11.386   0.452  16.351  1.00  0.00    -0.292 N
ATOM      6  H4  UNL     1      11.178  -0.528  16.541  1.00  0.00     0.187 HD
ENDROOT
BRANCH   1   7
HETATM    7  C5  UNL     1      10.569   0.505  13.968  1.00  0.00     0.270 C
HETATM    8  N2  UNL     1       9.489  -0.414  13.984  1.00  0.00    -0.349 N
ATOM      9  H2  UNL     1       9.109  -0.709  14.883  1.00  0.00     0.163 HD
HETATM   10  O1  UNL     1      11.019   0.853  12.838  1.00  0.00    -0.266 OA
BRANCH   8  11
HETATM   11  C4  UNL     1       8.908  -0.947  12.782  1.00  0.00     0.120 C
HETATM   12  C3  UNL     1       7.651  -1.780  13.062  1.00  0.00     0.064 C
HETATM   13  C2  UNL     1       7.955  -3.091  12.342  1.00  0.00     0.243 C
HETATM   14  N1  UNL     1       8.758  -2.593  11.226  1.00  0.00     0.097 N
HETATM   15  C18 UNL     1       8.965  -3.812  13.178  1.00  0.00     0.118 C
HETATM   16  C1  UNL     1       9.279  -3.608  10.385  1.00  0.00     0.311 C
HETATM   17  C16 UNL     1       9.781  -1.897  12.024  1.00  0.00     0.247 C
HETATM   18  C17 UNL     1      10.237  -2.991  12.919  1.00  0.00     0.060 C
HETATM   19 CL1  UNL     1       9.171  -5.504  12.759  1.00  0.00    -0.123 Cl
ENDBRANCH   8  11
ENDBRANCH   1   7
BRANCH   3  20
HETATM   20  C9  UNL     1      12.588   3.684  17.199  1.00  0.00     0.037 A
HETATM   21  C10 UNL     1      12.600   4.961  16.438  1.00  0.00     0.011 A
HETATM   22  C11 UNL     1      13.854   4.202  16.470  1.00  0.00     0.011 A
ENDBRANCH   3  20
BRANCH   4  23
HETATM   23  C12 UNL     1      12.277   0.880  18.562  1.00  0.00     0.043 C
HETATM   24  C13 UNL     1      13.722   0.409  18.572  1.00  0.00     0.039 C
HETATM   25  C14 UNL     1      11.473  -0.351  19.019  1.00  0.00     0.039 C
HETATM   26  C15 UNL     1      12.134   1.932  19.597  1.00  0.00     0.039 C
ENDBRANCH   4  23
TORSDOF 4
ENDMDL