MODEL 3
REMARK VINA RESULT: -7.339776513      1.114      1.119
REMARK  4 active torsions:
REMARK  status: ('A' for Active; 'I' for Inactive)
REMARK    1  A    between atoms: O1_1  and  C1_3
REMARK    2  A    between atoms: N1_6  and  C4_7
REMARK    3  A    between atoms: N2_10  and  C7_11
REMARK    4  A    between atoms: C7_11  and  C8_12
ROOT
HETATM    1  C7  UNL     1       9.285   2.573  15.941  1.00  0.00     0.192 C
HETATM    2  C13 UNL     1       9.369   4.080  16.067  1.00  0.00     0.073 C
HETATM    3  C14 UNL     1       8.379   4.624  17.098  1.00  0.00     0.170 C
HETATM    4  O2  UNL     1       7.063   4.223  16.815  1.00  0.00    -0.391 OA
HETATM    5  C15 UNL     1       7.053   2.835  17.089  1.00  0.00     0.170 C
HETATM    6  C16 UNL     1       7.820   2.202  15.962  1.00  0.00     0.073 C
ENDROOT
BRANCH   1   7
HETATM    7  N2  UNL     1       9.790   2.138  14.662  1.00  0.00     0.103 N
HETATM    8  C6  UNL     1      10.537   3.128  13.931  1.00  0.00     0.276 C
HETATM    9  C5  UNL     1      11.416   2.341  12.948  1.00  0.00     0.055 C
HETATM   10  C4  UNL     1      10.580   1.345  12.171  1.00  0.00     0.086 C
HETATM   11  C18 UNL     1       9.135   1.768  12.327  1.00  0.00     0.055 C
HETATM   12  C17 UNL     1       8.738   1.653  13.792  1.00  0.00     0.276 C
BRANCH  10  13
HETATM   13  N1  UNL     1      10.985   1.296  10.850  1.00  0.00    -0.386 N
HETATM   14  C3  UNL     1      12.041   2.104  10.374  1.00  0.00     0.125 C
HETATM   15  C2  UNL     1      12.282   1.564   8.952  1.00  0.00     0.057 C
HETATM   16  C1  UNL     1      10.872   1.243   8.535  1.00  0.00     0.157 C
HETATM   17  C19 UNL     1      10.172   0.856   9.809  1.00  0.00     0.090 C
BRANCH  16  18
HETATM   18  O1  UNL     1      10.871   0.196   7.612  1.00  0.00    -0.390 OA
ATOM     19  H1  UNL     1      10.820  -0.638   8.064  1.00  0.00     0.210 HD
ENDBRANCH  16  18
ENDBRANCH  10  13
ENDBRANCH   1   7
BRANCH   1  20
HETATM   20  C8  UNL     1      10.017   1.931  17.081  1.00  0.00    -0.004 A
HETATM   21  C9  UNL     1      11.044   2.511  17.767  1.00  0.00     0.014 A
HETATM   22  C10 UNL     1      11.702   1.874  18.802  1.00  0.00     0.043 A
HETATM   23  C11 UNL     1      11.303   0.587  19.163  1.00  0.00     0.103 A
HETATM   24 CL1  UNL     1      12.123  -0.254  20.485  1.00  0.00    -0.065 Cl
HETATM   25  N3  UNL     1      10.290   0.023  18.480  1.00  0.00    -0.356 N
HETATM   26  C12 UNL     1       9.650   0.652  17.468  1.00  0.00     0.099 A
ATOM     27  H3  UNL     1       9.991  -0.918  18.737  1.00  0.00     0.166 HD
ENDBRANCH   1  20
TORSDOF 4
ENDMDL