MODEL 1
REMARK VINA RESULT: -6.851832879      0.000      0.000
REMARK  6 active torsions:
REMARK  status: ('A' for Active; 'I' for Inactive)
REMARK    1  A    between atoms: O1_2  and  C2_3
REMARK    2  A    between atoms: C2_3  and  C3_4
REMARK    3  A    between atoms: C3_4  and  N1_5
REMARK    4  A    between atoms: N1_5  and  C4_7
REMARK    5  A    between atoms: C9_17  and  O2_18
REMARK    6  A    between atoms: C9_17  and  C10_20
ROOT
HETATM    1  C4  UNL     1       8.291  -0.907  13.120  1.00  0.00     0.132 A
HETATM    2  N2  UNL     1       7.164  -1.507  13.472  1.00  0.00    -0.331 N
ATOM      3  H2  UNL     1       7.006  -2.488  13.240  1.00  0.00     0.168 HD
HETATM    4  C5  UNL     1       6.229  -0.803  14.139  1.00  0.00     0.079 A
HETATM    5  C6  UNL     1       4.940  -1.448  14.553  1.00  0.00     0.089 C
HETATM    6  N3  UNL     1       6.360   0.491  14.480  1.00  0.00    -0.347 N
ATOM      7  H3  UNL     1       5.619   0.976  14.986  1.00  0.00     0.167 HD
HETATM    8  C7  UNL     1       7.501   1.133  14.133  1.00  0.00     0.042 A
HETATM    9  C8  UNL     1       8.482   0.424  13.440  1.00  0.00     0.105 A
HETATM   10  N4  UNL     1       9.656   1.131  13.069  1.00  0.00    -0.302 N
HETATM   11  C9  UNL     1      10.205   1.033  11.822  1.00  0.00     0.127 C
HETATM   12  C14 UNL     1      10.091   2.073  14.118  1.00  0.00     0.116 C
HETATM   13  C15 UNL     1      11.366   2.767  13.775  1.00  0.00     0.057 C
HETATM   14 CL1  UNL     1      10.228   1.319  15.690  1.00  0.00    -0.095 Cl
HETATM   15  C16 UNL     1       8.986   3.102  14.139  1.00  0.00     0.031 C
HETATM   16  C17 UNL     1       9.325   4.239  15.099  1.00  0.00     0.014 C
HETATM   17  C18 UNL     1       7.683   2.536  14.545  1.00  0.00     0.067 C
ENDROOT
BRANCH  11  18
HETATM   18  O2  UNL     1      11.517   1.008  11.806  1.00  0.00    -0.349 OA
ATOM     19  H2  UNL     1      11.901   1.005  10.936  1.00  0.00     0.219 HD
ENDBRANCH  11  18
BRANCH  11  20
HETATM   20  C10 UNL     1       9.646   0.976  10.475  1.00  0.00     0.014 C
HETATM   21  C11 UNL     1       9.949  -0.345   9.745  1.00  0.00     0.023 C
HETATM   22  C12 UNL     1      10.577   1.943   9.582  1.00  0.00     0.023 C
HETATM   23  C13 UNL     1       8.313   1.539  10.183  1.00  0.00     0.023 C
ENDBRANCH  11  20
BRANCH   1  24
HETATM   24  N1  UNL     1       9.289  -1.495  12.543  1.00  0.00    -0.372 N
ATOM     25  H1  UNL     1       9.546  -1.150  11.619  1.00  0.00     0.161 HD
BRANCH  24  26
HETATM   26  C3  UNL     1      10.065  -2.566  13.054  1.00  0.00     0.147 C
BRANCH  26  27
HETATM   27  C2  UNL     1       9.855  -3.875  12.355  1.00  0.00     0.186 C
BRANCH  27  28
HETATM   28  O1  UNL     1       9.668  -3.604  11.000  1.00  0.00    -0.394 OA
HETATM   29  C1  UNL     1       8.729  -4.471  10.432  1.00  0.00     0.201 C
ENDBRANCH  27  28
ENDBRANCH  26  27
ENDBRANCH  24  26
ENDBRANCH   1  24
TORSDOF 6
ENDMDL