MODEL 2
REMARK VINA RESULT: -6.435555490      3.201      6.641
REMARK  4 active torsions:
REMARK  status: ('A' for Active; 'I' for Inactive)
REMARK    1  A    between atoms: N2_5  and  C3_6
REMARK    2  A    between atoms: C3_6  and  C4_7
REMARK       I    between atoms: C4_7  and  N3_9
REMARK    3  A    between atoms: C8_13  and  N4_14
REMARK    4  A    between atoms: C9_18  and  C10_19
ROOT
HETATM    1  C4  UNL     1      10.765   1.007  14.670  1.00  0.00     0.240 C
HETATM    2  O1  UNL     1      11.182  -0.146  14.412  1.00  0.00    -0.271 OA
HETATM    3  N3  UNL     1      10.797   1.476  16.009  1.00  0.00    -0.344 N
HETATM    4  C5  UNL     1      10.342   2.784  16.419  1.00  0.00     0.126 C
HETATM    5  C6  UNL     1       9.159   2.559  17.336  1.00  0.00     0.022 C
HETATM    6  C7  UNL     1       9.728   1.884  18.585  1.00  0.00     0.036 C
HETATM    7  C8  UNL     1      10.292   0.537  18.192  1.00  0.00     0.206 C
HETATM    8  C9  UNL     1      11.317   0.625  17.118  1.00  0.00     0.121 C
ENDROOT
BRANCH   1   9
HETATM    9  C3  UNL     1      10.234   1.918  13.641  1.00  0.00     0.251 C
BRANCH   9  10
HETATM   10  N2  UNL     1      10.351   1.420  12.312  1.00  0.00    -0.286 N
HETATM   11  N1  UNL     1       9.655   0.426  11.797  1.00  0.00    -0.301 N
HETATM   12  C2  UNL     1      10.015   0.212  10.517  1.00  0.00     0.041 A
ATOM     13  H1  UNL     1       8.944  -0.106  12.297  1.00  0.00     0.187 HD
HETATM   14  C1  UNL     1       9.442  -0.834   9.612  1.00  0.00     0.071 C
HETATM   15  C15 UNL     1      10.995   1.140  10.244  1.00  0.00     0.058 A
HETATM   16  C13 UNL     1      11.195   1.890  11.376  1.00  0.00     0.044 A
HETATM   17 BR1  UNL     1      11.881   1.309   8.568  1.00  0.00    -0.047 Br
HETATM   18  C14 UNL     1      12.180   3.018  11.517  1.00  0.00     0.071 C
ENDBRANCH   9  10
ENDBRANCH   1   9
BRANCH   8  19
HETATM   19  C10 UNL     1      12.601   1.234  17.624  1.00  0.00     0.002 C
HETATM   20  C11 UNL     1      13.485   1.638  16.431  1.00  0.00     0.011 C
HETATM   21  C12 UNL     1      13.444   0.296  18.453  1.00  0.00     0.011 C
ENDBRANCH   8  19
BRANCH   7  22
HETATM   22  N4  UNL     1      10.796  -0.115  19.353  1.00  0.00    -0.073 N
ATOM     23  H43 UNL     1      10.614  -1.119  19.344  1.00  0.00     0.274 HD
ATOM     24  H42 UNL     1      11.816  -0.154  19.364  1.00  0.00     0.274 HD
ATOM     25  H41 UNL     1      10.418   0.340  20.183  1.00  0.00     0.274 HD
ENDBRANCH   7  22
TORSDOF 4
ENDMDL