MODEL 5
REMARK VINA RESULT: -6.128913392      3.030      5.140
REMARK  3 active torsions:
REMARK  status: ('A' for Active; 'I' for Inactive)
REMARK    1  A    between atoms: C4_7  and  C5_8
REMARK    2  A    between atoms: C5_8  and  N2_9
REMARK    3  A    between atoms: C11_16  and  N3_17
ROOT
HETATM    1  C1  UNL     1      10.742   3.973  14.938  1.00  0.00     0.070 C
HETATM    2  C2  UNL     1      10.664   3.019  13.774  1.00  0.00     0.033 A
HETATM    3  N1  UNL     1      11.526   3.032  12.723  1.00  0.00    -0.352 N
ATOM      4  H1  UNL     1      12.318   3.665  12.614  1.00  0.00     0.166 HD
HETATM    5  C3  UNL     1      11.167   2.080  11.856  1.00  0.00     0.090 A
HETATM    6 BR1  UNL     1      11.915   1.605  10.159  1.00  0.00    -0.031 Br
HETATM    7  C4  UNL     1      10.025   1.422  12.358  1.00  0.00     0.023 A
HETATM    8  C11 UNL     1       9.735   2.027  13.551  1.00  0.00     0.064 A
ENDROOT
BRANCH   7   9
HETATM    9  C5  UNL     1       9.256   0.381  11.687  1.00  0.00     0.175 C
BRANCH   9  10
HETATM   10  N2  UNL     1       9.879  -0.878  11.845  1.00  0.00    -0.345 N
HETATM   11  C6  UNL     1       9.350  -1.936  11.177  1.00  0.00    -0.071 C
HETATM   12  C7  UNL     1       8.938  -3.158  10.650  1.00  0.00     0.130 C
HETATM   13  C8  UNL     1       9.418  -4.257  11.659  1.00  0.00     0.180 C
HETATM   14  O1  UNL     1      10.393  -3.676  12.497  1.00  0.00    -0.389 OA
HETATM   15  C9  UNL     1      10.043  -2.798  13.435  1.00  0.00     0.188 C
HETATM   16  C10 UNL     1      10.259  -1.282  13.194  1.00  0.00     0.158 C
ENDBRANCH   9  10
ENDBRANCH   7   9
BRANCH   8  17
HETATM   17  N3  UNL     1       8.636   1.766  14.449  1.00  0.00    -0.369 N
HETATM   18  C12 UNL     1       7.293   2.208  14.376  1.00  0.00     0.134 C
HETATM   19  C13 UNL     1       6.350   1.042  14.540  1.00  0.00     0.095 C
HETATM   20  S1  UNL     1       7.302  -0.032  15.650  1.00  0.00    -0.148 SA
HETATM   21  C14 UNL     1       8.870   0.927  15.645  1.00  0.00     0.197 C
ENDBRANCH   8  17
TORSDOF 3
ENDMDL