MODEL 4
REMARK VINA RESULT: -6.959281227      3.549      8.428
REMARK  3 active torsions:
REMARK  status: ('A' for Active; 'I' for Inactive)
REMARK    1  A    between atoms: C2_2  and  C3_4
REMARK       I    between atoms: C3_4  and  N1_6
REMARK    2  A    between atoms: N1_6  and  C4_8
REMARK    3  A    between atoms: N3_16  and  C10_17
ROOT
HETATM    1  C4  UNL     1      11.599   1.777  13.400  1.00  0.00     0.051 A
HETATM    2  C5  UNL     1      11.346   3.059  13.908  1.00  0.00     0.117 A
HETATM    3  N2  UNL     1      11.535   3.388  15.198  1.00  0.00    -0.365 N
ATOM      4  H2  UNL     1      11.330   4.339  15.504  1.00  0.00     0.165 HD
HETATM    5  C6  UNL     1      11.988   2.496  16.091  1.00  0.00     0.045 A
HETATM    6  C7  UNL     1      12.248   1.230  15.632  1.00  0.00    -0.004 A
HETATM    7  C8  UNL     1      12.062   0.852  14.298  1.00  0.00     0.041 A
HETATM    8  C9  UNL     1      12.724   0.432  16.774  1.00  0.00     0.314 C
HETATM    9  N3  UNL     1      13.130   1.401  17.739  1.00  0.00     0.104 N
HETATM   10  C16 UNL     1      12.296   2.566  17.561  1.00  0.00     0.330 C
ENDROOT
BRANCH   1  11
HETATM   11  N1  UNL     1      11.374   1.544  12.018  1.00  0.00    -0.321 N
HETATM   12  C3  UNL     1      10.174   1.418  11.334  1.00  0.00     0.262 C
HETATM   13  O1  UNL     1       9.082   1.511  11.931  1.00  0.00    -0.267 OA
ATOM     14  H1  UNL     1      12.215   1.456  11.447  1.00  0.00     0.169 HD
BRANCH  12  15
HETATM   15  C2  UNL     1      10.124   1.174   9.903  1.00  0.00     0.069 C
HETATM   16  C1  UNL     1       9.366   0.242   9.334  1.00  0.00     0.037 C
HETATM   17 BR1  UNL     1      11.228   2.281   8.778  1.00  0.00    -0.046 Br
ENDBRANCH  12  15
ENDBRANCH   1  11
BRANCH   9  18
HETATM   18  C10 UNL     1      13.067   0.850  19.060  1.00  0.00     0.241 C
HETATM   19  C11 UNL     1      12.994  -0.635  19.130  1.00  0.00     0.039 C
HETATM   20  C12 UNL     1      11.706  -1.022  19.833  1.00  0.00     0.022 C
HETATM   21  C13 UNL     1      11.688  -0.432  21.212  1.00  0.00     0.116 C
HETATM   22  N4  UNL     1      11.907   0.980  21.177  1.00  0.00    -0.415 N
HETATM   23  C14 UNL     1      12.883   1.457  22.110  1.00  0.00     0.143 C
HETATM   24  C15 UNL     1      11.987   1.551  19.869  1.00  0.00     0.152 C
ENDBRANCH   9  18
TORSDOF 3
ENDMDL