MODEL 2
REMARK VINA RESULT: -8.468335704      1.805      3.138
REMARK  14 active torsions:
REMARK  status: ('A' for Active; 'I' for Inactive)
REMARK    1  A    between atoms: N1_1  and  C1_4
REMARK    2  A    between atoms: C2_6  and  C3_7
REMARK    3  A    between atoms: C3_7  and  N2_8
REMARK    4  A    between atoms: C3_7  and  C4_13
REMARK    5  A    between atoms: N2_8  and  N3_10
REMARK    6  A    between atoms: C5_14  and  O2_15
REMARK    7  A    between atoms: C6_17  and  S1_18
REMARK    8  A    between atoms: N4_23  and  C8_24
REMARK    9  A    between atoms: C8_24  and  C9_25
REMARK   10  A    between atoms: C9_25  and  N5_26
REMARK   11  A    between atoms: N5_26  and  C10_28
REMARK   12  A    between atoms: C15_39  and  C16_40
REMARK   13  A    between atoms: C16_40  and  O7_41
REMARK   14  A    between atoms: C17_46  and  N10_47
ROOT
HETATM    1  C3  UNL     1       6.464 -12.534  25.836  1.00  0.00     0.201 C
ENDROOT
BRANCH   1   2
HETATM    2  C2  UNL     1       5.856 -11.595  24.869  1.00  0.00     0.129 A
HETATM    3  O1  UNL     1       6.167 -11.363  23.628  1.00  0.00    -0.277 OA
HETATM    4  C1  UNL     1       5.349 -10.428  23.118  1.00  0.00     0.228 A
HETATM    5  N8  UNL     1       4.483 -10.037  24.046  1.00  0.00    -0.265 N
HETATM    6  C14 UNL     1       4.802 -10.776  25.163  1.00  0.00     0.144 A
HETATM    7  C15 UNL     1       3.390  -9.149  24.233  1.00  0.00     0.323 C
HETATM    8  N11 UNL     1       4.022 -10.534  26.350  1.00  0.00    -0.324 N
HETATM    9  C17 UNL     1       3.439  -9.220  26.631  1.00  0.00     0.486 C
ATOM     10  H11 UNL     1       3.873 -11.296  27.010  1.00  0.00     0.165 HD
HETATM   11  N9  UNL     1       3.432  -8.388  25.475  1.00  0.00    -0.005 N
ATOM     12  H92 UNL     1       4.223  -7.745  25.483  1.00  0.00     0.284 HD
ATOM     13  H91 UNL     1       2.669  -7.712  25.516  1.00  0.00     0.284 HD
BRANCH   4  14
HETATM   14  N1  UNL     1       5.452 -10.025  21.907  1.00  0.00    -0.365 N
ATOM     15  H12 UNL     1       6.287  -9.985  21.322  1.00  0.00     0.159 HD
ATOM     16  H11 UNL     1       4.647  -9.685  21.381  1.00  0.00     0.159 HD
ENDBRANCH   4  14
BRANCH   9  17
HETATM   17  N10 UNL     1       2.186  -9.313  27.320  1.00  0.00    -0.033 N
ATOM     18 3H10 UNL     1       1.632  -8.473  27.156  1.00  0.00     0.278 HD
ATOM     19 2H10 UNL     1       1.590 -10.010  26.873  1.00  0.00     0.278 HD
ATOM     20 1H10 UNL     1       2.255  -9.500  28.321  1.00  0.00     0.278 HD
ENDBRANCH   9  17
BRANCH   7  21
HETATM   21  C16 UNL     1       3.035  -8.225  23.132  1.00  0.00     0.219 C
BRANCH  21  22
HETATM   22  O7  UNL     1       4.003  -7.213  22.928  1.00  0.00    -0.397 OA
ATOM     23  H7  UNL     1       4.410  -7.259  22.071  1.00  0.00     0.209 HD
ENDBRANCH  21  22
ENDBRANCH   7  21
ENDBRANCH   1   2
BRANCH   1  24
HETATM   24  N2  UNL     1       7.737 -13.016  25.444  1.00  0.00    -0.327 N
ATOM     25  H2  UNL     1       8.587 -12.658  25.879  1.00  0.00     0.180 HD
BRANCH  24  26
HETATM   26  N3  UNL     1       7.800 -13.973  24.469  1.00  0.00    -0.348 N
ATOM     27  H32 UNL     1       6.953 -14.464  24.185  1.00  0.00     0.176 HD
ATOM     28  H31 UNL     1       8.705 -14.174  24.044  1.00  0.00     0.176 HD
ENDBRANCH  24  26
ENDBRANCH   1  24
BRANCH   1  29
HETATM   29  C4  UNL     1       6.562 -12.016  27.210  1.00  0.00     0.075 A
HETATM   30  C5  UNL     1       7.397 -10.944  27.458  1.00  0.00     0.105 A
HETATM   31  C6  UNL     1       7.527 -10.424  28.759  1.00  0.00     0.130 A
HETATM   32  C7  UNL     1       6.807 -11.006  29.766  1.00  0.00     0.123 A
HETATM   33  N4  UNL     1       5.989 -12.045  29.558  1.00  0.00    -0.321 N
HETATM   34  C13 UNL     1       5.888 -12.518  28.301  1.00  0.00     0.259 A
HETATM   35  O6  UNL     1       5.109 -13.492  28.150  1.00  0.00    -0.267 OA
BRANCH  30  36
HETATM   36  O2  UNL     1       8.151 -10.299  26.515  1.00  0.00    -0.358 OA
ATOM     37  H2  UNL     1       8.557  -9.448  26.630  1.00  0.00     0.217 HD
ENDBRANCH  30  36
BRANCH  31  38
HETATM   38  S1  UNL     1       8.583  -9.055  29.091  1.00  0.00     0.141 S
HETATM   39  O3  UNL     1       7.954  -7.837  28.506  1.00  0.00    -0.591 OA
HETATM   40  O4  UNL     1       9.961  -9.301  28.589  1.00  0.00    -0.591 OA
HETATM   41  O5  UNL     1       8.558  -8.855  30.779  1.00  0.00    -0.591 OA
ENDBRANCH  31  38
BRANCH  33  42
HETATM   42  C8  UNL     1       5.229 -12.667  30.632  1.00  0.00     0.151 C
BRANCH  42  43
HETATM   43  C9  UNL     1       6.065 -13.144  31.769  1.00  0.00     0.143 C
BRANCH  43  44
HETATM   44  N5  UNL     1       6.087 -14.549  31.995  1.00  0.00    -0.361 N
ATOM     45  H5  UNL     1       6.313 -14.899  32.926  1.00  0.00     0.162 HD
BRANCH  44  46
HETATM   46  C10 UNL     1       5.796 -15.492  30.941  1.00  0.00     0.171 C
HETATM   47  N6  UNL     1       6.542 -15.777  29.931  1.00  0.00    -0.361 N
HETATM   48  C11 UNL     1       5.913 -16.777  29.080  1.00  0.00     0.142 C
ATOM     49  H6  UNL     1       7.455 -15.358  29.752  1.00  0.00     0.162 HD
HETATM   50  C12 UNL     1       4.439 -16.695  29.504  1.00  0.00     0.142 C
HETATM   51  N7  UNL     1       4.606 -16.263  30.876  1.00  0.00    -0.361 N
ATOM     52  H7  UNL     1       3.981 -16.475  31.655  1.00  0.00     0.162 HD
ENDBRANCH  44  46
ENDBRANCH  43  44
ENDBRANCH  42  43
ENDBRANCH  33  42
ENDBRANCH   1  29
TORSDOF 14
ENDMDL