MODEL 3
REMARK VINA RESULT: -8.170450441      1.096      1.146
REMARK  20 active torsions:
REMARK  status: ('A' for Active; 'I' for Inactive)
REMARK    1  A    between atoms: C2_2  and  O1_3
REMARK    2  A    between atoms: C2_2  and  C17_41
REMARK    3  A    between atoms: O1_3  and  N1_4
REMARK    4  A    between atoms: C3_6  and  N2_7
REMARK    5  A    between atoms: C3_6  and  C5_11
REMARK    6  A    between atoms: C5_11  and  O2_12
REMARK    7  A    between atoms: N4_14  and  C6_16
REMARK    8  A    between atoms: C10_21  and  N6_22
REMARK    9  A    between atoms: N6_22  and  O3_23
REMARK   10  A    between atoms: N6_22  and  C11_25
REMARK   11  A    between atoms: C12_27  and  N7_28
REMARK   12  A    between atoms: C14_33  and  O5_34
REMARK   13  A    between atoms: C15_36  and  O6_37
REMARK   14  A    between atoms: C17_41  and  O7_42
REMARK   15  A    between atoms: C17_41  and  C18_44
REMARK   16  A    between atoms: C18_44  and  O8_45
REMARK   17  A    between atoms: C18_44  and  C19_47
REMARK   18  A    between atoms: C19_47  and  O9_48
REMARK   19  A    between atoms: C19_47  and  C20_50
REMARK   20  A    between atoms: C20_50  and  O10_51
ROOT
HETATM    1  N2  UNL     1       4.439 -11.379  24.764  1.00  0.00    -0.274 N
ATOM      2  H2  UNL     1       3.691 -11.971  24.404  1.00  0.00     0.180 HD
HETATM    3  C4  UNL     1       4.219 -10.502  25.837  1.00  0.00     0.183 C
HETATM    4  N3  UNL     1       4.044  -9.772  26.716  1.00  0.00    -0.172 NA
ENDROOT
BRANCH   1   5
HETATM    5  C3  UNL     1       5.717 -11.410  24.206  1.00  0.00     0.186 C
HETATM    6  N1  UNL     1       6.012 -10.497  23.315  1.00  0.00    -0.246 N
ATOM      7  H1  UNL     1       6.936 -10.485  22.883  1.00  0.00     0.196 HD
BRANCH   6   8
HETATM    8  O1  UNL     1       5.083  -9.560  22.964  1.00  0.00    -0.271 OA
BRANCH   8   9
HETATM    9  C2  UNL     1       4.491  -9.609  21.686  1.00  0.00     0.179 C
HETATM   10  C1  UNL     1       4.921 -10.842  20.959  1.00  0.00     0.045 C
BRANCH   9  11
HETATM   11  C17 UNL     1       2.993  -9.506  21.885  1.00  0.00     0.180 C
BRANCH  11  12
HETATM   12  O7  UNL     1       2.618 -10.515  22.776  1.00  0.00    -0.390 OA
ATOM     13  H7  UNL     1       2.764 -10.187  23.655  1.00  0.00     0.210 HD
ENDBRANCH  11  12
BRANCH  11  14
HETATM   14  C18 UNL     1       2.676  -8.146  22.421  1.00  0.00     0.180 C
BRANCH  14  15
HETATM   15  O8  UNL     1       3.792  -7.334  22.394  1.00  0.00    -0.390 OA
ATOM     16  H8  UNL     1       4.581  -7.846  22.264  1.00  0.00     0.210 HD
ENDBRANCH  14  15
BRANCH  14  17
HETATM   17  C19 UNL     1       2.155  -8.185  23.839  1.00  0.00     0.173 C
BRANCH  17  18
HETATM   18  O9  UNL     1       0.789  -8.477  23.862  1.00  0.00    -0.391 OA
ATOM     19  H9  UNL     1       0.451  -8.593  22.981  1.00  0.00     0.210 HD
ENDBRANCH  17  18
BRANCH  17  20
HETATM   20  C20 UNL     1       2.351  -6.884  24.560  1.00  0.00     0.198 C
BRANCH  20  21
HETATM   21  O10 UNL     1       3.439  -6.973  25.430  1.00  0.00    -0.398 OA
ATOM     22  H10 UNL     1       4.197  -6.541  25.053  1.00  0.00     0.209 HD
ENDBRANCH  20  21
ENDBRANCH  17  20
ENDBRANCH  14  17
ENDBRANCH  11  14
ENDBRANCH   9  11
ENDBRANCH   8   9
ENDBRANCH   6   8
BRANCH   5  23
HETATM   23  C5  UNL     1       6.711 -12.383  24.557  1.00  0.00     0.188 C
HETATM   24  N4  UNL     1       7.293 -12.475  25.635  1.00  0.00    -0.331 N
ATOM     25  H4  UNL     1       7.957 -13.250  25.639  1.00  0.00     0.168 HD
BRANCH  23  26
HETATM   26  O2  UNL     1       7.096 -13.369  23.579  1.00  0.00    -0.343 OA
ATOM     27  H2  UNL     1       6.757 -14.252  23.661  1.00  0.00     0.219 HD
ENDBRANCH  23  26
BRANCH  24  28
HETATM   28  C6  UNL     1       7.286 -11.796  26.860  1.00  0.00     0.077 A
HETATM   29  C7  UNL     1       6.850 -12.367  27.967  1.00  0.00     0.122 A
HETATM   30  N5  UNL     1       6.820 -11.711  29.256  1.00  0.00    -0.355 N
HETATM   31  C8  UNL     1       6.315 -12.452  30.400  1.00  0.00     0.156 C
HETATM   32  C9  UNL     1       7.268 -10.389  29.395  1.00  0.00     0.087 A
HETATM   33  C10 UNL     1       7.297  -9.694  30.495  1.00  0.00     0.152 C
HETATM   34  C15 UNL     1       7.756  -9.761  28.132  1.00  0.00     0.120 A
HETATM   35  C16 UNL     1       7.752 -10.422  27.000  1.00  0.00     0.110 A
HETATM   36  N8  UNL     1       8.230  -9.739  25.845  1.00  0.00    -0.097 NA
BRANCH  33  37
HETATM   37  N6  UNL     1       6.933  -9.968  31.815  1.00  0.00    -0.237 N
BRANCH  37  38
HETATM   38  O3  UNL     1       5.661 -10.175  32.162  1.00  0.00    -0.285 OA
ATOM     39  H3  UNL     1       5.403 -10.926  32.684  1.00  0.00     0.245 HD
ENDBRANCH  37  38
BRANCH  37  40
HETATM   40  C11 UNL     1       7.951 -10.090  32.871  1.00  0.00     0.280 C
HETATM   41  O4  UNL     1       7.417 -10.466  34.074  1.00  0.00    -0.329 OA
HETATM   42  C12 UNL     1       7.348  -9.389  34.911  1.00  0.00     0.323 C
HETATM   43  C13 UNL     1       8.103  -8.248  34.310  1.00  0.00     0.097 C
HETATM   44  C14 UNL     1       8.716  -8.819  33.049  1.00  0.00     0.173 C
BRANCH  42  45
HETATM   45  N7  UNL     1       7.967  -9.687  36.202  1.00  0.00    -0.053 N
ATOM     46  H73 UNL     1       8.353 -10.631  36.225  1.00  0.00     0.277 HD
ATOM     47  H72 UNL     1       8.832  -9.164  36.334  1.00  0.00     0.277 HD
ATOM     48  H71 UNL     1       7.311  -9.530  36.967  1.00  0.00     0.277 HD
ENDBRANCH  42  45
BRANCH  44  49
HETATM   49  O5  UNL     1      10.048  -9.112  33.336  1.00  0.00    -0.391 OA
ATOM     50  H5  UNL     1      10.593  -8.369  33.109  1.00  0.00     0.210 HD
ENDBRANCH  44  49
ENDBRANCH  37  40
ENDBRANCH  33  37
BRANCH  34  51
HETATM   51  O6  UNL     1       8.212  -8.447  28.216  1.00  0.00    -0.357 OA
ATOM     52  H6  UNL     1       8.129  -7.911  27.435  1.00  0.00     0.218 HD
ENDBRANCH  34  51
ENDBRANCH  24  28
ENDBRANCH   5  23
ENDBRANCH   1   5
TORSDOF 20
ENDMDL