MODEL 2
REMARK VINA RESULT: -8.738103418      1.306      1.478
REMARK  17 active torsions:
REMARK  status: ('A' for Active; 'I' for Inactive)
REMARK    1  A    between atoms: C3_3  and  O1_4
REMARK    2  A    between atoms: C4_6  and  O2_7
REMARK    3  A    between atoms: C5_9  and  O3_10
REMARK    4  A    between atoms: C6_12  and  C7_13
REMARK    5  A    between atoms: C7_13  and  O4_14
REMARK    6  A    between atoms: C7_13  and  C8_16
REMARK    7  A    between atoms: C9_18  and  O6_19
REMARK    8  A    between atoms: C10_21  and  S1_22
REMARK    9  A    between atoms: S1_22  and  C11_23
REMARK   10  A    between atoms: N1_24  and  C12_26
REMARK   11  A    between atoms: C12_26  and  C13_27
REMARK   12  A    between atoms: C13_27  and  O7_28
REMARK   13  A    between atoms: C14_31  and  O9_32
REMARK   14  A    between atoms: C15_35  and  C16_36
REMARK   15  A    between atoms: C16_36  and  O11_37
REMARK   16  A    between atoms: N2_40  and  O12_42
REMARK   17  A    between atoms: C19_45  and  O13_46
ROOT
HETATM    1  C1  UNL     1       4.533  -7.869  20.997  1.00  0.00     0.016 C
HETATM    2  C2  UNL     1       3.775  -8.255  22.293  1.00  0.00     0.053 C
HETATM    3  C3  UNL     1       2.577  -8.993  21.795  1.00  0.00     0.156 C
HETATM    4  C4  UNL     1       1.773  -9.664  22.849  1.00  0.00     0.176 C
HETATM    5  C5  UNL     1       2.080  -9.148  24.243  1.00  0.00     0.161 C
HETATM    6  C6  UNL     1       3.168  -9.899  24.913  1.00  0.00     0.116 C
HETATM    7  C14 UNL     1       4.513  -9.308  24.486  1.00  0.00     0.203 C
HETATM    8  O10 UNL     1       5.590  -9.868  25.122  1.00  0.00    -0.339 OA
HETATM    9  C15 UNL     1       6.221 -10.927  24.534  1.00  0.00     0.196 C
HETATM   10  C17 UNL     1       5.716 -11.323  23.237  1.00  0.00     0.044 C
HETATM   11  N2  UNL     1       5.873 -12.515  22.775  1.00  0.00    -0.275 N
ATOM     12  H2  UNL     1       5.480 -12.686  21.850  1.00  0.00     0.193 HD
HETATM   13  C18 UNL     1       4.955 -10.416  22.338  1.00  0.00     0.101 C
HETATM   14  C19 UNL     1       4.734  -9.140  23.051  1.00  0.00     0.125 C
ENDROOT
BRANCH   6  15
HETATM   15  C7  UNL     1       3.124  -9.824  26.412  1.00  0.00     0.185 C
BRANCH  15  16
HETATM   16  O4  UNL     1       2.525  -8.597  26.813  1.00  0.00    -0.390 OA
ATOM     17  H4  UNL     1       3.202  -7.968  27.031  1.00  0.00     0.210 HD
ENDBRANCH  15  16
BRANCH  15  18
HETATM   18  C8  UNL     1       4.490  -9.730  27.090  1.00  0.00     0.294 C
HETATM   19  O5  UNL     1       4.533  -8.628  27.938  1.00  0.00    -0.326 OA
HETATM   20  C9  UNL     1       5.180  -9.053  29.094  1.00  0.00     0.299 C
HETATM   21  C10 UNL     1       4.739 -10.481  29.156  1.00  0.00     0.246 C
HETATM   22  O8  UNL     1       4.722 -10.867  27.850  1.00  0.00    -0.338 OA
BRANCH  20  23
HETATM   23  O6  UNL     1       4.885  -8.312  30.211  1.00  0.00    -0.368 OA
ATOM     24  H6  UNL     1       4.896  -8.807  31.022  1.00  0.00     0.212 HD
ENDBRANCH  20  23
BRANCH  21  25
HETATM   25  S1  UNL     1       5.849 -11.493  30.176  1.00  0.00    -0.088 SA
BRANCH  25  26
HETATM   26  C11 UNL     1       5.603 -11.204  31.906  1.00  0.00     0.131 C
HETATM   27  N1  UNL     1       6.393 -10.419  32.524  1.00  0.00    -0.392 N
ATOM     28  H1  UNL     1       6.253 -10.252  33.520  1.00  0.00     0.159 HD
BRANCH  27  29
HETATM   29  C12 UNL     1       7.460  -9.775  31.856  1.00  0.00     0.145 C
BRANCH  29  30
HETATM   30  C13 UNL     1       7.767  -8.400  32.456  1.00  0.00     0.183 C
BRANCH  30  31
HETATM   31  O7  UNL     1       7.419  -7.466  31.494  1.00  0.00    -0.399 OA
ATOM     32  H7  UNL     1       7.008  -7.949  30.787  1.00  0.00     0.209 HD
ENDBRANCH  30  31
ENDBRANCH  29  30
ENDBRANCH  27  29
ENDBRANCH  25  26
ENDBRANCH  21  25
ENDBRANCH  15  18
ENDBRANCH   6  15
BRANCH   5  33
HETATM   33  O3  UNL     1       0.863  -9.050  24.871  1.00  0.00    -0.392 OA
ATOM     34  H3  UNL     1       1.033  -8.578  25.678  1.00  0.00     0.210 HD
ENDBRANCH   5  33
BRANCH   7  35
HETATM   35  O9  UNL     1       4.446  -7.982  25.018  1.00  0.00    -0.362 OA
ATOM     36  H9  UNL     1       4.978  -7.490  24.404  1.00  0.00     0.213 HD
ENDBRANCH   7  35
BRANCH   4  37
HETATM   37  O2  UNL     1       0.426  -9.397  22.554  1.00  0.00    -0.390 OA
ATOM     38  H2  UNL     1       0.162  -8.683  23.122  1.00  0.00     0.210 HD
ENDBRANCH   4  37
BRANCH  14  39
HETATM   39  O13 UNL     1       5.988  -8.441  22.947  1.00  0.00    -0.383 OA
ATOM     40  H13 UNL     1       6.428  -8.656  23.761  1.00  0.00     0.210 HD
ENDBRANCH  14  39
BRANCH   3  41
HETATM   41  O1  UNL     1       1.804  -8.029  21.088  1.00  0.00    -0.392 OA
ATOM     42  H1  UNL     1       1.199  -8.531  20.556  1.00  0.00     0.210 HD
ENDBRANCH   3  41
BRANCH   9  43
HETATM   43  C16 UNL     1       7.705 -10.708  24.657  1.00  0.00     0.202 C
BRANCH  43  44
HETATM   44  O11 UNL     1       8.471 -11.860  24.557  1.00  0.00    -0.398 OA
ATOM     45  H11 UNL     1       8.458 -12.414  25.330  1.00  0.00     0.209 HD
ENDBRANCH  43  44
ENDBRANCH   9  43
BRANCH  11  46
HETATM   46  O12 UNL     1       6.486 -13.561  23.351  1.00  0.00    -0.290 OA
ATOM     47  H12 UNL     1       6.508 -13.801  24.270  1.00  0.00     0.244 HD
ENDBRANCH  11  46
TORSDOF 17
ENDMDL