MODEL 1
REMARK VINA RESULT: -9.778619861      0.000      0.000
REMARK  13 active torsions:
REMARK  status: ('A' for Active; 'I' for Inactive)
REMARK    1  A    between atoms: C3_4  and  C4_5
REMARK    2  A    between atoms: C6_9  and  O1_10
REMARK    3  A    between atoms: N4_16  and  C9_17
REMARK    4  A    between atoms: C9_17  and  O2_18
REMARK    5  A    between atoms: O2_18  and  C10_19
REMARK    6  A    between atoms: C10_19  and  O3_20
REMARK    7  A    between atoms: C10_19  and  C11_22
REMARK    8  A    between atoms: C11_22  and  O4_23
REMARK    9  A    between atoms: C11_22  and  C12_25
REMARK   10  A    between atoms: C12_25  and  O5_26
REMARK   11  A    between atoms: C12_25  and  N5_28
REMARK       I    between atoms: N5_28  and  C13_30
REMARK       I    between atoms: C13_30  and  N6_32
REMARK   12  A    between atoms: N9_41  and  N10_42
REMARK   13  A    between atoms: C18_49  and  N12_50
ROOT
HETATM    1  C9  UNL     1       7.892  -9.385  26.841  1.00  0.00     0.303 C
ENDROOT
BRANCH   1   2
HETATM    2  N4  UNL     1       7.945 -10.588  26.049  1.00  0.00    -0.317 N
HETATM    3  C8  UNL     1       8.833 -11.581  26.305  1.00  0.00     0.186 A
HETATM    4  N3  UNL     1       8.632 -12.602  25.454  1.00  0.00    -0.348 N
HETATM    5  C7  UNL     1       7.615 -12.290  24.634  1.00  0.00     0.098 A
ATOM      6  H3  UNL     1       9.165 -13.472  25.435  1.00  0.00     0.167 HD
HETATM    7  C6  UNL     1       6.809 -12.738  23.503  1.00  0.00     0.124 A
HETATM    8  C16 UNL     1       7.214 -11.034  25.032  1.00  0.00     0.096 A
HETATM    9  C5  UNL     1       5.934 -11.764  23.220  1.00  0.00     0.099 A
HETATM   10  N2  UNL     1       4.885 -11.363  22.379  1.00  0.00    -0.337 N
HETATM   11  C17 UNL     1       6.128 -10.650  24.149  1.00  0.00     0.093 A
HETATM   12  C4  UNL     1       4.508 -10.167  22.757  1.00  0.00     0.122 A
ATOM     13  H2  UNL     1       4.488 -11.904  21.611  1.00  0.00     0.167 HD
HETATM   14  N11 UNL     1       5.293  -9.742  23.861  1.00  0.00    -0.338 N
ATOM     15  H11 UNL     1       5.200  -8.849  24.344  1.00  0.00     0.167 HD
BRANCH   7  16
HETATM   16  O1  UNL     1       6.890 -13.933  22.810  1.00  0.00    -0.356 OA
ATOM     17  H1  UNL     1       7.702 -14.392  22.632  1.00  0.00     0.218 HD
ENDBRANCH   7  16
BRANCH  12  18
HETATM   18  C3  UNL     1       3.428  -9.474  22.068  1.00  0.00     0.070 A
HETATM   19  C2  UNL     1       2.057  -9.645  22.263  1.00  0.00     0.128 A
HETATM   20  N1  UNL     1       1.392  -8.822  21.430  1.00  0.00    -0.305 N
HETATM   21  C1  UNL     1      -0.053  -8.651  21.277  1.00  0.00     0.177 C
HETATM   22  N13 UNL     1       2.275  -8.138  20.716  1.00  0.00    -0.284 N
HETATM   23  C18 UNL     1       3.535  -8.519  21.086  1.00  0.00     0.129 A
ATOM     24  H13 UNL     1       2.050  -7.441  20.006  1.00  0.00     0.188 HD
BRANCH  23  25
HETATM   25  N12 UNL     1       4.602  -8.037  20.574  1.00  0.00    -0.384 N
ATOM     26 2H12 UNL     1       5.341  -8.607  20.163  1.00  0.00     0.157 HD
ATOM     27 1H12 UNL     1       4.873  -7.056  20.500  1.00  0.00     0.157 HD
ENDBRANCH  23  25
ENDBRANCH  12  18
ENDBRANCH   1   2
BRANCH   1  28
HETATM   28  O2  UNL     1       7.554  -9.741  28.154  1.00  0.00    -0.339 OA
BRANCH  28  29
HETATM   29  C10 UNL     1       8.223  -8.979  29.076  1.00  0.00     0.291 C
BRANCH  29  30
HETATM   30  O3  UNL     1       9.648  -9.326  28.811  1.00  0.00    -0.368 OA
ATOM     31  H3  UNL     1      10.071  -9.109  29.634  1.00  0.00     0.212 HD
ENDBRANCH  29  30
BRANCH  29  32
HETATM   32  C11 UNL     1       8.003  -9.195  30.505  1.00  0.00     0.221 C
BRANCH  32  33
HETATM   33  O4  UNL     1       7.222 -10.372  30.745  1.00  0.00    -0.386 OA
ATOM     34  H4  UNL     1       7.238 -10.959  29.998  1.00  0.00     0.210 HD
ENDBRANCH  32  33
BRANCH  32  35
HETATM   35  C12 UNL     1       7.338  -8.135  31.310  1.00  0.00     0.255 C
BRANCH  35  36
HETATM   36  O5  UNL     1       7.403  -6.939  30.534  1.00  0.00    -0.374 OA
ATOM     37  H5  UNL     1       6.641  -6.944  29.966  1.00  0.00     0.212 HD
ENDBRANCH  35  36
BRANCH  35  38
HETATM   38  N5  UNL     1       8.041  -7.785  32.539  1.00  0.00    -0.312 N
HETATM   39  C13 UNL     1       7.654  -8.373  33.749  1.00  0.00     0.360 C
HETATM   40  O6  UNL     1       6.679  -9.205  33.682  1.00  0.00    -0.244 OA
HETATM   41  N6  UNL     1       8.212  -8.148  35.015  1.00  0.00    -0.006 N
HETATM   42  C14 UNL     1       7.813  -8.682  36.206  1.00  0.00     0.707 A
HETATM   43  N9  UNL     1       9.250  -7.386  35.318  1.00  0.00    -0.122 N
HETATM   44  N7  UNL     1       6.852  -9.458  36.420  1.00  0.00    -0.232 N
HETATM   45  N8  UNL     1       8.613  -8.236  37.198  1.00  0.00    -0.137 N
ATOM     46  H72 UNL     1       6.248  -9.795  35.670  1.00  0.00     0.174 HD
ATOM     47  H71 UNL     1       6.554  -9.857  37.310  1.00  0.00     0.174 HD
HETATM   48  C15 UNL     1       9.511  -7.428  36.655  1.00  0.00     0.375 A
ATOM     49  H8  UNL     1       8.539  -8.478  38.186  1.00  0.00     0.189 HD
HETATM   50  O7  UNL     1      10.446  -6.799  37.244  1.00  0.00    -0.243 OA
ATOM     51  H5  UNL     1       8.810  -7.115  32.516  1.00  0.00     0.167 HD
BRANCH  43  52
HETATM   52  N10 UNL     1      10.044  -6.607  34.472  1.00  0.00    -0.319 N
ATOM     53 2H10 UNL     1      10.174  -6.879  33.497  1.00  0.00     0.179 HD
ATOM     54 1H10 UNL     1      10.551  -5.747  34.681  1.00  0.00     0.179 HD
ENDBRANCH  43  52
ENDBRANCH  35  38
ENDBRANCH  32  35
ENDBRANCH  29  32
ENDBRANCH  28  29
ENDBRANCH   1  28
TORSDOF 13
ENDMDL