MODEL 1
REMARK VINA RESULT: -8.621363094      0.000      0.000
REMARK  19 active torsions:
REMARK  status: ('A' for Active; 'I' for Inactive)
REMARK    1  A    between atoms: C2_2  and  C10_25
REMARK    2  A    between atoms: N1_3  and  O1_5
REMARK    3  A    between atoms: O1_5  and  C3_6
REMARK    4  A    between atoms: C4_7  and  N2_8
REMARK    5  A    between atoms: C6_13  and  O2_14
REMARK    6  A    between atoms: C7_16  and  C8_17
REMARK    7  A    between atoms: C8_17  and  N3_18
REMARK    8  A    between atoms: C9_22  and  O3_23
REMARK    9  A    between atoms: C10_25  and  O4_26
REMARK   10  A    between atoms: C10_25  and  N4_28
REMARK   11  A    between atoms: N4_28  and  C11_30
REMARK   12  A    between atoms: C11_30  and  O5_31
REMARK   13  A    between atoms: C11_30  and  O6_33
REMARK   14  A    between atoms: O6_33  and  C12_34
REMARK   15  A    between atoms: C15_40  and  C16_41
REMARK   16  A    between atoms: C16_41  and  O7_42
REMARK   17  A    between atoms: C17_44  and  O8_45
REMARK   18  A    between atoms: C18_47  and  O9_48
REMARK   19  A    between atoms: C19_50  and  O10_51
ROOT
HETATM    1  C12 UNL     1       7.409  -9.453  30.056  1.00  0.00     0.204 C
HETATM    2  C13 UNL     1       6.147  -8.687  30.109  1.00  0.00     0.037 C
HETATM    3  N5  UNL     1       5.129  -8.862  29.373  1.00  0.00    -0.298 N
ATOM      4  H5  UNL     1       4.321  -8.257  29.519  1.00  0.00     0.177 HD
HETATM    5  C14 UNL     1       5.050  -9.826  28.383  1.00  0.00     0.181 C
HETATM    6  N6  UNL     1       4.961 -10.630  27.546  1.00  0.00    -0.172 NA
HETATM    7  C15 UNL     1       6.086  -7.598  31.150  1.00  0.00     0.089 C
HETATM    8  C17 UNL     1       6.426  -8.257  32.461  1.00  0.00     0.161 C
HETATM    9  C18 UNL     1       6.501  -9.760  32.375  1.00  0.00     0.179 C
HETATM   10  C19 UNL     1       7.462 -10.263  31.341  1.00  0.00     0.184 C
ENDROOT
BRANCH   1  11
HETATM   11  O6  UNL     1       7.564 -10.224  28.937  1.00  0.00    -0.331 OA
BRANCH  11  12
HETATM   12  C11 UNL     1       8.558  -9.630  28.121  1.00  0.00     0.366 C
BRANCH  12  13
HETATM   13  N4  UNL     1       8.256 -10.014  26.789  1.00  0.00    -0.345 N
ATOM     14  H4  UNL     1       7.922  -9.327  26.113  1.00  0.00     0.161 HD
BRANCH  13  15
HETATM   15  C10 UNL     1       8.425 -11.370  26.416  1.00  0.00     0.265 C
BRANCH  15  16
HETATM   16  C2  UNL     1       7.610 -11.819  25.245  1.00  0.00     0.054 C
HETATM   17  C1  UNL     1       7.715 -13.162  24.650  1.00  0.00     0.070 C
HETATM   18  N1  UNL     1       6.788 -10.992  24.758  1.00  0.00    -0.270 N
ATOM     19  H1  UNL     1       6.804 -10.099  25.251  1.00  0.00     0.194 HD
BRANCH  18  20
HETATM   20  O1  UNL     1       5.915 -10.999  23.772  1.00  0.00    -0.270 OA
BRANCH  20  21
HETATM   21  C3  UNL     1       5.666  -9.995  22.841  1.00  0.00     0.211 C
HETATM   22  C4  UNL     1       4.458 -10.265  21.986  1.00  0.00     0.219 C
HETATM   23  C5  UNL     1       3.407 -10.811  22.931  1.00  0.00     0.067 C
HETATM   24  C6  UNL     1       3.135  -9.901  24.083  1.00  0.00     0.128 C
HETATM   25  C7  UNL     1       3.980  -8.701  24.219  1.00  0.00     0.071 C
HETATM   26  C9  UNL     1       5.318  -8.700  23.593  1.00  0.00     0.159 C
BRANCH  22  27
HETATM   27  N2  UNL     1       4.655 -11.206  20.929  1.00  0.00    -0.072 N
ATOM     28  H23 UNL     1       4.244 -10.853  20.065  1.00  0.00     0.274 HD
ATOM     29  H22 UNL     1       5.639 -11.231  20.662  1.00  0.00     0.274 HD
ATOM     30  H21 UNL     1       4.318 -12.150  21.117  1.00  0.00     0.274 HD
ENDBRANCH  22  27
BRANCH  24  31
HETATM   31  O2  UNL     1       3.108 -10.655  25.282  1.00  0.00    -0.395 OA
ATOM     32  H2  UNL     1       3.267 -10.079  26.021  1.00  0.00     0.210 HD
ENDBRANCH  24  31
BRANCH  25  33
HETATM   33  C8  UNL     1       3.199  -7.438  23.819  1.00  0.00     0.239 C
BRANCH  33  34
HETATM   34  N3  UNL     1       3.066  -6.556  24.962  1.00  0.00    -0.079 N
ATOM     35  H33 UNL     1       2.527  -6.984  25.716  1.00  0.00     0.274 HD
ATOM     36  H32 UNL     1       3.948  -6.437  25.459  1.00  0.00     0.274 HD
ATOM     37  H31 UNL     1       2.669  -5.662  24.669  1.00  0.00     0.274 HD
ENDBRANCH  33  34
ENDBRANCH  25  33
BRANCH  26  38
HETATM   38  O3  UNL     1       6.370  -8.484  24.488  1.00  0.00    -0.392 OA
ATOM     39  H3  UNL     1       5.969  -8.402  25.346  1.00  0.00     0.210 HD
ENDBRANCH  26  38
ENDBRANCH  20  21
ENDBRANCH  18  20
ENDBRANCH  15  16
BRANCH  15  40
HETATM   40  O4  UNL     1       9.779 -11.505  26.027  1.00  0.00    -0.372 OA
ATOM     41  H4  UNL     1      10.024 -10.676  25.631  1.00  0.00     0.212 HD
ENDBRANCH  15  40
ENDBRANCH  13  15
ENDBRANCH  12  13
BRANCH  12  42
HETATM   42  O5  UNL     1       8.542  -8.241  28.307  1.00  0.00    -0.355 OA
ATOM     43  H5  UNL     1       8.720  -7.985  29.205  1.00  0.00     0.214 HD
ENDBRANCH  12  42
ENDBRANCH  11  12
ENDBRANCH   1  11
BRANCH   7  44
HETATM   44  C16 UNL     1       4.739  -6.944  31.157  1.00  0.00     0.177 C
BRANCH  44  45
HETATM   45  O7  UNL     1       4.941  -5.582  31.443  1.00  0.00    -0.400 OA
ATOM     46  H7  UNL     1       4.105  -5.147  31.332  1.00  0.00     0.209 HD
ENDBRANCH  44  45
ENDBRANCH   7  44
BRANCH  10  47
HETATM   47  O10 UNL     1       7.164 -11.597  31.062  1.00  0.00    -0.390 OA
ATOM     48  H10 UNL     1       6.583 -11.938  31.732  1.00  0.00     0.210 HD
ENDBRANCH  10  47
BRANCH   8  49
HETATM   49  O8  UNL     1       5.363  -7.968  33.345  1.00  0.00    -0.392 OA
ATOM     50  H8  UNL     1       5.426  -8.593  34.058  1.00  0.00     0.210 HD
ENDBRANCH   8  49
BRANCH   9  51
HETATM   51  O9  UNL     1       6.999 -10.196  33.625  1.00  0.00    -0.390 OA
ATOM     52  H9  UNL     1       7.181 -11.123  33.524  1.00  0.00     0.210 HD
ENDBRANCH   9  51
TORSDOF 19
ENDMDL