MODEL 4
REMARK VINA RESULT: -7.454484905      1.996      6.919
REMARK  17 active torsions:
REMARK  status: ('A' for Active; 'I' for Inactive)
REMARK    1  A    between atoms: C2_2  and  O1_3
REMARK    2  A    between atoms: C6_8  and  O2_9
REMARK    3  A    between atoms: O2_9  and  C7_10
REMARK    4  A    between atoms: C8_12  and  C9_13
REMARK    5  A    between atoms: N1_14  and  O4_16
REMARK    6  A    between atoms: C10_18  and  O5_19
REMARK    7  A    between atoms: C11_21  and  C12_22
REMARK    8  A    between atoms: C12_22  and  O6_23
REMARK    9  A    between atoms: C13_26  and  O8_27
REMARK   10  A    between atoms: O8_27  and  C14_28
REMARK   11  A    between atoms: C14_28  and  O9_29
REMARK   12  A    between atoms: C15_31  and  O10_32
REMARK   13  A    between atoms: C16_34  and  O11_35
REMARK   14  A    between atoms: C17_37  and  O12_38
REMARK   15  A    between atoms: C18_40  and  C19_41
REMARK   16  A    between atoms: C19_41  and  O13_42
REMARK   17  A    between atoms: C20_44  and  O14_45
ROOT
HETATM    1  C1  UNL     1       5.692 -15.956  29.065  1.00  0.00     0.078 C
HETATM    2  C2  UNL     1       5.423 -14.699  29.908  1.00  0.00     0.161 C
HETATM    3  C3  UNL     1       4.971 -15.228  31.275  1.00  0.00     0.068 C
HETATM    4  C4  UNL     1       5.430 -14.241  32.304  1.00  0.00     0.008 C
HETATM    5  C5  UNL     1       4.963 -12.857  31.968  1.00  0.00     0.037 C
HETATM    6  C6  UNL     1       6.046 -12.038  31.303  1.00  0.00     0.182 C
HETATM    7  C13 UNL     1       6.423 -12.586  29.952  1.00  0.00     0.296 C
HETATM    8  O15 UNL     1       6.571 -13.979  29.993  1.00  0.00    -0.323 OA
ENDROOT
BRANCH   7   9
HETATM    9  O8  UNL     1       5.657 -12.169  28.902  1.00  0.00    -0.317 OA
BRANCH   9  10
HETATM   10  C14 UNL     1       6.300 -11.884  27.728  1.00  0.00     0.220 C
HETATM   11  C15 UNL     1       7.324 -10.837  27.902  1.00  0.00     0.214 C
HETATM   12  C16 UNL     1       8.097 -10.525  26.641  1.00  0.00     0.181 C
HETATM   13  C17 UNL     1       7.220 -10.360  25.435  1.00  0.00     0.158 C
HETATM   14  C18 UNL     1       6.063 -11.308  25.386  1.00  0.00     0.075 C
HETATM   15  C20 UNL     1       5.309 -11.348  26.671  1.00  0.00     0.192 C
BRANCH  10  16
HETATM   16  O9  UNL     1       6.853 -13.021  27.127  1.00  0.00    -0.361 OA
ATOM     17  H9  UNL     1       7.738 -13.197  27.424  1.00  0.00     0.213 HD
ENDBRANCH  10  16
BRANCH  11  18
HETATM   18  O10 UNL     1       6.815  -9.627  28.398  1.00  0.00    -0.387 OA
ATOM     19  H10 UNL     1       7.072  -8.868  27.889  1.00  0.00     0.210 HD
ENDBRANCH  11  18
BRANCH  12  20
HETATM   20  O11 UNL     1       9.077 -11.493  26.442  1.00  0.00    -0.390 OA
ATOM     21  H11 UNL     1       8.992 -12.172  27.100  1.00  0.00     0.210 HD
ENDBRANCH  12  20
BRANCH  13  22
HETATM   22  O12 UNL     1       8.012 -10.587  24.307  1.00  0.00    -0.392 OA
ATOM     23  H12 UNL     1       8.358  -9.748  24.028  1.00  0.00     0.210 HD
ENDBRANCH  13  22
BRANCH  14  24
HETATM   24  C19 UNL     1       5.146 -10.971  24.259  1.00  0.00     0.174 C
BRANCH  24  25
HETATM   25  O13 UNL     1       3.843 -11.360  24.422  1.00  0.00    -0.400 OA
ATOM     26  H13 UNL     1       3.633 -12.232  24.109  1.00  0.00     0.209 HD
ENDBRANCH  24  25
ENDBRANCH  14  24
BRANCH  15  27
HETATM   27  O14 UNL     1       4.700 -10.187  27.047  1.00  0.00    -0.389 OA
ATOM     28  H14 UNL     1       4.089 -10.301  27.766  1.00  0.00     0.210 HD
ENDBRANCH  15  27
ENDBRANCH   9  10
ENDBRANCH   7   9
BRANCH   6  29
HETATM   29  O2  UNL     1       7.155 -12.086  32.172  1.00  0.00    -0.329 OA
BRANCH  29  30
HETATM   30  C7  UNL     1       7.732 -10.828  32.333  1.00  0.00     0.414 C
HETATM   31  O3  UNL     1       6.781  -9.862  31.930  1.00  0.00    -0.326 OA
HETATM   32  C8  UNL     1       7.521  -8.674  31.789  1.00  0.00     0.198 C
HETATM   33  C10 UNL     1       7.935  -8.261  33.180  1.00  0.00     0.183 C
HETATM   34  C11 UNL     1       8.402  -9.394  34.026  1.00  0.00     0.182 C
HETATM   35  O7  UNL     1       7.967 -10.628  33.664  1.00  0.00    -0.329 OA
BRANCH  32  36
HETATM   36  C9  UNL     1       6.628  -7.682  31.160  1.00  0.00     0.121 C
HETATM   37  N1  UNL     1       5.407  -7.985  30.872  1.00  0.00    -0.282 N
ATOM     38  H1  UNL     1       5.057  -8.919  31.082  1.00  0.00     0.193 HD
BRANCH  37  39
HETATM   39  O4  UNL     1       4.580  -7.067  30.290  1.00  0.00    -0.290 OA
ATOM     40  H4  UNL     1       3.659  -7.258  30.162  1.00  0.00     0.244 HD
ENDBRANCH  37  39
ENDBRANCH  32  36
BRANCH  33  41
HETATM   41  O5  UNL     1       6.821  -7.601  33.746  1.00  0.00    -0.390 OA
ATOM     42  H5  UNL     1       7.019  -7.487  34.668  1.00  0.00     0.210 HD
ENDBRANCH  33  41
BRANCH  34  43
HETATM   43  C12 UNL     1       7.890  -9.123  35.448  1.00  0.00     0.199 C
BRANCH  43  44
HETATM   44  O6  UNL     1       8.775  -8.285  36.132  1.00  0.00    -0.398 OA
ATOM     45  H6  UNL     1       8.950  -8.628  37.001  1.00  0.00     0.209 HD
ENDBRANCH  43  44
ENDBRANCH  34  43
ENDBRANCH  29  30
ENDBRANCH   6  29
BRANCH   2  46
HETATM   46  O1  UNL     1       4.337 -14.085  29.345  1.00  0.00    -0.365 OA
ATOM     47  H1  UNL     1       3.837 -13.718  30.065  1.00  0.00     0.213 HD
ENDBRANCH   2  46
TORSDOF 17
ENDMDL