MODEL 2
REMARK VINA RESULT: -8.798130802      1.414      1.804
REMARK  12 active torsions:
REMARK  status: ('A' for Active; 'I' for Inactive)
REMARK       I    between atoms: N2_3  and  C2_5
REMARK       I    between atoms: C2_5  and  N4_9
REMARK    1  A    between atoms: N4_9  and  C3_11
REMARK    2  A    between atoms: C3_11  and  N5_12
REMARK    3  A    between atoms: C5_21  and  C6_22
REMARK    4  A    between atoms: C7_25  and  N9_26
REMARK    5  A    between atoms: C9_33  and  C10_34
REMARK    6  A    between atoms: C10_34  and  O1_35
REMARK    7  A    between atoms: C10_34  and  N12_37
REMARK    8  A    between atoms: N12_37  and  C11_39
REMARK    9  A    between atoms: C11_39  and  C12_40
REMARK   10  A    between atoms: C12_40  and  C13_42
REMARK   11  A    between atoms: C14_48  and  C15_49
REMARK   12  A    between atoms: C15_49  and  N15_50
ROOT
HETATM    1  N1  UNL     1       9.291  -8.061  34.065  1.00  0.00    -0.171 NA
HETATM    2  C1  UNL     1       8.953  -9.040  33.555  1.00  0.00     0.196 C
HETATM    3  N2  UNL     1       8.548 -10.232  32.943  1.00  0.00    -0.126 N
ATOM      4  H2  UNL     1       9.250 -10.840  32.523  1.00  0.00     0.197 HD
HETATM    5  C2  UNL     1       7.197 -10.610  32.894  1.00  0.00     0.684 C
HETATM    6  N3  UNL     1       6.351 -10.137  33.719  1.00  0.00    -0.234 N
ATOM      7  H31 UNL     1       5.370 -10.412  33.683  1.00  0.00     0.174 HD
ATOM      8  H32 UNL     1       6.658  -9.472  34.429  1.00  0.00     0.174 HD
HETATM    9  N4  UNL     1       6.769 -11.536  31.905  1.00  0.00    -0.171 N
ATOM     10  H4  UNL     1       6.695 -12.519  32.169  1.00  0.00     0.182 HD
ENDROOT
BRANCH   9  11
HETATM   11  C3  UNL     1       6.439 -11.178  30.574  1.00  0.00     0.325 C
HETATM   12  N6  UNL     1       5.163 -10.459  30.438  1.00  0.00    -0.170 N
HETATM   13  C4  UNL     1       4.922 -10.545  29.013  1.00  0.00     0.700 A
ATOM     14  H6  UNL     1       4.595 -10.016  31.160  1.00  0.00     0.182 HD
HETATM   15  N7  UNL     1       4.354  -9.976  27.948  1.00  0.00    -0.172 N
HETATM   16  N14 UNL     1       5.515 -11.657  28.549  1.00  0.00    -0.109 N
HETATM   17  C5  UNL     1       4.548 -10.651  26.861  1.00  0.00     0.164 A
ATOM     18  H7  UNL     1       3.824  -9.106  27.987  1.00  0.00     0.186 HD
HETATM   19  N13 UNL     1       5.301 -11.735  27.273  1.00  0.00    -0.266 N
ATOM     20  H13 UNL     1       5.638 -12.482  26.665  1.00  0.00     0.189 HD
HETATM   21  C14 UNL     1       6.173 -12.349  29.664  1.00  0.00     0.226 C
BRANCH  11  22
HETATM   22  N5  UNL     1       7.424 -10.274  29.981  1.00  0.00    -0.030 N
ATOM     23  H53 UNL     1       7.123  -9.302  30.055  1.00  0.00     0.279 HD
ATOM     24  H52 UNL     1       8.270 -10.227  30.549  1.00  0.00     0.279 HD
ATOM     25  H51 UNL     1       7.644 -10.520  29.015  1.00  0.00     0.279 HD
ENDBRANCH  11  22
BRANCH  17  26
HETATM   26  C6  UNL     1       4.222 -10.531  25.449  1.00  0.00     0.113 A
HETATM   27  N8  UNL     1       2.934 -10.106  25.170  1.00  0.00    -0.187 N
HETATM   28  C7  UNL     1       2.431 -10.064  23.951  1.00  0.00     0.677 A
ATOM     29  H8  UNL     1       2.343  -9.810  25.947  1.00  0.00     0.184 HD
HETATM   30  N10 UNL     1       3.201 -10.452  22.934  1.00  0.00    -0.178 N
HETATM   31  C8  UNL     1       4.442 -10.868  23.106  1.00  0.00     0.148 A
ATOM     32  H10 UNL     1       2.818 -10.425  21.989  1.00  0.00     0.185 HD
HETATM   33  N11 UNL     1       5.217 -11.260  21.958  1.00  0.00    -0.081 NA
HETATM   34  C9  UNL     1       5.010 -10.920  24.408  1.00  0.00     0.087 A
BRANCH  28  35
HETATM   35  N9  UNL     1       1.236  -9.667  23.716  1.00  0.00    -0.234 N
ATOM     36  H92 UNL     1       0.849  -8.896  24.261  1.00  0.00     0.174 HD
ATOM     37  H91 UNL     1       0.650 -10.095  22.999  1.00  0.00     0.174 HD
ENDBRANCH  28  35
BRANCH  34  38
HETATM   38  C10 UNL     1       6.343 -11.442  24.471  1.00  0.00     0.152 C
BRANCH  38  39
HETATM   39  O1  UNL     1       6.389 -12.786  24.377  1.00  0.00    -0.346 OA
ATOM     40  H1  UNL     1       6.231 -13.105  23.496  1.00  0.00     0.219 HD
ENDBRANCH  38  39
BRANCH  38  41
HETATM   41  N12 UNL     1       7.623 -10.968  24.585  1.00  0.00    -0.363 N
ATOM     42  H12 UNL     1       8.397 -11.420  24.099  1.00  0.00     0.162 HD
BRANCH  41  43
HETATM   43  C11 UNL     1       7.846  -9.771  25.445  1.00  0.00     0.212 C
BRANCH  43  44
HETATM   44  C12 UNL     1       8.377 -10.201  26.755  1.00  0.00     0.242 C
HETATM   45  O2  UNL     1       8.404 -11.410  27.101  1.00  0.00    -0.284 OA
BRANCH  44  46
HETATM   46  C13 UNL     1       8.881  -9.208  27.676  1.00  0.00     0.248 C
HETATM   47  O3  UNL     1       8.210  -8.174  27.901  1.00  0.00    -0.642 OA
HETATM   48  O4  UNL     1      10.088  -9.365  28.318  1.00  0.00    -0.642 OA
ENDBRANCH  44  46
ENDBRANCH  43  44
ENDBRANCH  41  43
ENDBRANCH  38  41
ENDBRANCH  34  38
ENDBRANCH  17  26
BRANCH  21  49
HETATM   49  C15 UNL     1       5.229 -13.321  30.291  1.00  0.00     0.184 C
BRANCH  49  50
HETATM   50  N15 UNL     1       5.782 -14.667  30.335  1.00  0.00    -0.286 N
HETATM   51  C16 UNL     1       5.796 -15.544  29.318  1.00  0.00     0.130 A
HETATM   52  C17 UNL     1       6.413 -16.718  29.763  1.00  0.00     0.127 A
HETATM   53  N16 UNL     1       6.735 -16.461  31.049  1.00  0.00    -0.296 N
HETATM   54  N17 UNL     1       6.352 -15.229  31.382  1.00  0.00    -0.241 N
ATOM     55  H16 UNL     1       7.205 -17.116  31.675  1.00  0.00     0.187 HD
ATOM     56  H17 UNL     1       6.479 -14.794  32.296  1.00  0.00     0.208 HD
ENDBRANCH  49  50
ENDBRANCH  21  49
ENDBRANCH   9  11
TORSDOF 12
ENDMDL