MODEL 5
REMARK VINA RESULT: -7.667798771      2.725      7.667
REMARK  16 active torsions:
REMARK  status: ('A' for Active; 'I' for Inactive)
REMARK    1  A    between atoms: N1_1  and  C1_4
REMARK    2  A    between atoms: C5_10  and  N3_11
REMARK    3  A    between atoms: N3_11  and  C6_13
REMARK    4  A    between atoms: C8_15  and  N4_16
REMARK    5  A    between atoms: C9_18  and  O1_19
REMARK    6  A    between atoms: C9_18  and  N5_21
REMARK    7  A    between atoms: N5_21  and  O2_23
REMARK    8  A    between atoms: O2_23  and  C10_24
REMARK    9  A    between atoms: C10_24  and  C11_25
REMARK   10  A    between atoms: C11_25  and  N6_26
REMARK   11  A    between atoms: N7_30  and  C12_31
REMARK   12  A    between atoms: C12_31  and  O3_32
REMARK   13  A    between atoms: C12_31  and  C13_34
REMARK   14  A    between atoms: C14_36  and  O5_37
REMARK   15  A    between atoms: O5_37  and  N8_38
REMARK   16  A    between atoms: C17_47  and  N11_48
ROOT
HETATM    1  C1  UNL     1       4.917  -6.843  31.038  1.00  0.00     0.678 A
HETATM    2  N2  UNL     1       4.474  -7.375  29.916  1.00  0.00    -0.175 N
ATOM      3  H2  UNL     1       3.806  -6.830  29.371  1.00  0.00     0.186 HD
HETATM    4  C2  UNL     1       4.831  -8.574  29.432  1.00  0.00     0.144 A
HETATM    5  C3  UNL     1       5.731  -9.269  30.194  1.00  0.00     0.054 A
HETATM    6  C4  UNL     1       6.017 -10.443  29.565  1.00  0.00     0.067 A
HETATM    7  C5  UNL     1       5.283 -10.495  28.375  1.00  0.00     0.112 A
HETATM    8  N7  UNL     1       4.560  -9.317  28.330  1.00  0.00    -0.262 N
HETATM    9  C18 UNL     1       6.196  -8.706  31.379  1.00  0.00     0.146 A
HETATM   10  N13 UNL     1       7.123  -9.455  32.140  1.00  0.00    -0.081 NA
HETATM   11  N14 UNL     1       5.806  -7.506  31.815  1.00  0.00    -0.178 N
ATOM     12  H14 UNL     1       6.158  -7.109  32.685  1.00  0.00     0.185 HD
ENDROOT
BRANCH   8  13
HETATM   13  C12 UNL     1       3.646  -9.013  27.331  1.00  0.00     0.178 C
BRANCH  13  14
HETATM   14  O3  UNL     1       2.479  -9.615  27.506  1.00  0.00    -0.345 OA
ATOM     15  H3  UNL     1       2.246 -10.182  26.780  1.00  0.00     0.219 HD
ENDBRANCH  13  14
BRANCH  13  16
HETATM   16  C13 UNL     1       3.674  -8.195  26.152  1.00  0.00     0.341 C
HETATM   17  O4  UNL     1       4.811  -8.610  25.343  1.00  0.00    -0.323 OA
HETATM   18  C14 UNL     1       4.618  -9.835  24.769  1.00  0.00     0.310 C
HETATM   19  C15 UNL     1       3.213 -10.374  24.738  1.00  0.00     0.218 C
HETATM   20  N9  UNL     1       2.326  -9.252  24.534  1.00  0.00    -0.218 N
HETATM   21  C16 UNL     1       1.303  -9.043  23.712  1.00  0.00     0.356 A
HETATM   22  N12 UNL     1       2.574  -8.147  25.215  1.00  0.00    -0.080 N
HETATM   23  O6  UNL     1       0.754  -9.850  22.893  1.00  0.00    -0.244 OA
HETATM   24  N10 UNL     1       0.904  -7.779  23.874  1.00  0.00    -0.139 N
HETATM   25  C17 UNL     1       1.688  -7.230  24.796  1.00  0.00     0.699 A
ATOM     26  H10 UNL     1       0.138  -7.320  23.381  1.00  0.00     0.189 HD
BRANCH  18  27
HETATM   27  O5  UNL     1       4.980  -9.736  23.382  1.00  0.00    -0.253 OA
BRANCH  27  28
HETATM   28  N8  UNL     1       5.543  -8.559  23.108  1.00  0.00    -0.308 N
ATOM     29  H82 UNL     1       5.043  -7.671  23.162  1.00  0.00     0.184 HD
ATOM     30  H81 UNL     1       6.521  -8.666  22.843  1.00  0.00     0.184 HD
ENDBRANCH  27  28
ENDBRANCH  18  27
BRANCH  25  31
HETATM   31  N11 UNL     1       1.603  -5.966  25.156  1.00  0.00    -0.233 N
ATOM     32 2H11 UNL     1       1.207  -5.190  24.626  1.00  0.00     0.174 HD
ATOM     33 1H11 UNL     1       1.898  -5.625  26.071  1.00  0.00     0.174 HD
ENDBRANCH  25  31
ENDBRANCH  13  16
ENDBRANCH   8  13
BRANCH   7  34
HETATM   34  N3  UNL     1       5.344 -11.578  27.479  1.00  0.00    -0.369 N
ATOM     35  H3  UNL     1       4.508 -11.877  26.975  1.00  0.00     0.161 HD
BRANCH  34  36
HETATM   36  C6  UNL     1       6.605 -12.268  27.279  1.00  0.00     0.108 A
HETATM   37  C7  UNL     1       7.741 -11.379  26.820  1.00  0.00     0.054 A
HETATM   38  C8  UNL     1       7.167 -12.479  25.935  1.00  0.00     0.109 A
BRANCH  38  39
HETATM   39  N4  UNL     1       6.477 -12.130  24.733  1.00  0.00    -0.348 N
HETATM   40  C9  UNL     1       6.606 -12.837  23.664  1.00  0.00     0.237 C
ATOM     41  H4  UNL     1       5.873 -11.308  24.722  1.00  0.00     0.163 HD
BRANCH  40  42
HETATM   42  O1  UNL     1       5.916 -12.457  22.523  1.00  0.00    -0.331 OA
ATOM     43  H1  UNL     1       4.967 -12.484  22.532  1.00  0.00     0.221 HD
ENDBRANCH  40  42
BRANCH  40  44
HETATM   44  N5  UNL     1       7.437 -13.986  23.641  1.00  0.00    -0.230 N
ATOM     45  H5  UNL     1       7.740 -14.383  24.531  1.00  0.00     0.198 HD
BRANCH  44  46
HETATM   46  O2  UNL     1       7.843 -14.574  22.517  1.00  0.00    -0.276 OA
BRANCH  46  47
HETATM   47  C10 UNL     1       8.120 -15.933  22.692  1.00  0.00     0.228 C
BRANCH  47  48
HETATM   48  C11 UNL     1       9.371 -16.327  21.919  1.00  0.00     0.258 C
BRANCH  48  49
HETATM   49  N6  UNL     1      10.491 -16.407  22.834  1.00  0.00    -0.077 N
ATOM     50  H63 UNL     1      11.353 -16.048  22.423  1.00  0.00     0.274 HD
ATOM     51  H62 UNL     1      10.411 -15.743  23.604  1.00  0.00     0.274 HD
ATOM     52  H61 UNL     1      10.588 -17.368  23.160  1.00  0.00     0.274 HD
ENDBRANCH  48  49
ENDBRANCH  47  48
ENDBRANCH  46  47
ENDBRANCH  44  46
ENDBRANCH  40  44
ENDBRANCH  38  39
ENDBRANCH  34  36
ENDBRANCH   7  34
BRANCH   1  53
HETATM   53  N1  UNL     1       4.518  -5.683  31.414  1.00  0.00    -0.234 N
ATOM     54  H12 UNL     1       3.827  -5.623  32.161  1.00  0.00     0.174 HD
ATOM     55  H11 UNL     1       4.888  -4.839  30.975  1.00  0.00     0.174 HD
ENDBRANCH   1  53
TORSDOF 16
ENDMDL