MODEL 2
REMARK VINA RESULT: -8.222765874      1.803      3.719
REMARK  14 active torsions:
REMARK  status: ('A' for Active; 'I' for Inactive)
REMARK    1  A    between atoms: C3_3  and  C4_4
REMARK       I    between atoms: C4_4  and  N1_6
REMARK    2  A    between atoms: N1_6  and  C5_8
REMARK    3  A    between atoms: C6_11  and  N3_12
REMARK    4  A    between atoms: C7_17  and  O2_18
REMARK    5  A    between atoms: C8_20  and  O3_21
REMARK    6  A    between atoms: N5_25  and  O5_26
REMARK    7  A    between atoms: N6_30  and  C11_31
REMARK    8  A    between atoms: C11_31  and  C12_32
REMARK    9  A    between atoms: C13_36  and  C14_37
REMARK   10  A    between atoms: C14_37  and  O10_38
REMARK   11  A    between atoms: C15_41  and  C16_42
REMARK   12  A    between atoms: C16_42  and  O12_43
REMARK   13  A    between atoms: C16_42  and  C17_45
REMARK   14  A    between atoms: C17_45  and  O13_46
ROOT
HETATM    1  C1  UNL     1       7.628 -10.540  32.039  1.00  0.00     0.070 C
HETATM    2  C2  UNL     1       6.704  -9.519  31.561  1.00  0.00     0.037 A
HETATM    3  C3  UNL     1       6.380  -8.537  32.526  1.00  0.00     0.125 A
HETATM    4  C9  UNL     1       5.505  -7.531  32.242  1.00  0.00     0.293 A
HETATM    5  O4  UNL     1       5.161  -6.617  33.028  1.00  0.00    -0.264 OA
HETATM    6  N5  UNL     1       4.965  -7.509  31.014  1.00  0.00    -0.133 N
HETATM    7  C10 UNL     1       5.280  -8.443  30.114  1.00  0.00     0.359 A
HETATM    8  O6  UNL     1       4.731  -8.351  28.990  1.00  0.00    -0.244 OA
HETATM    9  N6  UNL     1       6.151  -9.479  30.339  1.00  0.00    -0.256 N
ENDROOT
BRANCH   3  10
HETATM   10  C4  UNL     1       7.004  -8.501  33.868  1.00  0.00     0.264 C
HETATM   11  O1  UNL     1       6.504  -9.214  34.734  1.00  0.00    -0.267 OA
HETATM   12  N1  UNL     1       8.116  -7.673  34.115  1.00  0.00    -0.306 N
ATOM     13  H1  UNL     1       8.452  -7.113  33.332  1.00  0.00     0.170 HD
BRANCH  12  14
HETATM   14  C5  UNL     1       8.815  -7.540  35.341  1.00  0.00     0.161 A
HETATM   15  N2  UNL     1       8.499  -8.156  36.467  1.00  0.00    -0.174 N
HETATM   16  C6  UNL     1       9.199  -8.000  37.626  1.00  0.00     0.679 A
ATOM     17  H2  UNL     1       7.692  -8.780  36.468  1.00  0.00     0.186 HD
HETATM   18  N4  UNL     1      10.245  -7.186  37.607  1.00  0.00    -0.168 N
HETATM   19  C7  UNL     1      10.639  -6.524  36.525  1.00  0.00     0.192 A
ATOM     20  H4  UNL     1      10.776  -7.062  38.469  1.00  0.00     0.186 HD
HETATM   21  C8  UNL     1       9.926  -6.683  35.342  1.00  0.00     0.162 A
BRANCH  16  22
HETATM   22  N3  UNL     1       8.877  -8.606  38.709  1.00  0.00    -0.234 N
ATOM     23  H32 UNL     1       8.588  -9.584  38.680  1.00  0.00     0.174 HD
ATOM     24  H31 UNL     1       8.897  -8.146  39.619  1.00  0.00     0.174 HD
ENDBRANCH  16  22
BRANCH  19  25
HETATM   25  O2  UNL     1      11.753  -5.668  36.532  1.00  0.00    -0.344 OA
ATOM     26  H2  UNL     1      11.762  -4.842  36.062  1.00  0.00     0.219 HD
ENDBRANCH  19  25
BRANCH  21  27
HETATM   27  O3  UNL     1      10.359  -5.984  34.241  1.00  0.00    -0.354 OA
ATOM     28  H3  UNL     1      10.163  -6.230  33.344  1.00  0.00     0.218 HD
ENDBRANCH  21  27
ENDBRANCH  12  14
ENDBRANCH   3  10
BRANCH   9  29
HETATM   29  C11 UNL     1       6.391 -10.471  29.337  1.00  0.00     0.266 C
HETATM   30  O9  UNL     1       5.346 -10.224  28.363  1.00  0.00    -0.316 OA
HETATM   31  C13 UNL     1       5.790 -10.568  27.146  1.00  0.00     0.287 C
HETATM   32  O11 UNL     1       7.106 -10.942  27.196  1.00  0.00    -0.346 OA
HETATM   33  C15 UNL     1       7.560 -10.500  28.501  1.00  0.00     0.223 C
BRANCH  29  34
HETATM   34  C12 UNL     1       5.946 -11.821  29.869  1.00  0.00     0.235 C
HETATM   35  O7  UNL     1       4.769 -11.889  30.306  1.00  0.00    -0.644 OA
HETATM   36  O8  UNL     1       6.731 -12.953  29.901  1.00  0.00    -0.644 OA
ENDBRANCH  29  34
BRANCH  31  37
HETATM   37  C14 UNL     1       4.962 -11.599  26.387  1.00  0.00     0.224 C
BRANCH  37  38
HETATM   38  O10 UNL     1       3.783 -10.952  25.926  1.00  0.00    -0.396 OA
ATOM     39  H10 UNL     1       3.562 -11.324  25.080  1.00  0.00     0.209 HD
ENDBRANCH  37  38
ENDBRANCH  31  37
BRANCH  33  40
HETATM   40  C16 UNL     1       8.441  -9.360  28.197  1.00  0.00     0.176 C
BRANCH  40  41
HETATM   41  O12 UNL     1       9.069  -9.083  29.505  1.00  0.00    -0.391 OA
ATOM     42  H12 UNL     1       8.729  -9.783  30.049  1.00  0.00     0.210 HD
ENDBRANCH  40  41
BRANCH  40  43
HETATM   43  C17 UNL     1       9.650  -9.578  27.342  1.00  0.00     0.198 C
BRANCH  43  44
HETATM   44  O13 UNL     1      10.869  -9.412  27.958  1.00  0.00    -0.398 OA
ATOM     45  H13 UNL     1      11.031  -8.560  28.348  1.00  0.00     0.209 HD
ENDBRANCH  43  44
ENDBRANCH  40  43
ENDBRANCH  33  40
ENDBRANCH   9  29
BRANCH   6  46
HETATM   46  O5  UNL     1       4.074  -6.490  30.717  1.00  0.00    -0.276 OA
ATOM     47  H5  UNL     1       3.981  -6.234  29.807  1.00  0.00     0.245 HD
ENDBRANCH   6  46
TORSDOF 14
ENDMDL