MODEL 3
REMARK VINA RESULT: -8.184817257      2.152      9.525
REMARK  19 active torsions:
REMARK  status: ('A' for Active; 'I' for Inactive)
REMARK    1  A    between atoms: O1_2  and  N1_3
REMARK    2  A    between atoms: N1_3  and  C2_5
REMARK    3  A    between atoms: C2_5  and  O2_6
REMARK    4  A    between atoms: O2_6  and  N2_7
REMARK    5  A    between atoms: C3_9  and  C5_11
REMARK    6  A    between atoms: C5_11  and  O3_12
REMARK    7  A    between atoms: C5_11  and  C6_14
REMARK    8  A    between atoms: C6_14  and  N3_15
REMARK    9  A    between atoms: C6_14  and  C7_19
REMARK   10  A    between atoms: C7_19  and  O4_20
REMARK   11  A    between atoms: C9_25  and  N5_26
REMARK   12  A    between atoms: C10_31  and  N7_32
REMARK   13  A    between atoms: N7_32  and  C11_34
REMARK   14  A    between atoms: C16_44  and  O5_45
REMARK   15  A    between atoms: C16_44  and  O6_47
REMARK   16  A    between atoms: C17_49  and  C18_50
REMARK   17  A    between atoms: C18_50  and  N12_55
REMARK   18  A    between atoms: N11_51  and  O7_53
REMARK   19  A    between atoms: N12_55  and  N13_57
ROOT
HETATM    1  C2  UNL     1       6.202 -10.963  26.431  1.00  0.00     0.218 C
HETATM    2  C8  UNL     1       7.079 -10.498  27.483  1.00  0.00     0.122 A
HETATM    3  N4  UNL     1       8.363 -10.179  27.107  1.00  0.00    -0.186 N
ATOM      4  H4  UNL     1       8.666 -10.295  26.140  1.00  0.00     0.184 HD
HETATM    5  C9  UNL     1       9.209  -9.715  28.035  1.00  0.00     0.678 A
HETATM    6  N6  UNL     1       8.850  -9.545  29.323  1.00  0.00    -0.176 N
ATOM      7  H6  UNL     1       9.538  -9.185  29.984  1.00  0.00     0.186 HD
HETATM    8  C10 UNL     1       7.618  -9.835  29.761  1.00  0.00     0.134 A
HETATM    9  C17 UNL     1       6.721 -10.327  28.784  1.00  0.00     0.087 A
ENDROOT
BRANCH   1  10
HETATM   10  N1  UNL     1       4.981 -11.231  26.637  1.00  0.00    -0.242 N
ATOM     11  H1  UNL     1       4.785 -11.809  27.453  1.00  0.00     0.196 HD
BRANCH  10  12
HETATM   12  O1  UNL     1       3.901 -10.848  25.911  1.00  0.00    -0.283 OA
HETATM   13  C1  UNL     1       3.395  -9.543  25.829  1.00  0.00     0.237 C
ENDBRANCH  10  12
ENDBRANCH   1  10
BRANCH   1  14
HETATM   14  O2  UNL     1       6.646 -11.149  25.118  1.00  0.00    -0.216 OA
BRANCH  14  15
HETATM   15  N2  UNL     1       6.246 -10.346  24.085  1.00  0.00    -0.265 N
HETATM   16  C3  UNL     1       5.551 -10.715  23.080  1.00  0.00     0.037 C
HETATM   17  C4  UNL     1       5.121 -12.129  22.981  1.00  0.00     0.068 C
ATOM     18  H2  UNL     1       6.527  -9.366  24.122  1.00  0.00     0.194 HD
BRANCH  16  19
HETATM   19  C5  UNL     1       5.170  -9.766  22.029  1.00  0.00     0.197 C
BRANCH  19  20
HETATM   20  O3  UNL     1       5.627  -8.461  22.305  1.00  0.00    -0.388 OA
ATOM     21  H3  UNL     1       5.201  -7.812  21.758  1.00  0.00     0.210 HD
ENDBRANCH  19  20
BRANCH  19  22
HETATM   22  C6  UNL     1       3.701  -9.650  21.782  1.00  0.00     0.241 C
BRANCH  22  23
HETATM   23  N3  UNL     1       3.246 -10.258  20.576  1.00  0.00    -0.070 N
ATOM     24  H33 UNL     1       3.395 -11.266  20.612  1.00  0.00     0.274 HD
ATOM     25  H32 UNL     1       2.227 -10.231  20.529  1.00  0.00     0.274 HD
ATOM     26  H31 UNL     1       3.648  -9.871  19.723  1.00  0.00     0.274 HD
ENDBRANCH  22  23
BRANCH  22  27
HETATM   27  C7  UNL     1       3.389  -8.153  21.670  1.00  0.00     0.199 C
BRANCH  27  28
HETATM   28  O4  UNL     1       2.781  -7.778  22.852  1.00  0.00    -0.399 OA
ATOM     29  H4  UNL     1       1.953  -8.241  22.897  1.00  0.00     0.209 HD
ENDBRANCH  27  28
ENDBRANCH  22  27
ENDBRANCH  19  22
ENDBRANCH  16  19
ENDBRANCH  14  15
ENDBRANCH   1  14
BRANCH   9  30
HETATM   30  C18 UNL     1       5.381 -10.689  29.228  1.00  0.00     0.155 C
HETATM   31  N11 UNL     1       4.398  -9.836  29.170  1.00  0.00    -0.251 N
ATOM     32  H11 UNL     1       3.479 -10.138  29.492  1.00  0.00     0.196 HD
BRANCH  31  33
HETATM   33  O7  UNL     1       4.529  -8.569  28.706  1.00  0.00    -0.288 OA
ATOM     34  H7  UNL     1       4.681  -7.816  29.264  1.00  0.00     0.244 HD
ENDBRANCH  31  33
BRANCH  30  35
HETATM   35  N12 UNL     1       5.085 -11.968  29.770  1.00  0.00    -0.290 N
ATOM     36  H12 UNL     1       4.195 -12.145  30.235  1.00  0.00     0.188 HD
BRANCH  35  37
HETATM   37  N13 UNL     1       6.039 -12.976  29.653  1.00  0.00    -0.344 N
ATOM     38 2H13 UNL     1       6.344 -13.279  28.728  1.00  0.00     0.176 HD
ATOM     39 1H13 UNL     1       6.414 -13.392  30.504  1.00  0.00     0.176 HD
ENDBRANCH  35  37
ENDBRANCH  30  35
ENDBRANCH   9  30
BRANCH   5  40
HETATM   40  N5  UNL     1      10.405  -9.425  27.674  1.00  0.00    -0.234 N
ATOM     41  H52 UNL     1      10.995 -10.154  27.274  1.00  0.00     0.174 HD
ATOM     42  H51 UNL     1      10.727  -8.466  27.800  1.00  0.00     0.174 HD
ENDBRANCH   5  40
BRANCH   8  43
HETATM   43  N7  UNL     1       7.229  -9.707  30.965  1.00  0.00    -0.363 N
ATOM     44  H7  UNL     1       6.361  -9.191  31.103  1.00  0.00     0.161 HD
BRANCH  43  45
HETATM   45  C11 UNL     1       7.868 -10.201  32.156  1.00  0.00     0.173 A
HETATM   46  C12 UNL     1       7.040 -11.378  32.739  1.00  0.00     0.200 A
HETATM   47  N8  UNL     1       6.616 -10.996  34.186  1.00  0.00    -0.232 N
HETATM   48  N9  UNL     1       6.343 -10.513  35.418  1.00  0.00    -0.287 N
HETATM   49  N10 UNL     1       7.219 -10.110  33.952  1.00  0.00    -0.281 N
HETATM   50  C13 UNL     1       7.019  -9.223  35.525  1.00  0.00     0.053 A
ATOM     51  H9  UNL     1       5.774 -10.962  36.135  1.00  0.00     0.188 HD
HETATM   52  C14 UNL     1       7.118  -8.235  36.548  1.00  0.00     0.072 C
HETATM   53  C15 UNL     1       7.630  -9.088  34.321  1.00  0.00     0.114 A
HETATM   54  C16 UNL     1       8.324  -8.907  32.984  1.00  0.00     0.230 A
ATOM     55  H10 UNL     1       7.568 -10.238  33.002  1.00  0.00     0.188 HD
BRANCH  54  56
HETATM   56  O5  UNL     1       9.665  -8.975  33.245  1.00  0.00    -0.359 OA
ATOM     57  H5  UNL     1       9.900  -8.317  33.889  1.00  0.00     0.213 HD
ENDBRANCH  54  56
BRANCH  54  58
HETATM   58  O6  UNL     1       8.019  -7.776  32.321  1.00  0.00    -0.359 OA
ATOM     59  H6  UNL     1       7.261  -7.351  32.704  1.00  0.00     0.213 HD
ENDBRANCH  54  58
ENDBRANCH  43  45
ENDBRANCH   8  43
TORSDOF 19
ENDMDL