MODEL 4
REMARK VINA RESULT: -5.447024654      1.872      3.033
REMARK  6 active torsions:
REMARK  status: ('A' for Active; 'I' for Inactive)
REMARK    1  A    between atoms: O1_1  and  C1_3
REMARK    2  A    between atoms: C4_6  and  C5_7
REMARK    3  A    between atoms: C7_10  and  C8_11
REMARK    4  A    between atoms: N2_16  and  C11_17
REMARK    5  A    between atoms: C11_17  and  C12_18
REMARK    6  A    between atoms: N6_25  and  C13_26
ROOT
HETATM    1  C1  UNL     1     -27.802  80.836   9.757  1.00  0.00     0.146 C
HETATM    2  C2  UNL     1     -27.883  79.623  10.643  1.00  0.00     0.036 C
HETATM    3  C3  UNL     1     -28.888  78.690  10.055  1.00  0.00     0.045 C
HETATM    4  C4  UNL     1     -30.220  79.426  10.008  1.00  0.00     0.273 C
HETATM    5  N2  UNL     1     -30.120  80.432   9.001  1.00  0.00     0.108 N
HETATM    6  C18 UNL     1     -29.130  81.384   9.360  1.00  0.00     0.305 C
ENDROOT
BRANCH   5   7
HETATM    7  C11 UNL     1     -31.361  81.155   8.792  1.00  0.00     0.352 C
BRANCH   7   8
HETATM    8  C12 UNL     1     -31.643  81.471   7.404  1.00  0.00     0.144 A
HETATM    9  N3  UNL     1     -31.871  80.589   6.415  1.00  0.00    -0.271 N
HETATM   10  N4  UNL     1     -32.099  81.223   5.276  1.00  0.00    -0.227 N
ATOM     11  H3  UNL     1     -31.868  79.575   6.527  1.00  0.00     0.190 HD
HETATM   12  N5  UNL     1     -32.015  82.503   5.547  1.00  0.00    -0.224 N
ATOM     13  H4  UNL     1     -32.300  80.801   4.369  1.00  0.00     0.210 HD
HETATM   14  N6  UNL     1     -31.735  82.680   6.848  1.00  0.00    -0.257 N
ATOM     15  H5  UNL     1     -32.143  83.254   4.869  1.00  0.00     0.210 HD
BRANCH  14  16
HETATM   16  C13 UNL     1     -31.586  83.962   7.455  1.00  0.00     0.111 C
HETATM   17  C14 UNL     1     -32.320  85.058   6.727  1.00  0.00     0.027 C
HETATM   18  C15 UNL     1     -31.330  86.166   6.447  1.00  0.00     0.002 C
HETATM   19  C16 UNL     1     -30.054  85.359   6.220  1.00  0.00     0.002 C
HETATM   20  C17 UNL     1     -30.120  84.428   7.437  1.00  0.00     0.027 C
ENDBRANCH  14  16
ENDBRANCH   7   8
ENDBRANCH   5   7
BRANCH   4  21
HETATM   21  C5  UNL     1     -31.335  78.446   9.724  1.00  0.00     0.050 A
HETATM   22  C6  UNL     1     -32.320  78.186  10.640  1.00  0.00     0.078 A
HETATM   23  S1  UNL     1     -33.278  77.037   9.800  1.00  0.00    -0.086 SA
HETATM   24  C7  UNL     1     -32.373  76.968   8.360  1.00  0.00     0.055 A
HETATM   25  N1  UNL     1     -31.405  77.805   8.582  1.00  0.00    -0.355 N
ATOM     26  H1  UNL     1     -30.697  77.964   7.866  1.00  0.00     0.166 HD
BRANCH  24  27
HETATM   27  C8  UNL     1     -32.588  76.167   7.116  1.00  0.00     0.043 A
HETATM   28  C9  UNL     1     -31.326  75.857   6.284  1.00  0.00     0.012 A
HETATM   29  C10 UNL     1     -32.036  74.791   7.032  1.00  0.00     0.012 A
ENDBRANCH  24  27
ENDBRANCH   4  21
BRANCH   1  30
HETATM   30  O1  UNL     1     -27.119  81.824  10.469  1.00  0.00    -0.394 OA
ATOM     31  H1  UNL     1     -27.063  82.589   9.907  1.00  0.00     0.210 HD
ENDBRANCH   1  30
TORSDOF 6
ENDMDL