MODEL 4
REMARK VINA RESULT: -4.882269959      3.237      5.766
REMARK  7 active torsions:
REMARK  status: ('A' for Active; 'I' for Inactive)
REMARK    1  A    between atoms: C2_2  and  O1_3
REMARK    2  A    between atoms: O1_3  and  C3_4
REMARK    3  A    between atoms: C3_4  and  C4_6
REMARK    4  A    between atoms: C5_8  and  N1_9
REMARK    5  A    between atoms: C12_18  and  N3_19
REMARK    6  A    between atoms: N3_19  and  C13_21
REMARK    7  A    between atoms: C13_21  and  C14_22
ROOT
HETATM    1  C4  UNL     1     -32.850  77.132   8.231  1.00  0.00     0.111 A
HETATM    2  S1  UNL     1     -31.452  77.948   8.751  1.00  0.00    -0.046 SA
HETATM    3  C5  UNL     1     -31.632  79.659   8.635  1.00  0.00     0.149 A
HETATM    4  N2  UNL     1     -32.791  80.039   8.174  1.00  0.00    -0.321 N
ATOM      5  H2  UNL     1     -32.912  81.049   8.100  1.00  0.00     0.169 HD
HETATM    6  C12 UNL     1     -33.850  79.317   7.783  1.00  0.00     0.129 A
HETATM    7  C16 UNL     1     -33.881  77.946   7.808  1.00  0.00     0.113 A
HETATM    8  N4  UNL     1     -35.062  77.220   7.370  1.00  0.00    -0.097 NA
ENDROOT
BRANCH   3   9
HETATM    9  N1  UNL     1     -30.572  80.517   9.023  1.00  0.00    -0.361 N
HETATM   10  C6  UNL     1     -30.547  81.858   8.481  1.00  0.00     0.125 C
HETATM   11  C7  UNL     1     -29.600  82.662   9.360  1.00  0.00     0.024 C
HETATM   12  C8  UNL     1     -28.226  82.086   9.272  1.00  0.00    -0.015 C
HETATM   13  C9  UNL     1     -27.416  82.623  10.432  1.00  0.00     0.010 C
HETATM   14  C10 UNL     1     -28.216  80.589   9.342  1.00  0.00     0.024 C
HETATM   15  C11 UNL     1     -29.526  80.114   9.926  1.00  0.00     0.125 C
ENDBRANCH   3   9
BRANCH   1  16
HETATM   16  C3  UNL     1     -32.949  75.679   8.231  1.00  0.00     0.302 C
HETATM   17  O2  UNL     1     -33.735  75.117   9.030  1.00  0.00    -0.259 OA
BRANCH  16  18
HETATM   18  O1  UNL     1     -32.206  74.881   7.380  1.00  0.00    -0.317 OA
BRANCH  18  19
HETATM   19  C2  UNL     1     -31.689  75.370   6.147  1.00  0.00     0.174 C
HETATM   20  C1  UNL     1     -31.035  74.210   5.431  1.00  0.00     0.034 C
ENDBRANCH  18  19
ENDBRANCH  16  18
ENDBRANCH   1  16
BRANCH   6  21
HETATM   21  N3  UNL     1     -34.847  80.026   7.378  1.00  0.00    -0.373 N
ATOM     22  H3  UNL     1     -35.661  79.992   7.991  1.00  0.00     0.161 HD
BRANCH  21  23
HETATM   23  C13 UNL     1     -35.010  80.834   6.246  1.00  0.00     0.137 C
BRANCH  23  24
HETATM   24  C14 UNL     1     -36.529  80.930   5.973  1.00  0.00     0.072 C
HETATM   25  C15 UNL     1     -36.881  79.984   4.868  1.00  0.00     0.024 C
HETATM   26  S2  UNL     1     -36.882  82.631   5.439  1.00  0.00    -0.091 SA
ENDBRANCH  23  24
ENDBRANCH  21  23
ENDBRANCH   6  21
TORSDOF 7
ENDMDL