MODEL 3
REMARK VINA RESULT: -6.058532355      2.825      7.026
REMARK  6 active torsions:
REMARK  status: ('A' for Active; 'I' for Inactive)
REMARK    1  A    between atoms: O1_2  and  C2_3
REMARK    2  A    between atoms: C3_6  and  N2_7
REMARK    3  A    between atoms: N2_7  and  C4_9
REMARK    4  A    between atoms: C6_11  and  O2_12
REMARK    5  A    between atoms: C8_14  and  O3_15
REMARK    6  A    between atoms: C10_17  and  O4_18
ROOT
HETATM    1  C2  UNL     1     -29.883  78.768   8.633  1.00  0.00     0.225 A
HETATM    2  N1  UNL     1     -30.368  78.136   7.577  1.00  0.00    -0.307 N
ATOM      3  H1  UNL     1     -29.826  78.092   6.714  1.00  0.00     0.171 HD
HETATM    4  C3  UNL     1     -31.584  77.549   7.643  1.00  0.00     0.127 A
HETATM    5  C13 UNL     1     -32.272  77.631   8.809  1.00  0.00     0.068 A
HETATM    6  C14 UNL     1     -31.789  78.278   9.908  1.00  0.00     0.034 A
HETATM    7  N3  UNL     1     -30.554  78.847   9.768  1.00  0.00    -0.324 N
ATOM      8  H3  UNL     1     -30.142  79.344  10.558  1.00  0.00     0.169 HD
HETATM    9  C15 UNL     1     -32.646  78.292  11.077  1.00  0.00     0.073 C
HETATM   10  C16 UNL     1     -33.539  77.074  11.098  1.00  0.00     0.054 C
HETATM   11  C17 UNL     1     -32.814  75.820  11.486  1.00  0.00     0.022 C
HETATM   12  S1  UNL     1     -33.868  76.978   9.281  1.00  0.00    -0.119 SA
ENDROOT
BRANCH   4  13
HETATM   13  N2  UNL     1     -32.054  76.926   6.589  1.00  0.00    -0.341 N
ATOM     14  H2  UNL     1     -32.673  77.409   5.938  1.00  0.00     0.167 HD
BRANCH  13  15
HETATM   15  C4  UNL     1     -31.698  75.588   6.368  1.00  0.00     0.039 A
HETATM   16  C5  UNL     1     -32.037  74.576   7.225  1.00  0.00     0.069 A
HETATM   17  C6  UNL     1     -31.655  73.279   6.951  1.00  0.00     0.106 A
HETATM   18  C8  UNL     1     -30.930  72.997   5.814  1.00  0.00     0.135 A
HETATM   19  C10 UNL     1     -30.569  73.986   4.928  1.00  0.00     0.106 A
HETATM   20  C12 UNL     1     -30.966  75.268   5.231  1.00  0.00     0.069 A
BRANCH  17  21
HETATM   21  O2  UNL     1     -32.028  72.293   7.856  1.00  0.00    -0.353 OA
HETATM   22  C7  UNL     1     -32.778  72.576   9.014  1.00  0.00     0.210 C
ENDBRANCH  17  21
BRANCH  18  23
HETATM   23  O3  UNL     1     -30.560  71.689   5.564  1.00  0.00    -0.351 OA
HETATM   24  C9  UNL     1     -29.202  71.268   5.605  1.00  0.00     0.210 C
ENDBRANCH  18  23
BRANCH  19  25
HETATM   25  O4  UNL     1     -29.838  73.726   3.775  1.00  0.00    -0.353 OA
HETATM   26  C11 UNL     1     -28.809  74.554   3.312  1.00  0.00     0.210 C
ENDBRANCH  19  25
ENDBRANCH  13  15
ENDBRANCH   4  13
BRANCH   1  27
HETATM   27  O1  UNL     1     -28.623  79.360   8.521  1.00  0.00    -0.327 OA
HETATM   28  C1  UNL     1     -28.134  80.278   9.478  1.00  0.00     0.213 C
ENDBRANCH   1  27
TORSDOF 6
ENDMDL