MODEL 5
REMARK VINA RESULT: -6.339057229      1.418      1.896
REMARK  7 active torsions:
REMARK  status: ('A' for Active; 'I' for Inactive)
REMARK    1  A    between atoms: C2_3  and  C4_6
REMARK    2  A    between atoms: C6_8  and  N3_9
REMARK    3  A    between atoms: C7_13  and  C8_14
REMARK    4  A    between atoms: C8_14  and  O4_16
REMARK    5  A    between atoms: O4_16  and  C9_17
REMARK    6  A    between atoms: C9_17  and  C10_18
REMARK       I    between atoms: C10_18  and  N4_20
REMARK    7  A    between atoms: N4_20  and  C11_22
ROOT
HETATM    1  N1  UNL     1     -35.262  76.972   7.207  1.00  0.00    -0.196 NA
HETATM    2  C1  UNL     1     -34.248  76.636   7.653  1.00  0.00     0.083 C
HETATM    3  C2  UNL     1     -32.971  76.221   8.235  1.00  0.00     0.234 C
HETATM    4  C3  UNL     1     -33.178  74.937   8.940  1.00  0.00     0.083 C
HETATM    5  N2  UNL     1     -33.331  73.933   9.497  1.00  0.00    -0.196 NA
ENDROOT
BRANCH   3   6
HETATM    6  C4  UNL     1     -31.944  76.021   7.135  1.00  0.00    -0.001 A
HETATM    7  C5  UNL     1     -31.847  74.816   6.537  1.00  0.00     0.054 A
HETATM    8  C6  UNL     1     -30.915  74.665   5.553  1.00  0.00     0.145 A
HETATM    9  S1  UNL     1     -30.193  76.198   5.478  1.00  0.00    -0.059 SA
HETATM   10  C7  UNL     1     -31.108  77.006   6.719  1.00  0.00     0.091 A
BRANCH   8  11
HETATM   11  N3  UNL     1     -30.618  73.502   4.774  1.00  0.00    -0.108 N
HETATM   12  O1  UNL     1     -30.433  73.601   3.559  1.00  0.00    -0.531 OA
HETATM   13  O2  UNL     1     -30.539  72.281   5.375  1.00  0.00    -0.531 OA
ENDBRANCH   8  11
BRANCH  10  14
HETATM   14  C8  UNL     1     -30.930  78.404   7.126  1.00  0.00     0.301 C
HETATM   15  O3  UNL     1     -31.705  79.308   6.871  1.00  0.00    -0.259 OA
BRANCH  14  16
HETATM   16  O4  UNL     1     -29.780  78.724   7.864  1.00  0.00    -0.308 OA
BRANCH  16  17
HETATM   17  C9  UNL     1     -29.744  78.854   9.258  1.00  0.00     0.281 C
BRANCH  17  18
HETATM   18  C10 UNL     1     -29.610  80.245   9.733  1.00  0.00     0.242 C
HETATM   19  O5  UNL     1     -30.558  80.870  10.290  1.00  0.00    -0.271 OA
HETATM   20  N4  UNL     1     -28.369  80.909   9.559  1.00  0.00    -0.355 N
ATOM     21  H4  UNL     1     -27.597  80.416   9.112  1.00  0.00     0.162 HD
BRANCH  20  22
HETATM   22  C11 UNL     1     -28.178  82.260  10.000  1.00  0.00     0.084 C
HETATM   23  C12 UNL     1     -27.606  83.078   8.879  1.00  0.00     0.025 C
HETATM   24  C13 UNL     1     -27.317  84.496   9.250  1.00  0.00     0.002 C
HETATM   25  C14 UNL     1     -26.559  84.645  10.532  1.00  0.00     0.000 C
HETATM   26  C15 UNL     1     -27.087  83.745  11.626  1.00  0.00     0.002 C
HETATM   27  C16 UNL     1     -27.216  82.320  11.165  1.00  0.00     0.025 C
ENDBRANCH  20  22
ENDBRANCH  17  18
ENDBRANCH  16  17
ENDBRANCH  14  16
ENDBRANCH  10  14
ENDBRANCH   3   6
TORSDOF 7
ENDMDL