MODEL 5
REMARK VINA RESULT: -6.081262548      0.820      1.098
REMARK  10 active torsions:
REMARK  status: ('A' for Active; 'I' for Inactive)
REMARK    1  A    between atoms: C2_2  and  O1_3
REMARK    2  A    between atoms: O1_3  and  C3_4
REMARK    3  A    between atoms: C3_4  and  C4_6
REMARK    4  A    between atoms: C5_8  and  N1_9
REMARK       I    between atoms: N1_9  and  C6_11
REMARK    5  A    between atoms: C6_11  and  C7_13
REMARK    6  A    between atoms: C7_13  and  C8_14
REMARK    7  A    between atoms: C7_13  and  C10_18
REMARK    8  A    between atoms: C8_14  and  O4_16
REMARK    9  A    between atoms: C13_21  and  C14_22
REMARK   10  A    between atoms: C14_22  and  O6_24
ROOT
HETATM    1  C4  UNL     1     -31.275  73.882   6.285  1.00  0.00     0.089 A
HETATM    2  S1  UNL     1     -31.396  75.540   5.908  1.00  0.00    -0.065 SA
HETATM    3  C5  UNL     1     -32.391  76.057   7.201  1.00  0.00     0.094 A
HETATM    4  C13 UNL     1     -32.611  74.916   7.908  1.00  0.00     0.080 A
HETATM    5  C16 UNL     1     -32.023  73.780   7.419  1.00  0.00    -0.020 A
HETATM    6  C17 UNL     1     -32.214  72.444   8.136  1.00  0.00     0.051 C
ENDROOT
BRANCH   3   7
HETATM    7  N1  UNL     1     -32.848  77.423   7.416  1.00  0.00    -0.316 N
HETATM    8  C6  UNL     1     -31.885  78.338   7.881  1.00  0.00     0.259 C
HETATM    9  O3  UNL     1     -30.702  77.898   8.073  1.00  0.00    -0.267 OA
ATOM     10  H1  UNL     1     -33.814  77.702   7.240  1.00  0.00     0.169 HD
BRANCH   8  11
HETATM   11  C7  UNL     1     -32.129  79.768   8.166  1.00  0.00     0.062 C
BRANCH  11  12
HETATM   12  C8  UNL     1     -31.644  80.770   7.239  1.00  0.00     0.055 C
HETATM   13  C9  UNL     1     -32.179  81.105   5.931  1.00  0.00     0.077 C
BRANCH  12  14
HETATM   14  O4  UNL     1     -30.604  81.449   7.625  1.00  0.00    -0.364 OA
ATOM     15  H4  UNL     1     -30.783  82.285   8.042  1.00  0.00     0.217 HD
ENDBRANCH  12  14
ENDBRANCH  11  12
BRANCH  11  16
HETATM   16  C10 UNL     1     -32.788  80.109   9.262  1.00  0.00    -0.070 C
HETATM   17  C11 UNL     1     -34.233  80.461   9.318  1.00  0.00     0.044 C
HETATM   18  C12 UNL     1     -32.106  80.173  10.599  1.00  0.00     0.044 C
ENDBRANCH  11  16
ENDBRANCH   8  11
ENDBRANCH   3   7
BRANCH   4  19
HETATM   19  C14 UNL     1     -33.444  74.911   9.143  1.00  0.00     0.296 C
HETATM   20  O5  UNL     1     -33.138  74.270  10.183  1.00  0.00    -0.259 OA
BRANCH  19  21
HETATM   21  O6  UNL     1     -34.600  75.623   9.189  1.00  0.00    -0.322 OA
HETATM   22  C15 UNL     1     -34.933  76.524  10.217  1.00  0.00     0.213 C
ENDBRANCH  19  21
ENDBRANCH   4  19
BRANCH   1  23
HETATM   23  C3  UNL     1     -30.520  72.882   5.509  1.00  0.00     0.300 C
HETATM   24  O2  UNL     1     -30.261  73.189   4.303  1.00  0.00    -0.259 OA
BRANCH  23  25
HETATM   25  O1  UNL     1     -30.069  71.674   5.930  1.00  0.00    -0.317 OA
BRANCH  25  26
HETATM   26  C2  UNL     1     -29.274  70.878   5.105  1.00  0.00     0.174 C
HETATM   27  C1  UNL     1     -27.817  70.883   5.527  1.00  0.00     0.034 C
ENDBRANCH  25  26
ENDBRANCH  23  25
ENDBRANCH   1  23
TORSDOF 10
ENDMDL