MODEL 5
REMARK VINA RESULT: -5.138756551      3.072      4.626
REMARK  10 active torsions:
REMARK  status: ('A' for Active; 'I' for Inactive)
REMARK    1  A    between atoms: C2_2  and  O1_3
REMARK    2  A    between atoms: O1_3  and  C3_4
REMARK    3  A    between atoms: C3_4  and  C4_6
REMARK    4  A    between atoms: C4_6  and  C6_8
REMARK    5  A    between atoms: C4_6  and  N3_19
REMARK    6  A    between atoms: C8_10  and  O3_11
REMARK    7  A    between atoms: O3_11  and  C9_12
REMARK    8  A    between atoms: N3_19  and  O4_20
REMARK       I    between atoms: N3_19  and  C13_22
REMARK    9  A    between atoms: C13_22  and  O6_24
REMARK   10  A    between atoms: O6_24  and  C14_25
ROOT
HETATM    1  C4  UNL     1     -31.150  78.859   8.794  1.00  0.00     0.192 C
HETATM    2  C5  UNL     1     -29.655  78.793   8.506  1.00  0.00     0.059 C
ENDROOT
BRANCH   1   3
HETATM    3  C3  UNL     1     -31.403  78.836  10.243  1.00  0.00     0.296 C
HETATM    4  O2  UNL     1     -32.202  79.641  10.796  1.00  0.00    -0.262 OA
BRANCH   3   5
HETATM    5  O1  UNL     1     -30.760  77.912  11.060  1.00  0.00    -0.320 OA
BRANCH   5   6
HETATM    6  C2  UNL     1     -30.072  78.352  12.221  1.00  0.00     0.174 C
HETATM    7  C1  UNL     1     -28.599  78.117  12.016  1.00  0.00     0.034 C
ENDBRANCH   5   6
ENDBRANCH   3   5
ENDBRANCH   1   3
BRANCH   1   8
HETATM    8  C6  UNL     1     -31.778  77.663   8.125  1.00  0.00     0.072 A
HETATM    9  C7  UNL     1     -31.242  77.023   7.003  1.00  0.00     0.087 A
HETATM   10  C8  UNL     1     -32.082  75.961   6.722  1.00  0.00     0.159 A
HETATM   11  N1  UNL     1     -33.025  75.998   7.624  1.00  0.00    -0.278 N
HETATM   12  N2  UNL     1     -32.880  77.014   8.494  1.00  0.00    -0.296 N
ATOM     13  H1  UNL     1     -33.793  75.328   7.664  1.00  0.00     0.189 HD
HETATM   14  C12 UNL     1     -33.819  77.249   9.604  1.00  0.00     0.177 C
BRANCH  10  15
HETATM   15  O3  UNL     1     -31.871  75.071   5.651  1.00  0.00    -0.330 OA
BRANCH  15  16
HETATM   16  C9  UNL     1     -30.917  74.041   5.746  1.00  0.00     0.122 C
HETATM   17  C10 UNL     1     -30.580  73.592   4.342  1.00  0.00     0.040 C
HETATM   18  C11 UNL     1     -31.357  72.899   6.620  1.00  0.00     0.040 C
ENDBRANCH  15  16
ENDBRANCH  10  15
ENDBRANCH   1   8
BRANCH   1  19
HETATM   19  N3  UNL     1     -31.719  80.057   8.230  1.00  0.00    -0.178 N
HETATM   20  C13 UNL     1     -30.984  81.278   8.079  1.00  0.00     0.389 C
HETATM   21  O5  UNL     1     -31.508  82.280   7.567  1.00  0.00    -0.236 OA
BRANCH  19  22
HETATM   22  O4  UNL     1     -32.996  80.075   7.814  1.00  0.00    -0.281 OA
ATOM     23  H4  UNL     1     -33.639  80.618   8.253  1.00  0.00     0.245 HD
ENDBRANCH  19  22
BRANCH  20  24
HETATM   24  O6  UNL     1     -29.693  81.324   8.511  1.00  0.00    -0.292 OA
BRANCH  24  25
HETATM   25  C14 UNL     1     -29.210  82.210   9.502  1.00  0.00     0.061 C
HETATM   26  C15 UNL     1     -28.074  81.499  10.209  1.00  0.00     0.046 C
HETATM   27  C16 UNL     1     -28.692  83.498   8.948  1.00  0.00     0.046 C
HETATM   28  C17 UNL     1     -30.256  82.520  10.548  1.00  0.00     0.046 C
ENDBRANCH  24  25
ENDBRANCH  20  24
ENDBRANCH   1  19
TORSDOF 10
ENDMDL