MODEL 5
REMARK VINA RESULT: -6.634449758      2.009      2.683
REMARK  5 active torsions:
REMARK  status: ('A' for Active; 'I' for Inactive)
REMARK    1  A    between atoms: C3_5  and  N2_6
REMARK    2  A    between atoms: C6_10  and  O1_11
REMARK    3  A    between atoms: O1_11  and  C7_12
REMARK    4  A    between atoms: C12_19  and  C13_20
REMARK    5  A    between atoms: C14_26  and  N6_27
ROOT
HETATM    1  N1  UNL     1     -33.292  83.233  12.096  1.00  0.00    -0.191 NA
HETATM    2  C1  UNL     1     -32.749  82.440  11.455  1.00  0.00     0.111 C
HETATM    3  C2  UNL     1     -32.082  81.443  10.627  1.00  0.00     0.132 A
HETATM    4  S1  UNL     1     -32.480  80.868   9.070  1.00  0.00    -0.039 SA
HETATM    5  C3  UNL     1     -31.199  79.745   8.872  1.00  0.00     0.153 A
HETATM    6  N5  UNL     1     -30.539  79.878  10.014  1.00  0.00    -0.321 N
ATOM      7  H5  UNL     1     -29.703  79.319  10.187  1.00  0.00     0.169 HD
HETATM    8  C14 UNL     1     -30.955  80.714  10.907  1.00  0.00     0.133 A
ENDROOT
BRANCH   8   9
HETATM    9  N6  UNL     1     -30.277  80.906  12.180  1.00  0.00    -0.366 N
HETATM   10  C15 UNL     1     -29.246  81.860  12.474  1.00  0.00     0.124 C
HETATM   11  C16 UNL     1     -28.545  81.305  13.690  1.00  0.00     0.021 C
HETATM   12  C17 UNL     1     -29.132  79.910  13.903  1.00  0.00     0.021 C
HETATM   13  C18 UNL     1     -30.555  80.136  13.377  1.00  0.00     0.124 C
ENDBRANCH   8   9
BRANCH   5  14
HETATM   14  N2  UNL     1     -30.903  78.878   7.758  1.00  0.00    -0.322 N
HETATM   15  C4  UNL     1     -31.526  77.739   7.754  1.00  0.00     0.112 A
HETATM   16  C5  UNL     1     -31.295  76.837   6.705  1.00  0.00     0.104 A
HETATM   17  N4  UNL     1     -32.384  77.403   8.727  1.00  0.00    -0.326 N
HETATM   18  C6  UNL     1     -31.942  75.619   6.674  1.00  0.00     0.147 A
HETATM   19  N3  UNL     1     -32.780  75.359   7.677  1.00  0.00    -0.321 N
HETATM   20  C12 UNL     1     -33.011  76.211   8.685  1.00  0.00     0.147 A
ATOM     21  H3  UNL     1     -33.271  74.465   7.676  1.00  0.00     0.169 HD
ATOM     22  H4  UNL     1     -32.562  78.048   9.496  1.00  0.00     0.169 HD
ATOM     23  H2  UNL     1     -30.247  79.141   7.023  1.00  0.00     0.169 HD
BRANCH  18  24
HETATM   24  O1  UNL     1     -31.674  74.778   5.620  1.00  0.00    -0.330 OA
BRANCH  24  25
HETATM   25  C7  UNL     1     -30.645  73.839   5.563  1.00  0.00     0.130 C
HETATM   26  C8  UNL     1     -30.547  73.367   4.109  1.00  0.00     0.032 C
HETATM   27  C9  UNL     1     -29.777  72.075   4.220  1.00  0.00     0.002 C
HETATM   28  C10 UNL     1     -30.327  71.436   5.458  1.00  0.00     0.002 C
HETATM   29  C11 UNL     1     -30.968  72.554   6.271  1.00  0.00     0.032 C
ENDBRANCH  24  25
ENDBRANCH  18  24
BRANCH  20  30
HETATM   30  C13 UNL     1     -33.954  75.847   9.757  1.00  0.00     0.307 C
HETATM   31  O2  UNL     1     -34.326  74.660   9.881  1.00  0.00    -0.298 OA
ENDBRANCH  20  30
ENDBRANCH   5  14
TORSDOF 5
ENDMDL