MODEL 2
REMARK VINA RESULT: -6.961022784      0.967      1.167
REMARK  5 active torsions:
REMARK  status: ('A' for Active; 'I' for Inactive)
REMARK    1  A    between atoms: C4_7  and  C5_8
REMARK    2  A    between atoms: C5_8  and  C7_11
REMARK    3  A    between atoms: C7_11  and  N3_12
REMARK    4  A    between atoms: C10_15  and  N4_16
REMARK    5  A    between atoms: C18_24  and  O1_25
ROOT
HETATM    1  C5  UNL     1     -33.246  76.117   9.162  1.00  0.00     0.175 C
HETATM    2  C6  UNL     1     -34.359  75.386   9.729  1.00  0.00     0.074 C
HETATM    3  N2  UNL     1     -35.246  74.755  10.192  1.00  0.00    -0.196 NA
ENDROOT
BRANCH   1   4
HETATM    4  C4  UNL     1     -32.652  75.281   8.102  1.00  0.00     0.061 A
HETATM    5  S1  UNL     1     -31.964  75.828   6.663  1.00  0.00    -0.050 SA
HETATM    6  C3  UNL     1     -31.327  74.336   6.087  1.00  0.00     0.174 A
HETATM    7  N1  UNL     1     -30.624  73.683   5.091  1.00  0.00    -0.324 N
HETATM    8  N5  UNL     1     -31.687  73.481   7.054  1.00  0.00    -0.208 N
HETATM    9  C2  UNL     1     -30.573  72.372   5.495  1.00  0.00     0.094 A
ATOM     10  H1  UNL     1     -30.230  74.089   4.242  1.00  0.00     0.169 HD
HETATM   11  C1  UNL     1     -29.936  71.316   4.672  1.00  0.00     0.090 C
HETATM   12  N6  UNL     1     -31.210  72.271   6.659  1.00  0.00    -0.279 N
ATOM     13  H6  UNL     1     -31.323  71.404   7.183  1.00  0.00     0.189 HD
HETATM   14  C18 UNL     1     -32.363  73.951   8.086  1.00  0.00     0.179 A
BRANCH  14  15
HETATM   15  O1  UNL     1     -32.809  73.130   9.179  1.00  0.00    -0.344 OA
ATOM     16  H1  UNL     1     -33.571  72.576   9.056  1.00  0.00     0.219 HD
ENDBRANCH  14  15
ENDBRANCH   1   4
BRANCH   1  17
HETATM   17  C7  UNL     1     -33.545  77.489   8.758  1.00  0.00     0.083 C
BRANCH  17  18
HETATM   18  N3  UNL     1     -32.688  78.506   9.166  1.00  0.00    -0.392 N
HETATM   19  C8  UNL     1     -31.724  78.145  10.188  1.00  0.00     0.124 C
HETATM   20  C9  UNL     1     -30.344  78.666   9.729  1.00  0.00     0.055 C
HETATM   21  C10 UNL     1     -30.334  80.184   9.845  1.00  0.00     0.226 C
HETATM   22  C16 UNL     1     -31.705  80.615   9.412  1.00  0.00     0.055 C
HETATM   23  C17 UNL     1     -32.271  79.577   8.424  1.00  0.00     0.124 C
BRANCH  21  24
HETATM   24  N4  UNL     1     -29.317  80.698   8.988  1.00  0.00     0.093 N
HETATM   25  C11 UNL     1     -27.994  80.217   9.324  1.00  0.00     0.273 C
HETATM   26  C12 UNL     1     -27.525  80.603  10.701  1.00  0.00     0.030 C
HETATM   27  C13 UNL     1     -27.308  82.116  10.644  1.00  0.00     0.003 C
HETATM   28  C14 UNL     1     -28.665  82.686  10.279  1.00  0.00     0.030 C
HETATM   29  C15 UNL     1     -29.238  82.149   9.016  1.00  0.00     0.273 C
ENDBRANCH  21  24
ENDBRANCH  17  18
ENDBRANCH   1  17
TORSDOF 5
ENDMDL