MODEL 1
REMARK VINA RESULT: -7.220874562      0.000      0.000
REMARK  5 active torsions:
REMARK  status: ('A' for Active; 'I' for Inactive)
REMARK    1  A    between atoms: C1_2  and  C2_4
REMARK    2  A    between atoms: N1_8  and  C6_9
REMARK    3  A    between atoms: C7_13  and  S1_14
REMARK    4  A    between atoms: S1_14  and  C8_15
REMARK    5  A    between atoms: C8_15  and  C9_16
ROOT
HETATM    1  C6  UNL     1     -32.666  76.698   7.703  1.00  0.00     0.165 A
HETATM    2  N2  UNL     1     -32.061  75.910   6.832  1.00  0.00    -0.269 N
ATOM      3  H2  UNL     1     -31.653  76.308   5.987  1.00  0.00     0.190 HD
HETATM    4  N3  UNL     1     -31.984  74.657   7.040  1.00  0.00    -0.206 N
HETATM    5  C7  UNL     1     -31.447  73.570   6.373  1.00  0.00     0.182 A
HETATM    6  N4  UNL     1     -31.693  72.481   7.117  1.00  0.00    -0.276 N
ATOM      7  H4  UNL     1     -31.408  71.535   6.865  1.00  0.00     0.189 HD
HETATM    8  N5  UNL     1     -32.349  72.792   8.211  1.00  0.00    -0.276 N
ATOM      9  H5  UNL     1     -32.661  72.160   8.949  1.00  0.00     0.189 HD
HETATM   10  C14 UNL     1     -32.522  74.150   8.147  1.00  0.00     0.190 A
HETATM   11  S2  UNL     1     -33.150  75.568   8.888  1.00  0.00    -0.013 SA
ENDROOT
BRANCH   1  12
HETATM   12  N1  UNL     1     -32.873  78.112   7.676  1.00  0.00    -0.359 N
HETATM   13  C5  UNL     1     -34.164  78.686   7.501  1.00  0.00     0.125 C
HETATM   14  C4  UNL     1     -34.453  79.817   8.461  1.00  0.00     0.021 C
HETATM   15  C3  UNL     1     -33.276  80.677   8.775  1.00  0.00     0.019 C
HETATM   16  C2  UNL     1     -32.064  80.399   7.917  1.00  0.00     0.105 C
HETATM   17  C15 UNL     1     -31.723  78.952   7.832  1.00  0.00     0.140 C
BRANCH  16  18
HETATM   18  C1  UNL     1     -32.196  81.077   6.630  1.00  0.00     0.178 C
HETATM   19  O1  UNL     1     -31.545  80.692   5.635  1.00  0.00    -0.648 OA
HETATM   20  O2  UNL     1     -33.045  82.156   6.496  1.00  0.00    -0.648 OA
ENDBRANCH  16  18
ENDBRANCH   1  12
BRANCH   5  21
HETATM   21  S1  UNL     1     -30.541  73.583   4.859  1.00  0.00    -0.090 SA
BRANCH  21  22
HETATM   22  C8  UNL     1     -29.675  72.107   4.452  1.00  0.00     0.087 C
BRANCH  22  23
HETATM   23  C9  UNL     1     -28.485  71.700   5.199  1.00  0.00    -0.005 C
HETATM   24  C10 UNL     1     -27.144  72.189   4.796  1.00  0.00     0.005 C
HETATM   25  C11 UNL     1     -26.300  71.515   5.921  1.00  0.00     0.000 C
HETATM   26  C12 UNL     1     -26.829  70.086   5.819  1.00  0.00     0.000 C
HETATM   27  C13 UNL     1     -28.250  70.200   5.247  1.00  0.00     0.005 C
ENDBRANCH  22  23
ENDBRANCH  21  22
ENDBRANCH   5  21
TORSDOF 5
ENDMDL