MODEL 3
REMARK VINA RESULT: -4.629767726      1.571      4.621
REMARK  5 active torsions:
REMARK  status: ('A' for Active; 'I' for Inactive)
REMARK    1  A    between atoms: O1_2  and  C2_3
REMARK    2  A    between atoms: C5_6  and  O2_7
REMARK    3  A    between atoms: C9_11  and  O3_12
REMARK    4  A    between atoms: C16_22  and  O7_23
REMARK    5  A    between atoms: C17_25  and  O8_26
ROOT
HETATM    1  C2  UNL     1     -32.074  77.264  11.138  1.00  0.00     0.113 A
HETATM    2  C3  UNL     1     -32.152  77.523   9.786  1.00  0.00     0.008 A
HETATM    3  C4  UNL     1     -32.968  76.666   8.906  1.00  0.00     0.054 C
HETATM    4  C5  UNL     1     -31.468  78.596   9.205  1.00  0.00     0.088 A
HETATM    5  C7  UNL     1     -30.720  79.387  10.000  1.00  0.00     0.043 A
HETATM    6  C8  UNL     1     -30.636  79.126  11.386  1.00  0.00     0.120 A
HETATM    7  C9  UNL     1     -31.307  78.071  11.961  1.00  0.00     0.136 A
HETATM    8  O4  UNL     1     -29.903  79.854  12.327  1.00  0.00    -0.314 OA
HETATM    9  C11 UNL     1     -28.836  80.740  11.993  1.00  0.00     0.301 C
HETATM   10  O5  UNL     1     -27.894  80.635  13.015  1.00  0.00    -0.323 OA
HETATM   11  C12 UNL     1     -26.719  81.059  12.406  1.00  0.00     0.160 C
HETATM   12  C13 UNL     1     -25.532  80.331  12.984  1.00  0.00     0.078 C
HETATM   13  C14 UNL     1     -26.609  82.558  12.691  1.00  0.00     0.078 C
HETATM   14  O6  UNL     1     -26.794  80.780  11.065  1.00  0.00    -0.343 OA
HETATM   15  C15 UNL     1     -28.041  80.211  10.817  1.00  0.00     0.212 C
HETATM   16  C16 UNL     1     -28.569  80.565   9.481  1.00  0.00     0.185 C
HETATM   17  C17 UNL     1     -30.068  80.528   9.352  1.00  0.00     0.191 C
ENDROOT
BRANCH   1  18
HETATM   18  O1  UNL     1     -32.764  76.193  11.684  1.00  0.00    -0.352 OA
HETATM   19  C1  UNL     1     -34.022  76.287  12.295  1.00  0.00     0.210 C
ENDBRANCH   1  18
BRANCH   7  20
HETATM   20  O3  UNL     1     -31.219  77.823  13.316  1.00  0.00    -0.351 OA
HETATM   21  C10 UNL     1     -30.260  76.836  13.720  1.00  0.00     0.210 C
ENDBRANCH   7  20
BRANCH   4  22
HETATM   22  O2  UNL     1     -31.611  78.761   7.870  1.00  0.00    -0.355 OA
HETATM   23  C6  UNL     1     -30.869  77.973   6.918  1.00  0.00     0.210 C
ENDBRANCH   4  22
BRANCH  17  24
HETATM   24  O8  UNL     1     -30.476  80.748   8.076  1.00  0.00    -0.383 OA
HETATM   25  C18 UNL     1     -30.909  82.018   7.790  1.00  0.00     0.202 C
ENDBRANCH  17  24
BRANCH  16  26
HETATM   26  O7  UNL     1     -28.022  79.716   8.531  1.00  0.00    -0.390 OA
ATOM     27  H7  UNL     1     -27.900  80.191   7.717  1.00  0.00     0.210 HD
ENDBRANCH  16  26
TORSDOF 5
ENDMDL