MODEL 1
REMARK VINA RESULT: -6.582409225      0.000      0.000
REMARK  7 active torsions:
REMARK  status: ('A' for Active; 'I' for Inactive)
REMARK    1  A    between atoms: S1_2  and  C2_3
REMARK    2  A    between atoms: N4_15  and  C5_16
REMARK    3  A    between atoms: C5_16  and  O4_17
REMARK    4  A    between atoms: C5_16  and  C6_19
REMARK    5  A    between atoms: C6_19  and  N5_20
REMARK    6  A    between atoms: C6_19  and  C7_24
REMARK    7  A    between atoms: C8_26  and  C9_27
ROOT
HETATM    1  C2  UNL     1     -12.875 -15.428  10.699  1.00  0.00     0.239 C
HETATM    2  O1  UNL     1     -12.497 -16.582  10.093  1.00  0.00    -0.265 OA
HETATM    3  N1  UNL     1     -13.471 -17.551  10.173  1.00  0.00    -0.056 NA
HETATM    4  C3  UNL     1     -12.852 -18.537  11.081  1.00  0.00     0.347 C
HETATM    5  N2  UNL     1     -12.567 -17.856  12.272  1.00  0.00    -0.352 N
ATOM      6  H2  UNL     1     -13.222 -17.836  13.053  1.00  0.00     0.159 HD
HETATM    7  C4  UNL     1     -11.339 -17.209  12.325  1.00  0.00     0.296 C
HETATM    8  N3  UNL     1     -10.477 -17.511  11.241  1.00  0.00    -0.278 N
ATOM      9  H3  UNL     1      -9.595 -17.051  11.016  1.00  0.00     0.176 HD
HETATM   10  S2  UNL     1     -11.210 -18.795  10.387  1.00  0.00     0.268 S
HETATM   11  O2  UNL     1     -10.690 -20.114  10.820  1.00  0.00    -0.202 OA
HETATM   12  O3  UNL     1     -11.210 -18.599   8.911  1.00  0.00    -0.202 OA
HETATM   13  N4  UNL     1     -11.432 -15.829  12.684  1.00  0.00    -0.332 N
HETATM   14  C8  UNL     1     -12.061 -14.932  11.821  1.00  0.00     0.215 C
ENDROOT
BRANCH  13  15
HETATM   15  C5  UNL     1     -11.812 -15.582  14.044  1.00  0.00     0.257 C
BRANCH  15  16
HETATM   16  O4  UNL     1     -13.139 -15.937  14.266  1.00  0.00    -0.374 OA
ATOM     17  H4  UNL     1     -13.202 -16.650  14.891  1.00  0.00     0.212 HD
ENDBRANCH  15  16
BRANCH  15  18
HETATM   18  C6  UNL     1     -10.958 -16.213  15.086  1.00  0.00     0.292 C
BRANCH  18  19
HETATM   19  N5  UNL     1     -11.750 -16.280  16.309  1.00  0.00    -0.065 N
ATOM     20  H53 UNL     1     -11.263 -15.901  17.122  1.00  0.00     0.275 HD
ATOM     21  H52 UNL     1     -12.535 -15.630  16.313  1.00  0.00     0.275 HD
ATOM     22  H51 UNL     1     -12.035 -17.252  16.431  1.00  0.00     0.275 HD
ENDBRANCH  18  19
BRANCH  18  23
HETATM   23  C7  UNL     1      -9.724 -15.473  15.380  1.00  0.00     0.268 C
HETATM   24  O5  UNL     1      -9.627 -14.764  16.341  1.00  0.00    -0.304 OA
ENDBRANCH  18  23
ENDBRANCH  15  18
ENDBRANCH  13  15
BRANCH  14  25
HETATM   25  C9  UNL     1     -11.021 -13.968  11.300  1.00  0.00     0.257 C
HETATM   26  N6  UNL     1     -10.146 -14.303  10.230  1.00  0.00    -0.060 NA
HETATM   27  O6  UNL     1     -10.876 -12.815  11.790  1.00  0.00    -0.274 OA
ENDBRANCH  14  25
BRANCH   1  28
HETATM   28  S1  UNL     1     -14.649 -15.591  11.151  1.00  0.00    -0.137 SA
HETATM   29  C1  UNL     1     -15.230 -14.181  12.086  1.00  0.00     0.092 C
ENDBRANCH   1  28
TORSDOF 7
ENDMDL