MODEL 1
REMARK VINA RESULT: -7.567241351      0.000      0.000
REMARK  9 active torsions:
REMARK  status: ('A' for Active; 'I' for Inactive)
REMARK    1  A    between atoms: N1_1  and  C1_4
REMARK    2  A    between atoms: C7_21  and  C8_22
REMARK    3  A    between atoms: C8_22  and  C9_23
REMARK    4  A    between atoms: C9_23  and  N7_24
REMARK    5  A    between atoms: N7_24  and  C10_25
REMARK    6  A    between atoms: N7_24  and  C11_27
REMARK    7  A    between atoms: C11_27  and  O4_28
REMARK    8  A    between atoms: C12_31  and  O6_32
REMARK    9  A    between atoms: N8_34  and  O7_35
ROOT
HETATM    1  C1  UNL     1     -16.398 -12.113  12.955  1.00  0.00     0.706 A
HETATM    2  N2  UNL     1     -17.335 -12.037  12.013  1.00  0.00    -0.019 N
ATOM      3  H2  UNL     1     -17.986 -11.259  11.896  1.00  0.00     0.203 HD
HETATM    4  C2  UNL     1     -17.297 -13.140  11.236  1.00  0.00     0.723 A
HETATM    5  N3  UNL     1     -18.035 -13.528  10.162  1.00  0.00    -0.170 N
ATOM      6  H3  UNL     1     -18.788 -12.949   9.791  1.00  0.00     0.186 HD
HETATM    7  C3  UNL     1     -17.726 -14.699   9.622  1.00  0.00     0.180 A
HETATM    8  C4  UNL     1     -16.715 -15.508  10.099  1.00  0.00     0.153 A
HETATM    9  C5  UNL     1     -15.980 -15.096  11.189  1.00  0.00     0.313 A
HETATM   10  O1  UNL     1     -15.055 -15.817  11.640  1.00  0.00    -0.263 OA
HETATM   11  N4  UNL     1     -16.302 -13.895  11.736  1.00  0.00    -0.030 N
HETATM   12  N5  UNL     1     -15.751 -13.288  12.774  1.00  0.00    -0.108 N
ATOM     13  H5  UNL     1     -14.977 -13.642  13.337  1.00  0.00     0.207 HD
HETATM   14  N6  UNL     1     -16.156 -16.792   9.743  1.00  0.00    -0.317 N
ATOM     15  H6  UNL     1     -15.327 -17.067  10.270  1.00  0.00     0.169 HD
HETATM   16  C6  UNL     1     -16.589 -17.721   8.773  1.00  0.00     0.251 C
HETATM   17  O2  UNL     1     -15.659 -18.520   8.433  1.00  0.00    -0.270 OA
HETATM   18  C7  UNL     1     -17.841 -18.060   8.006  1.00  0.00     0.220 C
HETATM   19  O5  UNL     1     -18.874 -17.257   8.270  1.00  0.00    -0.328 OA
HETATM   20  C12 UNL     1     -19.036 -16.064   7.703  1.00  0.00     0.399 C
HETATM   21  N8  UNL     1     -18.613 -14.916   8.516  1.00  0.00    -0.188 N
ENDROOT
BRANCH  18  22
HETATM   22  C8  UNL     1     -17.462 -18.297   6.593  1.00  0.00     0.062 C
BRANCH  22  23
HETATM   23  C9  UNL     1     -17.822 -19.684   6.101  1.00  0.00     0.130 C
BRANCH  23  24
HETATM   24  N7  UNL     1     -17.537 -19.864   4.711  1.00  0.00    -0.338 N
BRANCH  24  25
HETATM   25  C10 UNL     1     -17.326 -21.153   4.142  1.00  0.00     0.352 C
HETATM   26  O3  UNL     1     -16.614 -21.246   3.120  1.00  0.00    -0.283 OA
ENDBRANCH  24  25
BRANCH  24  27
HETATM   27  C11 UNL     1     -17.453 -18.723   3.820  1.00  0.00     0.292 C
BRANCH  27  28
HETATM   28  O4  UNL     1     -18.365 -18.835   2.754  1.00  0.00    -0.382 OA
ATOM     29  H4  UNL     1     -18.199 -18.180   2.085  1.00  0.00     0.211 HD
ENDBRANCH  27  28
ENDBRANCH  24  27
ENDBRANCH  23  24
ENDBRANCH  22  23
ENDBRANCH  18  22
BRANCH  20  30
HETATM   30  O6  UNL     1     -20.432 -15.858   7.541  1.00  0.00    -0.353 OA
ATOM     31  H6  UNL     1     -20.544 -15.107   6.970  1.00  0.00     0.214 HD
ENDBRANCH  20  30
BRANCH  21  32
HETATM   32  O7  UNL     1     -19.202 -13.758   8.137  1.00  0.00    -0.281 OA
ATOM     33  H7  UNL     1     -18.615 -13.240   7.599  1.00  0.00     0.245 HD
ENDBRANCH  21  32
BRANCH   1  34
HETATM   34  N1  UNL     1     -16.118 -11.255  13.891  1.00  0.00    -0.233 N
ATOM     35  H12 UNL     1     -16.788 -10.912  14.579  1.00  0.00     0.174 HD
ATOM     36  H11 UNL     1     -15.228 -10.799  14.089  1.00  0.00     0.174 HD
ENDBRANCH   1  34
TORSDOF 9
ENDMDL