MODEL 5
REMARK VINA RESULT: -7.825098485      2.786      3.648
REMARK  8 active torsions:
REMARK  status: ('A' for Active; 'I' for Inactive)
REMARK    1  A    between atoms: N3_9  and  C5_10
REMARK    2  A    between atoms: C7_17  and  C8_18
REMARK    3  A    between atoms: C8_18  and  N6_19
REMARK    4  A    between atoms: C8_18  and  C9_23
REMARK    5  A    between atoms: C9_23  and  O4_24
REMARK    6  A    between atoms: C9_23  and  C10_26
REMARK    7  A    between atoms: C10_26  and  O5_27
REMARK    8  A    between atoms: C10_26  and  C11_29
ROOT
HETATM    1  C5  UNL     1     -18.508 -14.034   6.113  1.00  0.00     0.351 C
HETATM    2  N4  UNL     1     -19.933 -14.169   5.995  1.00  0.00    -0.299 N
ATOM      3  H4  UNL     1     -20.387 -13.921   5.115  1.00  0.00     0.168 HD
HETATM    4  C6  UNL     1     -20.732 -14.644   7.089  1.00  0.00     0.321 C
HETATM    5  O3  UNL     1     -21.969 -14.457   7.090  1.00  0.00    -0.247 OA
HETATM    6  N5  UNL     1     -19.997 -15.307   8.103  1.00  0.00    -0.314 N
ATOM      7  H5  UNL     1     -20.481 -15.707   8.907  1.00  0.00     0.166 HD
HETATM    8  C7  UNL     1     -18.556 -15.415   7.997  1.00  0.00     0.262 C
HETATM    9  O7  UNL     1     -17.956 -14.478   7.273  1.00  0.00    -0.322 OA
ENDROOT
BRANCH   8  10
HETATM   10  C8  UNL     1     -18.034 -15.731   9.364  1.00  0.00     0.263 C
BRANCH  10  11
HETATM   11  N6  UNL     1     -18.054 -14.410  10.069  1.00  0.00    -0.068 N
ATOM     12  H63 UNL     1     -18.552 -13.674   9.569  1.00  0.00     0.275 HD
ATOM     13  H62 UNL     1     -18.637 -14.388  10.905  1.00  0.00     0.275 HD
ATOM     14  H61 UNL     1     -17.068 -14.210  10.239  1.00  0.00     0.275 HD
ENDBRANCH  10  11
BRANCH  10  15
HETATM   15  C9  UNL     1     -16.614 -16.247   9.432  1.00  0.00     0.190 C
BRANCH  15  16
HETATM   16  O4  UNL     1     -16.150 -15.751  10.718  1.00  0.00    -0.390 OA
ATOM     17  H4  UNL     1     -15.327 -16.210  10.837  1.00  0.00     0.210 HD
ENDBRANCH  15  16
BRANCH  15  18
HETATM   18  C10 UNL     1     -16.573 -17.733   9.637  1.00  0.00     0.237 C
BRANCH  18  19
HETATM   19  O5  UNL     1     -17.646 -18.307  10.239  1.00  0.00    -0.384 OA
ATOM     20  H5  UNL     1     -17.487 -18.795  11.038  1.00  0.00     0.210 HD
ENDBRANCH  18  19
BRANCH  18  21
HETATM   21  C11 UNL     1     -15.339 -18.127  10.400  1.00  0.00     0.262 C
HETATM   22  N7  UNL     1     -14.048 -18.036   9.824  1.00  0.00    -0.060 NA
HETATM   23  O6  UNL     1     -15.497 -18.541  11.571  1.00  0.00    -0.274 OA
ENDBRANCH  18  21
ENDBRANCH  15  18
ENDBRANCH  10  15
ENDBRANCH   8  10
BRANCH   1  24
HETATM   24  N3  UNL     1     -17.916 -14.551   4.898  1.00  0.00    -0.204 N
HETATM   25  C4  UNL     1     -17.688 -15.868   4.700  1.00  0.00     0.339 A
HETATM   26  N2  UNL     1     -17.137 -16.353   3.570  1.00  0.00    -0.255 N
HETATM   27  O2  UNL     1     -17.996 -16.700   5.603  1.00  0.00    -0.246 OA
HETATM   28  C2  UNL     1     -16.797 -15.482   2.584  1.00  0.00     0.336 A
HETATM   29  C3  UNL     1     -16.918 -17.772   3.420  1.00  0.00     0.166 C
HETATM   30  N1  UNL     1     -17.008 -14.184   2.748  1.00  0.00    -0.255 N
HETATM   31  O1  UNL     1     -16.280 -15.933   1.521  1.00  0.00    -0.246 OA
HETATM   32  C1  UNL     1     -16.641 -13.253   1.688  1.00  0.00     0.166 C
HETATM   33  C12 UNL     1     -17.566 -13.724   3.902  1.00  0.00     0.339 A
HETATM   34  O8  UNL     1     -17.737 -12.499   3.989  1.00  0.00    -0.246 OA
ENDBRANCH   1  24
TORSDOF 8
ENDMDL