MODEL 4
REMARK VINA RESULT: -8.090004583      1.632      2.670
REMARK  7 active torsions:
REMARK  status: ('A' for Active; 'I' for Inactive)
REMARK    1  A    between atoms: N1_1  and  S1_4
REMARK    2  A    between atoms: S1_4  and  N2_7
REMARK    3  A    between atoms: N2_7  and  N3_9
REMARK    4  A    between atoms: C3_15  and  N4_16
REMARK    5  A    between atoms: N4_16  and  C4_18
REMARK    6  A    between atoms: C4_18  and  C5_19
REMARK    7  A    between atoms: C9_32  and  O8_33
ROOT
HETATM    1  N3  UNL     1     -17.118 -20.015   6.313  1.00  0.00    -0.270 N
ATOM      2  H3  UNL     1     -17.315 -20.770   6.968  1.00  0.00     0.189 HD
HETATM    3  C1  UNL     1     -17.322 -18.775   6.696  1.00  0.00     0.178 C
HETATM    4  O3  UNL     1     -17.794 -18.521   7.969  1.00  0.00    -0.259 OA
HETATM    5  C2  UNL     1     -17.858 -17.234   8.458  1.00  0.00     0.295 C
HETATM    6  O4  UNL     1     -17.565 -16.937   9.646  1.00  0.00    -0.262 OA
HETATM    7  C3  UNL     1     -18.308 -16.195   7.459  1.00  0.00     0.252 C
HETATM    8  C8  UNL     1     -17.421 -16.321   6.300  1.00  0.00     0.195 C
HETATM    9  O7  UNL     1     -16.931 -15.364   5.686  1.00  0.00    -0.292 OA
HETATM   10  C9  UNL     1     -17.048 -17.655   5.781  1.00  0.00     0.266 C
ENDROOT
BRANCH   7  11
HETATM   11  N4  UNL     1     -18.315 -14.951   8.131  1.00  0.00    -0.398 N
ATOM     12  H4  UNL     1     -17.737 -14.176   7.805  1.00  0.00     0.154 HD
BRANCH  11  13
HETATM   13  C4  UNL     1     -19.146 -14.810   9.270  1.00  0.00     0.179 C
BRANCH  13  14
HETATM   14  C5  UNL     1     -18.357 -14.056  10.308  1.00  0.00     0.111 A
HETATM   15  N5  UNL     1     -17.124 -14.440  10.683  1.00  0.00    -0.294 N
HETATM   16  N6  UNL     1     -16.402 -13.804  11.589  1.00  0.00    -0.251 N
ATOM     17  H5  UNL     1     -16.724 -15.269  10.242  1.00  0.00     0.187 HD
HETATM   18  C6  UNL     1     -16.889 -12.717  12.188  1.00  0.00     0.341 A
ATOM     19  H6  UNL     1     -15.472 -14.146  11.831  1.00  0.00     0.191 HD
HETATM   20  O5  UNL     1     -16.196 -12.096  13.065  1.00  0.00    -0.245 OA
HETATM   21  N7  UNL     1     -18.124 -12.296  11.842  1.00  0.00    -0.273 N
HETATM   22  C7  UNL     1     -18.870 -12.932  10.921  1.00  0.00     0.275 A
ATOM     23  H7  UNL     1     -18.505 -11.465  12.294  1.00  0.00     0.173 HD
HETATM   24  O6  UNL     1     -20.032 -12.507  10.618  1.00  0.00    -0.266 OA
ENDBRANCH  13  14
ENDBRANCH  11  13
ENDBRANCH   7  11
BRANCH  10  25
HETATM   25  O8  UNL     1     -17.714 -17.950   4.582  1.00  0.00    -0.380 OA
ATOM     26  H8  UNL     1     -17.698 -17.154   4.063  1.00  0.00     0.211 HD
ENDBRANCH  10  25
BRANCH   1  27
HETATM   27  N2  UNL     1     -16.648 -20.331   5.055  1.00  0.00    -0.208 N
ATOM     28  H2  UNL     1     -15.722 -19.994   4.790  1.00  0.00     0.201 HD
BRANCH  27  29
HETATM   29  S1  UNL     1     -17.538 -21.266   3.903  1.00  0.00     0.330 S
HETATM   30  O1  UNL     1     -18.083 -22.467   4.654  1.00  0.00    -0.181 OA
HETATM   31  O2  UNL     1     -16.639 -21.792   2.836  1.00  0.00    -0.181 OA
BRANCH  29  32
HETATM   32  N1  UNL     1     -18.864 -20.387   3.251  1.00  0.00    -0.310 N
ATOM     33  H12 UNL     1     -19.585 -20.779   2.647  1.00  0.00     0.170 HD
ATOM     34  H11 UNL     1     -18.799 -19.420   3.573  1.00  0.00     0.170 HD
ENDBRANCH  29  32
ENDBRANCH  27  29
ENDBRANCH   1  27
TORSDOF 7
ENDMDL