MODEL 3
REMARK VINA RESULT: -8.405510362      1.946      3.216
REMARK  7 active torsions:
REMARK  status: ('A' for Active; 'I' for Inactive)
REMARK    1  A    between atoms: C2_5  and  N3_6
REMARK    2  A    between atoms: N3_6  and  C3_8
REMARK    3  A    between atoms: C3_8  and  C4_9
REMARK       I    between atoms: C4_9  and  N4_11
REMARK    4  A    between atoms: N4_11  and  C5_13
REMARK    5  A    between atoms: C5_13  and  C6_14
REMARK    6  A    between atoms: C6_14  and  N5_15
REMARK    7  A    between atoms: C6_14  and  C7_19
ROOT
HETATM    1  C1  UNL     1     -16.888 -19.612   4.152  1.00  0.00     0.178 C
HETATM    2  N1  UNL     1     -17.127 -18.516   5.031  1.00  0.00    -0.288 N
HETATM    3  N2  UNL     1     -17.299 -18.680   6.352  1.00  0.00    -0.281 N
ATOM      4  H2  UNL     1     -17.274 -19.582   6.827  1.00  0.00     0.189 HD
HETATM    5  C2  UNL     1     -17.505 -17.525   6.957  1.00  0.00     0.146 A
HETATM    6  C8  UNL     1     -17.472 -16.545   6.003  1.00  0.00     0.128 A
HETATM    7  N6  UNL     1     -17.604 -15.211   5.961  1.00  0.00    -0.183 N
ATOM      8  H6  UNL     1     -17.780 -14.692   6.821  1.00  0.00     0.184 HD
HETATM    9  C9  UNL     1     -17.505 -14.554   4.795  1.00  0.00     0.711 A
HETATM   10  N7  UNL     1     -17.608 -13.238   4.553  1.00  0.00    -0.138 N
ATOM     11  H7  UNL     1     -17.783 -12.500   5.235  1.00  0.00     0.189 HD
HETATM   12  C10 UNL     1     -17.434 -13.091   3.230  1.00  0.00     0.356 A
HETATM   13  O4  UNL     1     -17.464 -11.985   2.634  1.00  0.00    -0.244 OA
HETATM   14  N8  UNL     1     -17.226 -14.284   2.643  1.00  0.00    -0.222 N
HETATM   15  C11 UNL     1     -17.005 -14.480   1.246  1.00  0.00     0.184 C
HETATM   16  N9  UNL     1     -17.274 -15.168   3.625  1.00  0.00    -0.039 N
HETATM   17  C12 UNL     1     -17.134 -16.504   3.619  1.00  0.00     0.313 A
HETATM   18  O5  UNL     1     -16.919 -17.078   2.536  1.00  0.00    -0.263 OA
HETATM   19  C13 UNL     1     -17.232 -17.195   4.808  1.00  0.00     0.152 A
ENDROOT
BRANCH   5  20
HETATM   20  N3  UNL     1     -17.709 -17.290   8.206  1.00  0.00    -0.365 N
ATOM     21  H3  UNL     1     -18.618 -16.972   8.543  1.00  0.00     0.161 HD
BRANCH  20  22
HETATM   22  C3  UNL     1     -16.600 -17.492   9.118  1.00  0.00     0.224 C
BRANCH  22  23
HETATM   23  C4  UNL     1     -16.290 -16.245   9.886  1.00  0.00     0.235 C
HETATM   24  O1  UNL     1     -15.126 -16.025  10.254  1.00  0.00    -0.272 OA
HETATM   25  N4  UNL     1     -17.375 -15.371  10.152  1.00  0.00    -0.357 N
ATOM     26  H4  UNL     1     -18.313 -15.608   9.827  1.00  0.00     0.162 HD
BRANCH  25  27
HETATM   27  C5  UNL     1     -17.154 -14.155  10.877  1.00  0.00     0.166 C
BRANCH  27  28
HETATM   28  C6  UNL     1     -18.251 -13.164  10.587  1.00  0.00     0.300 C
BRANCH  28  29
HETATM   29  N5  UNL     1     -19.044 -13.006  11.804  1.00  0.00    -0.064 N
ATOM     30  H53 UNL     1     -18.881 -13.749  12.482  1.00  0.00     0.275 HD
ATOM     31  H52 UNL     1     -18.732 -12.225  12.381  1.00  0.00     0.275 HD
ATOM     32  H51 UNL     1     -20.024 -12.928  11.530  1.00  0.00     0.275 HD
ENDBRANCH  28  29
BRANCH  28  33
HETATM   33  C7  UNL     1     -19.076 -13.737   9.494  1.00  0.00     0.206 C
HETATM   34  O2  UNL     1     -20.212 -14.205   9.721  1.00  0.00    -0.646 OA
HETATM   35  O3  UNL     1     -18.567 -13.747   8.211  1.00  0.00    -0.646 OA
ENDBRANCH  28  33
ENDBRANCH  27  28
ENDBRANCH  25  27
ENDBRANCH  22  23
ENDBRANCH  20  22
ENDBRANCH   5  20
TORSDOF 7
ENDMDL