MODEL 5
REMARK VINA RESULT: -6.234196605      2.037      5.763
REMARK  8 active torsions:
REMARK  status: ('A' for Active; 'I' for Inactive)
REMARK    1  A    between atoms: C1_4  and  C2_5
REMARK    2  A    between atoms: C3_8  and  N3_9
REMARK    3  A    between atoms: N4_15  and  C8_16
REMARK    4  A    between atoms: C8_16  and  C9_17
REMARK    5  A    between atoms: C10_20  and  C11_21
REMARK    6  A    between atoms: C11_21  and  N6_22
REMARK    7  A    between atoms: C11_21  and  O2_26
REMARK    8  A    between atoms: N9_33  and  O3_34
ROOT
HETATM    1  C2  UNL     1     -12.874 -19.495  14.248  1.00  0.00     0.135 A
HETATM    2  N2  UNL     1     -12.354 -19.200  13.034  1.00  0.00    -0.183 N
ATOM      3  H2  UNL     1     -12.369 -19.918  12.310  1.00  0.00     0.184 HD
HETATM    4  C3  UNL     1     -11.808 -17.982  12.736  1.00  0.00     0.700 A
HETATM    5  N4  UNL     1     -11.795 -17.050  13.692  1.00  0.00    -0.092 N
HETATM    6  N9  UNL     1     -12.299 -17.292  14.915  1.00  0.00    -0.104 N
HETATM    7  C14 UNL     1     -12.826 -18.500  15.174  1.00  0.00     0.316 A
HETATM    8  O4  UNL     1     -13.294 -18.697  16.340  1.00  0.00    -0.262 OA
ENDROOT
BRANCH   5   9
HETATM    9  C8  UNL     1     -11.300 -15.737  13.463  1.00  0.00     0.203 C
BRANCH   9  10
HETATM   10  C9  UNL     1     -12.345 -14.683  13.165  1.00  0.00     0.162 C
HETATM   11  N5  UNL     1     -13.657 -14.954  13.548  1.00  0.00    -0.400 N
HETATM   12  C10 UNL     1     -14.725 -14.615  12.673  1.00  0.00     0.151 C
ATOM     13  H5  UNL     1     -13.850 -15.391  14.449  1.00  0.00     0.154 HD
HETATM   14  C12 UNL     1     -14.427 -15.052  11.251  1.00  0.00     0.149 C
HETATM   15  N7  UNL     1     -13.142 -14.541  10.900  1.00  0.00    -0.378 N
HETATM   16  C13 UNL     1     -12.199 -14.366  11.727  1.00  0.00     0.113 C
ATOM     17  H7  UNL     1     -12.973 -14.302   9.923  1.00  0.00     0.160 HD
HETATM   18  N8  UNL     1     -10.918 -13.830  11.255  1.00  0.00    -0.086 NA
BRANCH  12  19
HETATM   19  C11 UNL     1     -15.018 -13.133  12.635  1.00  0.00     0.340 C
BRANCH  19  20
HETATM   20  N6  UNL     1     -16.337 -12.816  12.140  1.00  0.00    -0.051 N
ATOM     21  H63 UNL     1     -16.824 -13.662  11.844  1.00  0.00     0.277 HD
ATOM     22  H62 UNL     1     -16.949 -12.526  12.903  1.00  0.00     0.277 HD
ATOM     23  H61 UNL     1     -16.338 -12.122  11.393  1.00  0.00     0.277 HD
ENDBRANCH  19  20
BRANCH  19  24
HETATM   24  O2  UNL     1     -14.940 -12.603  13.949  1.00  0.00    -0.368 OA
ATOM     25  H2  UNL     1     -14.567 -13.255  14.532  1.00  0.00     0.212 HD
ENDBRANCH  19  24
ENDBRANCH  12  19
ENDBRANCH   9  10
ENDBRANCH   5   9
BRANCH   4  26
HETATM   26  N3  UNL     1     -11.258 -17.889  11.444  1.00  0.00    -0.212 N
HETATM   27  C4  UNL     1     -12.174 -17.895  10.312  1.00  0.00     0.167 C
HETATM   28  C5  UNL     1     -11.585 -18.491   9.078  1.00  0.00     0.188 C
HETATM   29  O1  UNL     1     -10.379 -17.921   8.777  1.00  0.00    -0.388 OA
HETATM   30  C6  UNL     1      -9.891 -17.043   9.718  1.00  0.00     0.188 C
HETATM   31  C7  UNL     1      -9.866 -17.737  11.095  1.00  0.00     0.167 C
ENDBRANCH   4  26
BRANCH   6  32
HETATM   32  O3  UNL     1     -12.297 -16.354  15.912  1.00  0.00    -0.264 OA
ATOM     33  H3  UNL     1     -11.824 -16.475  16.726  1.00  0.00     0.247 HD
ENDBRANCH   6  32
BRANCH   1  34
HETATM   34  C1  UNL     1     -13.424 -20.801  14.454  1.00  0.00     0.116 C
HETATM   35  N1  UNL     1     -14.231 -21.200  15.351  1.00  0.00    -0.406 N
ATOM     36  H12 UNL     1     -14.517 -20.475  16.009  1.00  0.00     0.155 HD
ATOM     37  H11 UNL     1     -14.623 -22.130  15.497  1.00  0.00     0.155 HD
ENDBRANCH   1  34
TORSDOF 8
ENDMDL