MODEL 2
REMARK VINA RESULT: -6.009837521      2.180      2.685
REMARK  13 active torsions:
REMARK  status: ('A' for Active; 'I' for Inactive)
REMARK    1  A    between atoms: S1_2  and  N1_4
REMARK    2  A    between atoms: S1_2  and  C2_9
REMARK    3  A    between atoms: N1_4  and  N2_6
REMARK    4  A    between atoms: C2_9  and  N3_10
REMARK    5  A    between atoms: C2_9  and  C5_25
REMARK    6  A    between atoms: N3_10  and  C3_12
REMARK    7  A    between atoms: C4_17  and  S2_18
REMARK    8  A    between atoms: S2_18  and  N6_19
REMARK    9  A    between atoms: C5_25  and  O4_26
REMARK   10  A    between atoms: C5_25  and  C6_28
REMARK   11  A    between atoms: C6_28  and  N7_29
REMARK   12  A    between atoms: C6_28  and  C7_33
REMARK   13  A    between atoms: C7_33  and  O5_34
ROOT
HETATM    1  C2  UNL     1     -12.187 -15.037  12.660  1.00  0.00     0.217 C
ENDROOT
BRANCH   1   2
HETATM    2  S1  UNL     1     -11.182 -16.280  13.440  1.00  0.00     0.058 S
HETATM    3  C1  UNL     1     -10.753 -15.821  15.097  1.00  0.00     0.140 C
HETATM    4  O1  UNL     1     -11.931 -17.578  13.503  1.00  0.00    -0.247 OA
BRANCH   2   5
HETATM    5  N1  UNL     1      -9.857 -16.521  12.644  1.00  0.00    -0.265 N
ATOM      6  H1  UNL     1      -9.151 -15.785  12.620  1.00  0.00     0.196 HD
BRANCH   5   7
HETATM    7  N2  UNL     1      -9.619 -17.715  11.969  1.00  0.00    -0.338 N
ATOM      8  H22 UNL     1     -10.252 -17.975  11.213  1.00  0.00     0.177 HD
ATOM      9  H21 UNL     1      -8.837 -18.321  12.215  1.00  0.00     0.177 HD
ENDBRANCH   5   7
ENDBRANCH   2   5
ENDBRANCH   1   2
BRANCH   1  10
HETATM   10  N3  UNL     1     -13.421 -14.955  13.405  1.00  0.00    -0.350 N
ATOM     11  H3  UNL     1     -13.488 -15.428  14.307  1.00  0.00     0.163 HD
BRANCH  10  12
HETATM   12  C3  UNL     1     -14.451 -14.297  12.957  1.00  0.00     0.163 A
HETATM   13  N4  UNL     1     -14.900 -13.112  13.372  1.00  0.00    -0.278 N
HETATM   14  N5  UNL     1     -15.927 -12.619  12.816  1.00  0.00    -0.281 N
ATOM     15  H4  UNL     1     -14.426 -12.611  14.123  1.00  0.00     0.189 HD
HETATM   16  C4  UNL     1     -16.542 -13.268  11.843  1.00  0.00     0.208 A
ATOM     17  H5  UNL     1     -16.282 -11.713  13.123  1.00  0.00     0.188 HD
HETATM   18  S3  UNL     1     -15.582 -14.674  11.723  1.00  0.00    -0.020 SA
BRANCH  16  19
HETATM   19  S2  UNL     1     -17.972 -12.726  10.969  1.00  0.00     0.280 S
HETATM   20  O2  UNL     1     -17.999 -13.283   9.583  1.00  0.00    -0.199 OA
HETATM   21  O3  UNL     1     -19.206 -13.198  11.720  1.00  0.00    -0.199 OA
BRANCH  19  22
HETATM   22  N6  UNL     1     -18.034 -11.001  10.881  1.00  0.00    -0.323 N
ATOM     23  H62 UNL     1     -17.311 -10.390  11.261  1.00  0.00     0.169 HD
ATOM     24  H61 UNL     1     -18.879 -10.686  10.403  1.00  0.00     0.169 HD
ENDBRANCH  19  22
ENDBRANCH  16  19
ENDBRANCH  10  12
ENDBRANCH   1  10
BRANCH   1  25
HETATM   25  C5  UNL     1     -12.549 -15.443  11.248  1.00  0.00     0.186 C
BRANCH  25  26
HETATM   26  O4  UNL     1     -12.244 -16.745  10.954  1.00  0.00    -0.390 OA
ATOM     27  H4  UNL     1     -12.591 -17.040  10.120  1.00  0.00     0.210 HD
ENDBRANCH  25  26
BRANCH  25  28
HETATM   28  C6  UNL     1     -11.914 -14.460  10.282  1.00  0.00     0.238 C
BRANCH  28  29
HETATM   29  N7  UNL     1     -11.336 -13.372  11.054  1.00  0.00    -0.070 N
ATOM     30  H73 UNL     1     -10.569 -12.909  10.567  1.00  0.00     0.274 HD
ATOM     31  H72 UNL     1     -11.960 -12.568  11.126  1.00  0.00     0.274 HD
ATOM     32  H71 UNL     1     -11.059 -13.738  11.965  1.00  0.00     0.274 HD
ENDBRANCH  28  29
BRANCH  28  33
HETATM   33  C7  UNL     1     -10.869 -15.119   9.426  1.00  0.00     0.199 C
BRANCH  33  34
HETATM   34  O5  UNL     1      -9.686 -15.245  10.157  1.00  0.00    -0.399 OA
ATOM     35  H5  UNL     1      -8.969 -15.437   9.563  1.00  0.00     0.209 HD
ENDBRANCH  33  34
ENDBRANCH  28  33
ENDBRANCH  25  28
ENDBRANCH   1  25
TORSDOF 13
ENDMDL