MODEL 3
REMARK VINA RESULT: -8.786382754      2.068      3.045
REMARK  8 active torsions:
REMARK  status: ('A' for Active; 'I' for Inactive)
REMARK    1  A    between atoms: N1_1  and  N2_4
REMARK       I    between atoms: N2_4  and  C1_6
REMARK    2  A    between atoms: C1_6  and  C2_8
REMARK    3  A    between atoms: C2_8  and  N3_9
REMARK    4  A    between atoms: C4_13  and  N5_14
REMARK    5  A    between atoms: N5_14  and  C5_16
REMARK    6  A    between atoms: C8_25  and  N8_26
REMARK    7  A    between atoms: N8_26  and  C9_28
REMARK    8  A    between atoms: C9_28  and  C10_29
ROOT
HETATM    1  C5  UNL     1     -17.543 -14.630   4.688  1.00  0.00     0.689 C
HETATM    2  N6  UNL     1     -17.297 -14.371   3.390  1.00  0.00    -0.141 N
ATOM      3  H6  UNL     1     -17.251 -13.379   3.155  1.00  0.00     0.189 HD
HETATM    4  C6  UNL     1     -17.097 -15.213   2.336  1.00  0.00     0.341 C
HETATM    5  O2  UNL     1     -16.942 -14.640   1.243  1.00  0.00    -0.246 OA
HETATM    6  N7  UNL     1     -17.060 -16.557   2.390  1.00  0.00    -0.272 N
ATOM      7  H7  UNL     1     -17.141 -17.041   1.496  1.00  0.00     0.174 HD
HETATM    8  C7  UNL     1     -16.928 -17.355   3.490  1.00  0.00     0.293 C
HETATM    9  O3  UNL     1     -16.704 -18.550   3.258  1.00  0.00    -0.264 OA
HETATM   10  C8  UNL     1     -17.006 -17.021   4.827  1.00  0.00     0.185 C
HETATM   11  N9  UNL     1     -17.291 -15.801   5.314  1.00  0.00    -0.171 N
ATOM     12  H9  UNL     1     -17.324 -15.751   6.332  1.00  0.00     0.186 HD
ENDROOT
BRANCH   1  13
HETATM   13  N5  UNL     1     -18.065 -13.693   5.406  1.00  0.00    -0.175 N
ATOM     14  H5  UNL     1     -17.904 -12.710   5.184  1.00  0.00     0.186 HD
BRANCH  13  15
HETATM   15  C4  UNL     1     -18.870 -14.070   6.517  1.00  0.00     0.137 A
HETATM   16  N4  UNL     1     -20.130 -14.578   6.472  1.00  0.00    -0.337 N
HETATM   17  C3  UNL     1     -20.596 -14.822   7.687  1.00  0.00     0.184 A
ATOM     18  H4  UNL     1     -20.650 -14.749   5.612  1.00  0.00     0.168 HD
HETATM   19  N3  UNL     1     -19.621 -14.468   8.549  1.00  0.00    -0.341 N
HETATM   20  C13 UNL     1     -18.561 -14.008   7.861  1.00  0.00     0.141 A
BRANCH  19  21
HETATM   21  C2  UNL     1     -19.748 -14.586   9.986  1.00  0.00     0.233 C
BRANCH  21  22
HETATM   22  C1  UNL     1     -19.150 -13.421  10.681  1.00  0.00     0.253 C
HETATM   23  N2  UNL     1     -17.870 -13.541  11.284  1.00  0.00    -0.275 N
ATOM     24  H2  UNL     1     -17.369 -14.427  11.235  1.00  0.00     0.189 HD
HETATM   25  O1  UNL     1     -19.801 -12.353  10.717  1.00  0.00    -0.270 OA
BRANCH  23  26
HETATM   26  N1  UNL     1     -17.291 -12.449  11.945  1.00  0.00    -0.343 N
ATOM     27  H12 UNL     1     -16.663 -11.837  11.425  1.00  0.00     0.176 HD
ATOM     28  H11 UNL     1     -17.497 -12.273  12.928  1.00  0.00     0.176 HD
ENDBRANCH  23  26
ENDBRANCH  21  22
ENDBRANCH  19  21
ENDBRANCH  13  15
ENDBRANCH   1  13
BRANCH  10  29
HETATM   29  N8  UNL     1     -16.778 -17.999   5.619  1.00  0.00    -0.367 N
ATOM     30  H8  UNL     1     -15.953 -18.564   5.422  1.00  0.00     0.161 HD
BRANCH  29  31
HETATM   31  C9  UNL     1     -17.557 -18.379   6.747  1.00  0.00     0.182 C
BRANCH  31  32
HETATM   32  C10 UNL     1     -17.817 -19.880   6.680  1.00  0.00     0.277 C
HETATM   33  O4  UNL     1     -16.678 -20.597   6.429  1.00  0.00    -0.358 OA
HETATM   34  C11 UNL     1     -16.840 -21.237   5.202  1.00  0.00     0.197 C
HETATM   35  C12 UNL     1     -18.337 -21.248   4.989  1.00  0.00     0.197 C
HETATM   36  O5  UNL     1     -18.740 -20.130   5.701  1.00  0.00    -0.358 OA
ENDBRANCH  31  32
ENDBRANCH  29  31
ENDBRANCH  10  29
TORSDOF 8
ENDMDL