MODEL 5
REMARK VINA RESULT: -6.835586849      4.064      7.653
REMARK  9 active torsions:
REMARK  status: ('A' for Active; 'I' for Inactive)
REMARK    1  A    between atoms: C1_2  and  C2_4
REMARK    2  A    between atoms: C2_4  and  O2_5
REMARK    3  A    between atoms: C2_4  and  C3_7
REMARK    4  A    between atoms: C3_7  and  O3_8
REMARK    5  A    between atoms: C3_7  and  C4_10
REMARK    6  A    between atoms: C4_10  and  N2_11
REMARK    7  A    between atoms: C6_13  and  C7_14
REMARK    8  A    between atoms: C8_17  and  N4_18
REMARK    9  A    between atoms: C13_26  and  N6_27
ROOT
HETATM    1  C7  UNL     1     -14.001 -18.273  10.469  1.00  0.00     0.228 C
HETATM    2  N3  UNL     1     -13.896 -18.602  11.866  1.00  0.00    -0.358 N
ATOM      3  H3  UNL     1     -14.369 -19.449  12.181  1.00  0.00     0.162 HD
HETATM    4  C8  UNL     1     -13.259 -17.924  12.748  1.00  0.00     0.127 C
HETATM    5  C13 UNL     1     -12.552 -16.684  12.366  1.00  0.00     0.351 C
HETATM    6  N7  UNL     1     -12.247 -16.607  10.969  1.00  0.00    -0.325 N
ATOM      7  H7  UNL     1     -11.670 -15.847  10.610  1.00  0.00     0.165 HD
HETATM    8  C14 UNL     1     -12.750 -17.586  10.097  1.00  0.00     0.248 C
HETATM    9  O4  UNL     1     -12.182 -17.895   9.026  1.00  0.00    -0.271 OA
ENDROOT
BRANCH   1  10
HETATM   10  C6  UNL     1     -15.125 -17.332  10.230  1.00  0.00     0.072 A
HETATM   11  C5  UNL     1     -16.221 -17.613   9.442  1.00  0.00     0.136 A
HETATM   12  N2  UNL     1     -17.060 -16.551   9.430  1.00  0.00    -0.282 N
HETATM   13  N9  UNL     1     -16.486 -15.640  10.195  1.00  0.00    -0.020 NA
HETATM   14  N8  UNL     1     -15.340 -16.084  10.678  1.00  0.00    -0.284 N
ATOM     15  H8  UNL     1     -14.716 -15.563  11.294  1.00  0.00     0.184 HD
BRANCH  12  16
HETATM   16  C4  UNL     1     -18.341 -16.449   8.708  1.00  0.00     0.180 C
BRANCH  16  17
HETATM   17  C3  UNL     1     -18.027 -15.725   7.430  1.00  0.00     0.175 C
BRANCH  17  18
HETATM   18  C2  UNL     1     -18.723 -14.368   7.382  1.00  0.00     0.237 C
BRANCH  18  19
HETATM   19  C1  UNL     1     -20.187 -14.586   7.323  1.00  0.00     0.262 C
HETATM   20  N1  UNL     1     -20.840 -14.864   6.093  1.00  0.00    -0.060 NA
HETATM   21  O1  UNL     1     -20.898 -14.534   8.350  1.00  0.00    -0.274 OA
ENDBRANCH  18  19
BRANCH  18  22
HETATM   22  O2  UNL     1     -18.453 -13.767   8.647  1.00  0.00    -0.384 OA
ATOM     23  H2  UNL     1     -18.576 -14.445   9.301  1.00  0.00     0.210 HD
ENDBRANCH  18  22
ENDBRANCH  17  18
BRANCH  17  24
HETATM   24  O3  UNL     1     -18.537 -16.549   6.401  1.00  0.00    -0.391 OA
ATOM     25  H3  UNL     1     -19.484 -16.594   6.474  1.00  0.00     0.210 HD
ENDBRANCH  17  24
ENDBRANCH  16  17
ENDBRANCH  12  16
ENDBRANCH   1  10
BRANCH   4  26
HETATM   26  N4  UNL     1     -13.213 -18.341  14.126  1.00  0.00    -0.365 N
HETATM   27  C9  UNL     1     -13.831 -17.534  15.155  1.00  0.00     0.152 C
HETATM   28  C10 UNL     1     -14.922 -18.368  15.790  1.00  0.00     0.252 C
HETATM   29  N5  UNL     1     -14.709 -19.775  15.625  1.00  0.00    -0.072 N
HETATM   30  C11 UNL     1     -13.327 -20.158  15.716  1.00  0.00     0.252 C
ATOM     31  H52 UNL     1     -15.277 -20.307  16.285  1.00  0.00     0.277 HD
ATOM     32  H51 UNL     1     -15.118 -20.102  14.749  1.00  0.00     0.277 HD
HETATM   33  C12 UNL     1     -12.559 -19.563  14.544  1.00  0.00     0.152 C
ENDBRANCH   4  26
BRANCH   5  34
HETATM   34  N6  UNL     1     -11.234 -16.709  13.036  1.00  0.00    -0.051 N
ATOM     35  H63 UNL     1     -11.292 -16.532  14.039  1.00  0.00     0.277 HD
ATOM     36  H62 UNL     1     -10.831 -17.644  13.091  1.00  0.00     0.277 HD
ATOM     37  H61 UNL     1     -10.635 -16.043  12.548  1.00  0.00     0.277 HD
ENDBRANCH   5  34
TORSDOF 9
ENDMDL