MODEL 2
REMARK VINA RESULT: -8.298263013      2.457      3.771
REMARK  7 active torsions:
REMARK  status: ('A' for Active; 'I' for Inactive)
REMARK       I    between atoms: N1_2  and  C3_4
REMARK    1  A    between atoms: C3_4  and  C4_6
REMARK    2  A    between atoms: C4_6  and  N2_7
REMARK    3  A    between atoms: C4_6  and  C13_30
REMARK       I    between atoms: N2_7  and  C5_9
REMARK    4  A    between atoms: C5_9  and  C6_11
REMARK    5  A    between atoms: N6_24  and  N7_25
REMARK       I    between atoms: N7_25  and  C12_27
REMARK    6  A    between atoms: C13_30  and  O6_31
REMARK    7  A    between atoms: C13_30  and  O7_33
ROOT
HETATM    1  C6  UNL     1     -17.922 -15.068   6.957  1.00  0.00     0.198 A
HETATM    2  N3  UNL     1     -18.131 -14.001   6.199  1.00  0.00    -0.329 N
ATOM      3  H3  UNL     1     -18.520 -13.110   6.511  1.00  0.00     0.168 HD
HETATM    4  C7  UNL     1     -17.740 -14.299   4.942  1.00  0.00     0.149 A
HETATM    5  C8  UNL     1     -17.718 -13.525   3.791  1.00  0.00     0.280 A
HETATM    6  O3  UNL     1     -18.161 -12.350   3.839  1.00  0.00    -0.265 OA
HETATM    7  N4  UNL     1     -17.230 -14.044   2.658  1.00  0.00    -0.273 N
ATOM      8  H4  UNL     1     -17.203 -13.499   1.795  1.00  0.00     0.173 HD
HETATM    9  C9  UNL     1     -16.777 -15.306   2.697  1.00  0.00     0.330 A
HETATM   10  O4  UNL     1     -16.305 -15.827   1.646  1.00  0.00    -0.246 OA
HETATM   11  N5  UNL     1     -16.784 -16.088   3.804  1.00  0.00    -0.286 N
HETATM   12  C10 UNL     1     -16.133 -17.394   3.753  1.00  0.00     0.163 C
HETATM   13  C11 UNL     1     -17.276 -15.619   4.978  1.00  0.00     0.168 A
HETATM   14  N6  UNL     1     -17.387 -16.098   6.198  1.00  0.00    -0.212 N
ENDROOT
BRANCH   1  15
HETATM   15  C5  UNL     1     -18.206 -15.175   8.393  1.00  0.00     0.288 C
HETATM   16  N2  UNL     1     -17.834 -14.127   9.257  1.00  0.00    -0.337 N
ATOM     17  H2  UNL     1     -17.370 -13.308   8.863  1.00  0.00     0.164 HD
HETATM   18  O2  UNL     1     -18.773 -16.167   8.907  1.00  0.00    -0.264 OA
BRANCH  16  19
HETATM   19  C4  UNL     1     -18.088 -14.167  10.716  1.00  0.00     0.232 C
BRANCH  19  20
HETATM   20  C3  UNL     1     -16.816 -13.958  11.401  1.00  0.00     0.246 C
HETATM   21  N1  UNL     1     -15.678 -14.752  11.429  1.00  0.00    -0.359 N
HETATM   22  C1  UNL     1     -15.544 -15.969  10.694  1.00  0.00     0.152 C
HETATM   23  C2  UNL     1     -14.530 -14.342  12.257  1.00  0.00     0.152 C
HETATM   24  O1  UNL     1     -16.739 -12.864  12.082  1.00  0.00    -0.271 OA
ENDBRANCH  19  20
BRANCH  19  25
HETATM   25  C13 UNL     1     -19.135 -13.101  11.004  1.00  0.00     0.285 C
BRANCH  25  26
HETATM   26  O6  UNL     1     -19.521 -13.020  12.319  1.00  0.00    -0.369 OA
ATOM     27  H6  UNL     1     -19.548 -12.137  12.670  1.00  0.00     0.212 HD
ENDBRANCH  25  26
BRANCH  25  28
HETATM   28  O7  UNL     1     -18.735 -11.842  10.586  1.00  0.00    -0.369 OA
ATOM     29  H7  UNL     1     -18.912 -11.171  11.235  1.00  0.00     0.212 HD
ENDBRANCH  25  28
ENDBRANCH  19  25
ENDBRANCH  16  19
ENDBRANCH   1  15
BRANCH  14  30
HETATM   30  N7  UNL     1     -17.037 -17.281   6.784  1.00  0.00    -0.244 N
HETATM   31  C12 UNL     1     -17.743 -18.481   6.978  1.00  0.00     0.347 C
HETATM   32  N8  UNL     1     -17.113 -19.627   7.596  1.00  0.00    -0.038 NA
HETATM   33  O5  UNL     1     -18.933 -18.677   6.653  1.00  0.00    -0.249 OA
ATOM     34  H7  UNL     1     -16.085 -17.297   7.149  1.00  0.00     0.192 HD
ENDBRANCH  14  30
TORSDOF 7
ENDMDL