MODEL 4
REMARK VINA RESULT: -6.769787352      4.524     10.009
REMARK  12 active torsions:
REMARK  status: ('A' for Active; 'I' for Inactive)
REMARK    1  A    between atoms: S1_2  and  C2_3
REMARK    2  A    between atoms: C4_7  and  C5_8
REMARK    3  A    between atoms: C7_14  and  N4_15
REMARK    4  A    between atoms: N6_22  and  C10_24
REMARK    5  A    between atoms: C10_24  and  C11_25
REMARK    6  A    between atoms: C11_25  and  C12_26
REMARK    7  A    between atoms: C12_26  and  O1_27
REMARK    8  A    between atoms: N7_29  and  C13_30
REMARK    9  A    between atoms: C13_30  and  C14_31
REMARK   10  A    between atoms: C14_31  and  O2_32
REMARK   11  A    between atoms: C14_31  and  C15_34
REMARK       I    between atoms: C15_34  and  N8_36
REMARK   12  A    between atoms: N8_36  and  N9_38
ROOT
HETATM    1  C5  UNL     1       8.281  14.636  36.941  1.00  0.00     0.121 A
HETATM    2  N2  UNL     1       9.590  14.337  37.002  1.00  0.00    -0.325 N
ATOM      3  H2  UNL     1       9.986  13.433  36.746  1.00  0.00     0.169 HD
HETATM    4  C6  UNL     1      10.310  15.381  37.441  1.00  0.00     0.153 A
HETATM    5  N3  UNL     1      11.662  15.423  37.624  1.00  0.00    -0.324 N
ATOM      6  H3  UNL     1      12.191  14.724  37.103  1.00  0.00     0.169 HD
HETATM    7  C7  UNL     1      12.400  16.246  38.386  1.00  0.00     0.132 C
HETATM    8  C8  UNL     1      12.044  17.483  38.910  1.00  0.00     0.137 A
HETATM    9  N5  UNL     1      12.826  18.291  39.611  1.00  0.00    -0.184 N
ATOM     10  H5  UNL     1      13.797  18.095  39.853  1.00  0.00     0.184 HD
HETATM   11  C9  UNL     1      12.136  19.440  39.970  1.00  0.00     0.682 A
HETATM   12  N6  UNL     1      12.676  20.375  40.635  1.00  0.00    -0.226 N
ATOM     13  H6  UNL     1      13.649  20.169  40.861  1.00  0.00     0.177 HD
HETATM   14  N7  UNL     1      10.909  19.271  39.449  1.00  0.00    -0.163 N
HETATM   15  C16 UNL     1      10.819  18.073  38.787  1.00  0.00     0.156 A
HETATM   16  N10 UNL     1       9.720  17.625  38.124  1.00  0.00    -0.323 N
ATOM     17  H10 UNL     1       9.016  18.339  37.938  1.00  0.00     0.169 HD
HETATM   18  C17 UNL     1       9.406  16.399  37.673  1.00  0.00     0.153 A
HETATM   19  N11 UNL     1       8.183  15.918  37.360  1.00  0.00    -0.325 N
ATOM     20  H11 UNL     1       7.312  16.444  37.429  1.00  0.00     0.169 HD
ENDROOT
BRANCH  14  21
HETATM   21  C13 UNL     1       9.791  20.156  39.498  1.00  0.00     0.191 C
BRANCH  21  22
HETATM   22  C14 UNL     1       8.938  20.123  40.717  1.00  0.00     0.230 C
BRANCH  22  23
HETATM   23  O2  UNL     1       8.200  21.341  40.686  1.00  0.00    -0.384 OA
ATOM     24  H2  UNL     1       7.417  21.168  41.196  1.00  0.00     0.210 HD
ENDBRANCH  22  23
BRANCH  22  25
HETATM   25  C15 UNL     1       7.999  19.023  40.868  1.00  0.00     0.266 C
HETATM   26  O3  UNL     1       7.345  18.606  39.850  1.00  0.00    -0.269 OA
HETATM   27  N8  UNL     1       7.721  18.338  42.103  1.00  0.00    -0.274 N
ATOM     28  H8  UNL     1       8.212  18.628  42.948  1.00  0.00     0.189 HD
BRANCH  27  29
HETATM   29  N9  UNL     1       6.804  17.292  42.184  1.00  0.00    -0.343 N
ATOM     30  H92 UNL     1       7.017  16.431  41.680  1.00  0.00     0.176 HD
ATOM     31  H91 UNL     1       5.941  17.364  42.724  1.00  0.00     0.176 HD
ENDBRANCH  27  29
ENDBRANCH  22  25
ENDBRANCH  21  22
ENDBRANCH  14  21
BRANCH  12  32
HETATM   32  C10 UNL     1      12.283  21.600  41.131  1.00  0.00     0.140 C
BRANCH  32  33
HETATM   33  C11 UNL     1      11.953  21.570  42.632  1.00  0.00     0.046 C
BRANCH  33  34
HETATM   34  C12 UNL     1      13.166  21.679  43.494  1.00  0.00     0.165 C
BRANCH  34  35
HETATM   35  O1  UNL     1      14.351  21.475  42.796  1.00  0.00    -0.401 OA
ATOM     36  H1  UNL     1      14.737  22.281  42.474  1.00  0.00     0.209 HD
ENDBRANCH  34  35
ENDBRANCH  33  34
ENDBRANCH  32  33
ENDBRANCH  12  32
BRANCH   7  37
HETATM   37  N4  UNL     1      13.590  15.853  38.677  1.00  0.00    -0.383 N
ATOM     38  H42 UNL     1      13.741  14.846  38.612  1.00  0.00     0.157 HD
ATOM     39  H41 UNL     1      14.260  16.575  38.941  1.00  0.00     0.157 HD
ENDBRANCH   7  37
BRANCH   1  40
HETATM   40  C4  UNL     1       7.171  13.789  36.523  1.00  0.00     0.039 A
HETATM   41  C3  UNL     1       5.874  14.248  36.615  1.00  0.00     0.106 A
HETATM   42  N1  UNL     1       4.853  13.458  36.225  1.00  0.00    -0.346 N
HETATM   43  C2  UNL     1       5.024  12.216  35.736  1.00  0.00     0.143 A
ATOM     44  H1  UNL     1       3.903  13.821  36.304  1.00  0.00     0.167 HD
HETATM   45  N12 UNL     1       6.288  11.760  35.642  1.00  0.00    -0.346 N
HETATM   46  C18 UNL     1       7.347  12.519  36.023  1.00  0.00     0.106 A
ATOM     47  H12 UNL     1       6.453  10.823  35.275  1.00  0.00     0.167 HD
BRANCH  43  48
HETATM   48  S1  UNL     1       3.633  11.203  35.233  1.00  0.00    -0.098 SA
HETATM   49  C1  UNL     1       2.367  12.311  34.528  1.00  0.00     0.099 C
ENDBRANCH  43  48
ENDBRANCH   1  40
TORSDOF 12
ENDMDL