MODEL 5
REMARK VINA RESULT: -7.718908823      3.274      4.653
REMARK  12 active torsions:
REMARK  status: ('A' for Active; 'I' for Inactive)
REMARK       I    between atoms: C1_4  and  N2_5
REMARK       I    between atoms: C1_4  and  N11_42
REMARK    1  A    between atoms: N2_5  and  N3_7
REMARK       I    between atoms: N3_7  and  C2_9
REMARK       I    between atoms: C2_9  and  N7_29
REMARK    2  A    between atoms: N4_10  and  C3_12
REMARK    3  A    between atoms: C5_14  and  N5_15
REMARK    4  A    between atoms: C6_18  and  O3_19
REMARK    5  A    between atoms: O3_19  and  C7_20
REMARK    6  A    between atoms: C7_20  and  C8_21
REMARK    7  A    between atoms: C8_21  and  O4_22
REMARK    8  A    between atoms: C10_25  and  N6_26
REMARK    9  A    between atoms: N7_29  and  N8_31
REMARK   10  A    between atoms: C11_33  and  C12_34
REMARK   11  A    between atoms: N10_39  and  O7_40
REMARK   12  A    between atoms: N11_42  and  N12_44
ROOT
HETATM    1  N3  UNL     1       8.919  17.989  37.992  1.00  0.00    -0.116 N
ATOM      2  H3  UNL     1       9.687  18.503  38.423  1.00  0.00     0.206 HD
HETATM    3  C2  UNL     1       9.172  17.236  36.814  1.00  0.00     0.712 C
HETATM    4  N4  UNL     1       8.295  17.138  35.950  1.00  0.00    -0.187 N
ATOM      5  H4  UNL     1       7.444  17.641  36.201  1.00  0.00     0.184 HD
HETATM    6  N7  UNL     1      10.484  16.626  36.694  1.00  0.00    -0.131 N
ATOM      7  H7  UNL     1      10.860  16.402  35.773  1.00  0.00     0.205 HD
ENDROOT
BRANCH   1   8
HETATM    8  N2  UNL     1       7.659  18.047  38.580  1.00  0.00    -0.117 N
HETATM    9  C1  UNL     1       7.256  17.055  39.484  1.00  0.00     0.710 C
HETATM   10  N1  UNL     1       7.490  17.202  40.732  1.00  0.00    -0.232 N
HETATM   11  N11 UNL     1       6.594  15.902  39.028  1.00  0.00    -0.071 N
ATOM     12  H12 UNL     1       7.970  18.038  41.063  1.00  0.00     0.174 HD
ATOM     13  H11 UNL     1       7.196  16.480  41.390  1.00  0.00     0.174 HD
ATOM     14  H11 UNL     1       7.131  15.126  38.642  1.00  0.00     0.212 HD
ATOM     15  H2  UNL     1       7.027  18.814  38.352  1.00  0.00     0.206 HD
BRANCH  11  16
HETATM   16  N12 UNL     1       5.208  15.816  39.102  1.00  0.00    -0.024 N
HETATM   17  O8  UNL     1       4.578  16.870  39.375  1.00  0.00    -0.516 OA
HETATM   18  O9  UNL     1       4.498  14.659  38.896  1.00  0.00    -0.516 OA
ENDBRANCH  11  16
ENDBRANCH   1   8
BRANCH   4  19
HETATM   19  C3  UNL     1       8.193  16.507  34.720  1.00  0.00     0.085 A
HETATM   20  C4  UNL     1       8.516  17.126  33.529  1.00  0.00     0.071 A
HETATM   21  C5  UNL     1       8.424  16.496  32.316  1.00  0.00     0.138 A
HETATM   22  C6  UNL     1       7.980  15.152  32.240  1.00  0.00     0.104 A
HETATM   23  C9  UNL     1       7.656  14.527  33.418  1.00  0.00     0.077 A
HETATM   24  C10 UNL     1       7.765  15.210  34.645  1.00  0.00     0.132 A
BRANCH  21  25
HETATM   25  N5  UNL     1       8.770  17.177  31.116  1.00  0.00    -0.113 N
HETATM   26  O1  UNL     1       7.842  17.570  30.367  1.00  0.00    -0.532 OA
HETATM   27  O2  UNL     1      10.056  17.412  30.762  1.00  0.00    -0.532 OA
ENDBRANCH  21  25
BRANCH  22  28
HETATM   28  O3  UNL     1       7.923  14.614  31.026  1.00  0.00    -0.346 OA
BRANCH  28  29
HETATM   29  C7  UNL     1       7.294  13.777  30.213  1.00  0.00     0.201 C
BRANCH  29  30
HETATM   30  C8  UNL     1       7.886  12.407  30.016  1.00  0.00     0.190 C
BRANCH  30  31
HETATM   31  O4  UNL     1       9.169  12.297  30.432  1.00  0.00    -0.399 OA
ATOM     32  H4  UNL     1       9.350  11.502  30.919  1.00  0.00     0.209 HD
ENDBRANCH  30  31
ENDBRANCH  29  30
ENDBRANCH  28  29
ENDBRANCH  22  28
BRANCH  24  33
HETATM   33  N6  UNL     1       7.424  14.513  35.822  1.00  0.00    -0.113 N
HETATM   34  O5  UNL     1       6.207  14.450  36.129  1.00  0.00    -0.532 OA
HETATM   35  O6  UNL     1       8.404  13.937  36.579  1.00  0.00    -0.532 OA
ENDBRANCH  24  33
ENDBRANCH   4  19
BRANCH   6  36
HETATM   36  N8  UNL     1      11.202  16.358  37.793  1.00  0.00    -0.295 N
HETATM   37  C11 UNL     1      12.173  15.727  38.206  1.00  0.00     0.141 C
ATOM     38  H8  UNL     1      10.791  16.865  38.577  1.00  0.00     0.186 HD
BRANCH  37  39
HETATM   39  C12 UNL     1      13.075  14.863  37.480  1.00  0.00     0.095 A
HETATM   40  C13 UNL     1      14.436  14.748  37.592  1.00  0.00     0.122 A
HETATM   41  N9  UNL     1      14.826  13.787  36.702  1.00  0.00    -0.358 N
HETATM   42  C14 UNL     1      13.753  13.329  36.066  1.00  0.00     0.213 A
ATOM     43  H9  UNL     1      15.784  13.473  36.550  1.00  0.00     0.166 HD
HETATM   44  N10 UNL     1      12.677  13.973  36.527  1.00  0.00    -0.218 N
BRANCH  44  45
HETATM   45  O7  UNL     1      11.381  13.733  36.074  1.00  0.00    -0.282 OA
ATOM     46  H7  UNL     1      10.636  14.321  36.105  1.00  0.00     0.245 HD
ENDBRANCH  44  45
ENDBRANCH  37  39
ENDBRANCH   6  36
TORSDOF 12
ENDMDL