MODEL 5
REMARK VINA RESULT: -7.427364651      2.528      6.291
REMARK  12 active torsions:
REMARK  status: ('A' for Active; 'I' for Inactive)
REMARK    1  A    between atoms: C3_5  and  N3_6
REMARK    2  A    between atoms: C4_8  and  N4_9
REMARK    3  A    between atoms: C4_8  and  C7_17
REMARK    4  A    between atoms: N4_9  and  C5_11
REMARK    5  A    between atoms: C5_11  and  C6_12
REMARK    6  A    between atoms: C6_12  and  N5_13
REMARK    7  A    between atoms: N10_31  and  C12_32
REMARK    8  A    between atoms: C12_32  and  C13_33
REMARK    9  A    between atoms: C13_33  and  C14_34
REMARK   10  A    between atoms: C14_34  and  C15_35
REMARK   11  A    between atoms: C16_36  and  C17_37
REMARK   12  A    between atoms: C18_43  and  N13_44
ROOT
HETATM    1  C1  UNL     1       6.439  18.091  38.004  1.00  0.00     0.162 C
HETATM    2  N1  UNL     1       7.451  17.193  37.430  1.00  0.00    -0.290 N
HETATM    3  C2  UNL     1       7.230  16.584  36.246  1.00  0.00     0.154 A
HETATM    4  N2  UNL     1       5.984  16.839  35.579  1.00  0.00    -0.080 NA
HETATM    5  C3  UNL     1       8.188  15.743  35.717  1.00  0.00     0.144 A
HETATM    6  C11 UNL     1       9.375  15.529  36.412  1.00  0.00     0.281 A
HETATM    7  O1  UNL     1      10.281  14.758  35.954  1.00  0.00    -0.265 OA
HETATM    8  N10 UNL     1       9.573  16.145  37.589  1.00  0.00    -0.264 N
HETATM    9  C19 UNL     1       8.609  16.964  38.075  1.00  0.00     0.332 A
HETATM   10  O3  UNL     1       8.806  17.545  39.193  1.00  0.00    -0.246 OA
ENDROOT
BRANCH   5  11
HETATM   11  N3  UNL     1       7.995  15.095  34.506  1.00  0.00    -0.332 N
HETATM   12  C4  UNL     1       7.548  13.935  34.250  1.00  0.00     0.147 C
ATOM     13  H3  UNL     1       8.257  15.641  33.684  1.00  0.00     0.168 HD
BRANCH  12  14
HETATM   14  N4  UNL     1       7.441  13.479  32.885  1.00  0.00    -0.372 N
ATOM     15  H4  UNL     1       7.333  12.486  32.678  1.00  0.00     0.161 HD
BRANCH  14  16
HETATM   16  C5  UNL     1       7.491  14.463  31.802  1.00  0.00     0.148 C
BRANCH  16  17
HETATM   17  C6  UNL     1       7.683  13.744  30.500  1.00  0.00     0.249 C
BRANCH  17  18
HETATM   18  N5  UNL     1       8.496  12.553  30.641  1.00  0.00    -0.078 N
ATOM     19  H53 UNL     1       9.020  12.362  29.787  1.00  0.00     0.274 HD
ATOM     20  H52 UNL     1       9.276  12.714  31.278  1.00  0.00     0.274 HD
ATOM     21  H51 UNL     1       7.949  11.740  30.926  1.00  0.00     0.274 HD
ENDBRANCH  17  18
ENDBRANCH  16  17
ENDBRANCH  14  16
ENDBRANCH  12  14
BRANCH  12  22
HETATM   22  C7  UNL     1       7.101  12.965  35.255  1.00  0.00     0.152 A
HETATM   23  N6  UNL     1       7.901  12.054  35.890  1.00  0.00    -0.323 N
HETATM   24  C8  UNL     1       7.169  11.317  36.739  1.00  0.00     0.150 A
ATOM     25  H6  UNL     1       8.905  11.951  35.740  1.00  0.00     0.169 HD
HETATM   26  N7  UNL     1       7.162  10.315  37.652  1.00  0.00    -0.284 N
HETATM   27  C10 UNL     1       5.867  11.749  36.660  1.00  0.00     0.097 A
HETATM   28  N8  UNL     1       5.961  10.098  38.139  1.00  0.00    -0.308 N
ATOM     29  H7  UNL     1       7.991   9.791  37.929  1.00  0.00     0.188 HD
HETATM   30  C9  UNL     1       5.139  10.975  37.539  1.00  0.00     0.140 A
ATOM     31  H8  UNL     1       5.703   9.400  38.837  1.00  0.00     0.186 HD
HETATM   32  N9  UNL     1       5.875  12.742  35.753  1.00  0.00    -0.335 N
ATOM     33  H9  UNL     1       5.044  13.265  35.475  1.00  0.00     0.168 HD
ENDBRANCH  12  22
ENDBRANCH   5  11
BRANCH   8  34
HETATM   34  C12 UNL     1      10.784  15.967  38.362  1.00  0.00     0.138 C
BRANCH  34  35
HETATM   35  C13 UNL     1      11.706  17.160  38.197  1.00  0.00     0.032 C
BRANCH  35  36
HETATM   36  C14 UNL     1      13.087  16.691  38.669  1.00  0.00     0.096 C
BRANCH  36  37
HETATM   37  C15 UNL     1      13.507  15.602  37.810  1.00  0.00    -0.099 C
HETATM   38  C16 UNL     1      13.861  14.672  37.103  1.00  0.00    -0.043 C
BRANCH  38  39
HETATM   39  C17 UNL     1      14.276  13.562  36.292  1.00  0.00     0.155 A
HETATM   40  N11 UNL     1      15.506  13.306  35.812  1.00  0.00    -0.229 N
HETATM   41  O2  UNL     1      15.466  12.200  35.122  1.00  0.00    -0.154 OA
ATOM     42  H11 UNL     1      16.335  13.881  35.964  1.00  0.00     0.197 HD
HETATM   43  N12 UNL     1      14.286  11.694  35.106  1.00  0.00    -0.223 N
HETATM   44  C18 UNL     1      13.492  12.503  35.825  1.00  0.00     0.159 A
ATOM     45  H12 UNL     1      14.004  10.835  34.634  1.00  0.00     0.198 HD
BRANCH  44  46
HETATM   46  N13 UNL     1      12.248  12.369  36.063  1.00  0.00    -0.382 N
ATOM     47 2H13 UNL     1      11.808  11.901  36.855  1.00  0.00     0.157 HD
ATOM     48 1H13 UNL     1      11.505  12.729  35.465  1.00  0.00     0.157 HD
ENDBRANCH  44  46
ENDBRANCH  38  39
ENDBRANCH  36  37
ENDBRANCH  35  36
ENDBRANCH  34  35
ENDBRANCH   8  34
TORSDOF 12
ENDMDL