MODEL 3
REMARK VINA RESULT: -7.300192548      3.029      7.715
REMARK  11 active torsions:
REMARK  status: ('A' for Active; 'I' for Inactive)
REMARK    1  A    between atoms: C5_8  and  O1_9
REMARK    2  A    between atoms: N3_12  and  C7_13
REMARK    3  A    between atoms: C7_13  and  C8_14
REMARK    4  A    between atoms: C8_14  and  N4_15
REMARK    5  A    between atoms: N7_23  and  C12_25
REMARK    6  A    between atoms: C12_25  and  C13_26
REMARK    7  A    between atoms: C13_26  and  O2_27
REMARK    8  A    between atoms: O2_27  and  N8_28
REMARK    9  A    between atoms: C17_36  and  N11_37
REMARK   10  A    between atoms: C19_41  and  C20_42
REMARK   11  A    between atoms: C20_42  and  O3_43
ROOT
HETATM    1  N1  UNL     1       8.384  18.124  33.350  1.00  0.00    -0.188 NA
HETATM    2  C1  UNL     1       8.157  17.934  34.466  1.00  0.00     0.137 C
HETATM    3  C2  UNL     1       7.881  17.673  35.847  1.00  0.00     0.191 A
HETATM    4  N2  UNL     1       8.607  18.284  36.791  1.00  0.00    -0.319 N
ATOM      5  H2  UNL     1       9.347  18.926  36.510  1.00  0.00     0.169 HD
HETATM    6  C3  UNL     1       8.387  18.073  38.101  1.00  0.00     0.126 A
HETATM    7  C4  UNL     1       7.388  17.206  38.472  1.00  0.00     0.086 A
HETATM    8  C5  UNL     1       7.347  17.149  39.845  1.00  0.00     0.099 A
HETATM    9  C6  UNL     1       8.356  18.010  40.265  1.00  0.00     0.130 A
HETATM   10  N3  UNL     1       8.975  18.561  39.227  1.00  0.00    -0.338 N
HETATM   11  C11 UNL     1       6.639  16.577  37.475  1.00  0.00     0.120 A
HETATM   12  N7  UNL     1       5.733  15.781  37.871  1.00  0.00    -0.373 N
ATOM     13  H7  UNL     1       5.602  15.644  38.873  1.00  0.00     0.161 HD
HETATM   14  N12 UNL     1       6.901  16.823  36.181  1.00  0.00    -0.319 N
ATOM     15  H12 UNL     1       6.355  16.363  35.453  1.00  0.00     0.169 HD
ENDROOT
BRANCH  10  16
HETATM   16  C7  UNL     1      10.063  19.503  39.193  1.00  0.00     0.152 C
BRANCH  16  17
HETATM   17  C8  UNL     1      11.260  19.013  39.976  1.00  0.00     0.170 C
BRANCH  17  18
HETATM   18  N4  UNL     1      12.064  18.098  39.206  1.00  0.00    -0.285 N
HETATM   19  C9  UNL     1      12.939  18.312  38.231  1.00  0.00     0.201 A
HETATM   20  N5  UNL     1      13.472  17.149  37.779  1.00  0.00    -0.346 N
HETATM   21  C10 UNL     1      12.893  16.196  38.517  1.00  0.00     0.198 A
ATOM     22  H5  UNL     1      14.163  17.028  37.040  1.00  0.00     0.167 HD
HETATM   23  N6  UNL     1      12.030  16.778  39.390  1.00  0.00    -0.293 N
ATOM     24  H6  UNL     1      11.453  16.288  40.072  1.00  0.00     0.188 HD
ENDBRANCH  17  18
ENDBRANCH  16  17
ENDBRANCH  10  16
BRANCH  12  25
HETATM   25  C12 UNL     1       4.887  15.068  36.959  1.00  0.00     0.149 C
BRANCH  25  26
HETATM   26  C13 UNL     1       5.091  13.560  37.172  1.00  0.00     0.213 C
BRANCH  26  27
HETATM   27  O2  UNL     1       6.434  13.260  37.061  1.00  0.00    -0.301 OA
BRANCH  27  28
HETATM   28  N8  UNL     1       6.667  12.627  35.879  1.00  0.00    -0.186 NA
HETATM   29  C14 UNL     1       7.774  13.311  35.194  1.00  0.00     0.165 C
HETATM   30  C15 UNL     1       9.004  13.073  35.992  1.00  0.00     0.026 A
HETATM   31  C16 UNL     1       9.259  11.736  36.276  1.00  0.00     0.038 A
HETATM   32  C17 UNL     1       9.977  13.866  36.544  1.00  0.00     0.123 A
HETATM   33  N9  UNL     1      10.386  11.747  36.998  1.00  0.00    -0.303 N
HETATM   34  C18 UNL     1       8.277  10.785  35.724  1.00  0.00     0.083 C
HETATM   35  N10 UNL     1      10.818  12.991  37.162  1.00  0.00    -0.285 N
ATOM     36  H9  UNL     1      10.847  10.917  37.369  1.00  0.00     0.186 HD
ATOM     37  H10 UNL     1      11.659  13.254  37.677  1.00  0.00     0.188 HD
HETATM   38  C19 UNL     1       6.901  11.253  36.133  1.00  0.00     0.115 C
BRANCH  38  39
HETATM   39  C20 UNL     1       5.823  10.441  35.439  1.00  0.00     0.186 C
BRANCH  39  40
HETATM   40  O3  UNL     1       6.489   9.473  34.672  1.00  0.00    -0.399 OA
ATOM     41  H3  UNL     1       5.918   8.714  34.644  1.00  0.00     0.209 HD
ENDBRANCH  39  40
ENDBRANCH  38  39
BRANCH  32  42
HETATM   42  N11 UNL     1      10.074  15.165  36.490  1.00  0.00    -0.384 N
ATOM     43 2H11 UNL     1      10.795  15.758  36.904  1.00  0.00     0.157 HD
ATOM     44 1H11 UNL     1       9.445  15.819  36.025  1.00  0.00     0.157 HD
ENDBRANCH  32  42
ENDBRANCH  27  28
ENDBRANCH  26  27
ENDBRANCH  25  26
ENDBRANCH  12  25
BRANCH   8  45
HETATM   45  O1  UNL     1       6.530  16.431  40.674  1.00  0.00    -0.358 OA
ATOM     46  H1  UNL     1       6.244  16.613  41.562  1.00  0.00     0.217 HD
ENDBRANCH   8  45
TORSDOF 11
ENDMDL