MODEL 4
REMARK VINA RESULT: -7.619047645      3.556      6.234
REMARK  12 active torsions:
REMARK  status: ('A' for Active; 'I' for Inactive)
REMARK    1  A    between atoms: C2_2  and  C4_4
REMARK    2  A    between atoms: C4_4  and  N1_5
REMARK    3  A    between atoms: C5_10  and  C6_11
REMARK       I    between atoms: C6_11  and  N4_13
REMARK    4  A    between atoms: N4_13  and  C7_15
REMARK    5  A    between atoms: C7_15  and  C8_16
REMARK    6  A    between atoms: C8_16  and  N5_17
REMARK    7  A    between atoms: C9_18  and  C10_19
REMARK    8  A    between atoms: C13_37  and  C14_38
REMARK    9  A    between atoms: C14_38  and  C15_39
REMARK   10  A    between atoms: C15_39  and  C16_40
REMARK   11  A    between atoms: C16_40  and  C17_41
REMARK   12  A    between atoms: C17_41  and  O2_42
ROOT
HETATM    1  N5  UNL     1       9.182  15.066  37.254  1.00  0.00    -0.312 N
HETATM    2  C9  UNL     1      10.454  14.746  37.495  1.00  0.00     0.157 A
HETATM    3  N10 UNL     1      10.631  13.454  37.072  1.00  0.00    -0.333 N
ATOM      4  H10 UNL     1      11.508  12.935  37.130  1.00  0.00     0.168 HD
HETATM    5  C11 UNL     1       9.501  12.974  36.576  1.00  0.00     0.123 A
HETATM    6  C12 UNL     1       9.125  11.744  36.020  1.00  0.00     0.132 A
HETATM    7  N11 UNL     1       9.976  10.795  35.914  1.00  0.00    -0.383 N
ATOM      8 1H11 UNL     1       9.703   9.900  35.509  1.00  0.00     0.157 HD
ATOM      9 2H11 UNL     1      10.947  10.872  36.216  1.00  0.00     0.157 HD
HETATM   10  N12 UNL     1       7.846  11.644  35.623  1.00  0.00    -0.320 N
ATOM     11  H12 UNL     1       7.549  10.757  35.216  1.00  0.00     0.169 HD
HETATM   12  C13 UNL     1       6.933  12.612  35.719  1.00  0.00     0.164 A
HETATM   13  N13 UNL     1       7.305  13.788  36.255  1.00  0.00    -0.319 N
ATOM     14  H13 UNL     1       6.625  14.543  36.339  1.00  0.00     0.169 HD
HETATM   15  C18 UNL     1       8.571  13.979  36.682  1.00  0.00     0.142 A
ENDROOT
BRANCH   1  16
HETATM   16  C8  UNL     1       8.483  16.316  37.517  1.00  0.00     0.152 C
BRANCH  16  17
HETATM   17  C7  UNL     1       8.481  17.224  36.335  1.00  0.00     0.143 C
BRANCH  17  18
HETATM   18  N4  UNL     1       7.239  17.947  36.194  1.00  0.00    -0.354 N
HETATM   19  C6  UNL     1       6.051  17.463  35.621  1.00  0.00     0.273 C
HETATM   20  O1  UNL     1       5.997  16.303  35.170  1.00  0.00    -0.266 OA
ATOM     21  H4  UNL     1       7.223  18.905  36.545  1.00  0.00     0.162 HD
BRANCH  19  22
HETATM   22  C5  UNL     1       4.855  18.285  35.531  1.00  0.00     0.160 A
HETATM   23  N3  UNL     1       3.603  17.855  35.202  1.00  0.00    -0.278 N
HETATM   24  N2  UNL     1       2.797  18.894  35.230  1.00  0.00    -0.238 N
ATOM     25  H3  UNL     1       3.339  16.897  34.974  1.00  0.00     0.189 HD
HETATM   26  N1  UNL     1       3.441  20.005  35.561  1.00  0.00    -0.262 N
ATOM     27  H2  UNL     1       1.799  18.850  35.022  1.00  0.00     0.208 HD
HETATM   28  C19 UNL     1       4.718  19.642  35.750  1.00  0.00     0.168 A
HETATM   29  N14 UNL     1       5.853  20.448  36.120  1.00  0.00    -0.078 NA
BRANCH  26  30
HETATM   30  C4  UNL     1       2.911  21.333  35.703  1.00  0.00     0.156 C
BRANCH  30  31
HETATM   31  C2  UNL     1       2.620  21.992  34.394  1.00  0.00    -0.003 C
HETATM   32  C1  UNL     1       1.428  22.918  34.464  1.00  0.00     0.011 C
HETATM   33  C3  UNL     1       3.784  22.689  33.769  1.00  0.00     0.011 C
ENDBRANCH  30  31
ENDBRANCH  26  30
ENDBRANCH  19  22
ENDBRANCH  17  18
ENDBRANCH  16  17
ENDBRANCH   1  16
BRANCH   2  34
HETATM   34  C10 UNL     1      11.532  15.522  38.081  1.00  0.00     0.182 A
HETATM   35  N6  UNL     1      11.462  16.450  39.052  1.00  0.00    -0.266 N
HETATM   36  N7  UNL     1      12.692  16.908  39.282  1.00  0.00    -0.226 N
ATOM     37  H6  UNL     1      10.613  16.751  39.530  1.00  0.00     0.190 HD
HETATM   38  N8  UNL     1      13.545  16.303  38.492  1.00  0.00    -0.226 N
ATOM     39  H7  UNL     1      12.934  17.621  39.971  1.00  0.00     0.210 HD
HETATM   40  N9  UNL     1      12.822  15.457  37.760  1.00  0.00    -0.266 N
ATOM     41  H8  UNL     1      14.553  16.450  38.446  1.00  0.00     0.210 HD
ATOM     42  H9  UNL     1      13.207  14.839  37.046  1.00  0.00     0.190 HD
ENDBRANCH   2  34
BRANCH  12  43
HETATM   43  C14 UNL     1       5.564  12.424  35.264  1.00  0.00    -0.030 C
BRANCH  43  44
HETATM   44  C15 UNL     1       4.433  12.256  34.879  1.00  0.00    -0.096 C
BRANCH  44  45
HETATM   45  C16 UNL     1       3.053  12.054  34.435  1.00  0.00     0.120 C
BRANCH  45  46
HETATM   46  C17 UNL     1       2.256  13.350  34.518  1.00  0.00     0.176 C
BRANCH  46  47
HETATM   47  O2  UNL     1       2.692  14.138  33.444  1.00  0.00    -0.400 OA
ATOM     48  H2  UNL     1       3.436  14.631  33.769  1.00  0.00     0.209 HD
ENDBRANCH  46  47
ENDBRANCH  45  46
ENDBRANCH  44  45
ENDBRANCH  43  44
ENDBRANCH  12  43
TORSDOF 12
ENDMDL