MODEL 4
REMARK VINA RESULT: -8.182274326      1.782      3.336
REMARK  10 active torsions:
REMARK  status: ('A' for Active; 'I' for Inactive)
REMARK    1  A    between atoms: O1_2  and  C2_3
REMARK    2  A    between atoms: C5_6  and  S1_7
REMARK    3  A    between atoms: S1_7  and  C6_9
REMARK    4  A    between atoms: S1_7  and  C16_37
REMARK    5  A    between atoms: C6_9  and  C7_10
REMARK    6  A    between atoms: C7_10  and  N1_11
REMARK    7  A    between atoms: N1_11  and  C8_14
REMARK    8  A    between atoms: C12_25  and  N6_26
REMARK    9  A    between atoms: C13_31  and  N8_32
REMARK   10  A    between atoms: N8_32  and  C14_34
ROOT
HETATM    1  C14 UNL     1      12.785  16.121  38.504  1.00  0.00     0.245 C
HETATM    2  C15 UNL     1      13.924  15.473  37.896  1.00  0.00     0.078 C
HETATM    3  N9  UNL     1      14.844  14.957  37.427  1.00  0.00    -0.196 NA
ENDROOT
BRANCH   1   4
HETATM    4  N8  UNL     1      11.664  16.113  37.599  1.00  0.00    -0.362 N
ATOM      5  H8  UNL     1      11.811  15.823  36.633  1.00  0.00     0.162 HD
BRANCH   4   6
HETATM    6  C13 UNL     1      10.468  16.465  37.977  1.00  0.00     0.146 A
HETATM    7  C10 UNL     1       9.412  16.472  37.093  1.00  0.00     0.106 A
HETATM    8  N4  UNL     1       9.649  16.087  35.754  1.00  0.00    -0.326 N
HETATM    9  C11 UNL     1       8.135  16.840  37.462  1.00  0.00     0.107 A
HETATM   10  C9  UNL     1       8.577  16.089  34.837  1.00  0.00     0.190 A
ATOM     11  H4  UNL     1      10.584  15.810  35.455  1.00  0.00     0.169 HD
HETATM   12  N2  UNL     1       7.413  16.437  35.229  1.00  0.00    -0.332 N
HETATM   13  N3  UNL     1       8.763  15.708  33.493  1.00  0.00    -0.063 NA
HETATM   14  C8  UNL     1       6.995  16.854  36.518  1.00  0.00     0.340 A
ATOM     15  H2  UNL     1       6.684  16.412  34.517  1.00  0.00     0.164 HD
HETATM   16  N5  UNL     1       7.962  17.199  38.756  1.00  0.00    -0.190 N
HETATM   17  C12 UNL     1       8.979  17.198  39.634  1.00  0.00     0.677 A
ATOM     18  H5  UNL     1       7.034  17.478  39.073  1.00  0.00     0.184 HD
HETATM   19  N7  UNL     1      10.222  16.834  39.250  1.00  0.00    -0.175 N
ATOM     20  H7  UNL     1      10.982  16.837  39.930  1.00  0.00     0.186 HD
BRANCH  14  21
HETATM   21  N1  UNL     1       5.863  16.059  37.051  1.00  0.00    -0.048 N
ATOM     22  H12 UNL     1       4.974  16.560  37.039  1.00  0.00     0.280 HD
ATOM     23  H11 UNL     1       5.908  15.912  38.059  1.00  0.00     0.280 HD
BRANCH  21  24
HETATM   24  C7  UNL     1       5.842  14.849  36.301  1.00  0.00     0.247 C
BRANCH  24  25
HETATM   25  C6  UNL     1       6.597  13.681  36.903  1.00  0.00     0.137 C
BRANCH  25  26
HETATM   26  S1  UNL     1       6.719  12.108  35.906  1.00  0.00     0.042 S
HETATM   27  O2  UNL     1       6.014  12.846  34.606  1.00  0.00    -0.257 OA
BRANCH  26  28
HETATM   28  C5  UNL     1       5.709  11.141  37.363  1.00  0.00     0.027 A
HETATM   29  C4  UNL     1       6.329  10.246  38.128  1.00  0.00     0.023 A
HETATM   30  C3  UNL     1       5.618   9.627  39.138  1.00  0.00     0.038 A
HETATM   31  C2  UNL     1       4.276   9.924  39.360  1.00  0.00     0.068 A
HETATM   32  C18 UNL     1       3.670  10.847  38.555  1.00  0.00     0.038 A
HETATM   33  C17 UNL     1       4.413  11.462  37.538  1.00  0.00     0.023 A
BRANCH  31  34
HETATM   34  O1  UNL     1       3.545   9.320  40.361  1.00  0.00    -0.356 OA
HETATM   35  C1  UNL     1       3.264   7.942  40.336  1.00  0.00     0.210 C
ENDBRANCH  31  34
ENDBRANCH  26  28
BRANCH  26  36
HETATM   36  C16 UNL     1       8.643  11.879  36.146  1.00  0.00     0.199 A
HETATM   37  N10 UNL     1       9.404  10.806  35.874  1.00  0.00    -0.262 N
HETATM   38  N11 UNL     1      10.654  11.062  36.192  1.00  0.00    -0.226 N
ATOM     39  H10 UNL     1       9.065   9.928  35.481  1.00  0.00     0.190 HD
HETATM   40  N12 UNL     1      10.697  12.268  36.656  1.00  0.00    -0.226 N
ATOM     41  H11 UNL     1      11.445  10.426  36.092  1.00  0.00     0.210 HD
HETATM   42  N13 UNL     1       9.494  12.779  36.637  1.00  0.00    -0.262 N
ATOM     43  H12 UNL     1      11.536  12.745  36.985  1.00  0.00     0.210 HD
ATOM     44  H13 UNL     1       9.246  13.718  36.948  1.00  0.00     0.190 HD
ENDBRANCH  26  36
ENDBRANCH  25  26
ENDBRANCH  24  25
ENDBRANCH  21  24
ENDBRANCH  14  21
BRANCH  17  45
HETATM   45  N6  UNL     1       8.812  17.538  40.862  1.00  0.00    -0.234 N
ATOM     46  H62 UNL     1       9.581  18.018  41.329  1.00  0.00     0.174 HD
ATOM     47  H61 UNL     1       7.944  17.339  41.359  1.00  0.00     0.174 HD
ENDBRANCH  17  45
ENDBRANCH   4   6
ENDBRANCH   1   4
TORSDOF 10
ENDMDL