MODEL 1
REMARK VINA RESULT: -7.507655392      0.000      0.000
REMARK  10 active torsions:
REMARK  status: ('A' for Active; 'I' for Inactive)
REMARK    1  A    between atoms: C1_4  and  C2_5
REMARK    2  A    between atoms: C1_4  and  N11_41
REMARK    3  A    between atoms: C2_5  and  S1_6
REMARK    4  A    between atoms: S1_6  and  C3_7
REMARK    5  A    between atoms: C5_12  and  N4_13
REMARK    6  A    between atoms: C6_16  and  N5_17
REMARK       I    between atoms: N5_17  and  C7_19
REMARK    7  A    between atoms: C7_19  and  C8_21
REMARK    8  A    between atoms: C10_23  and  C11_24
REMARK    9  A    between atoms: C11_24  and  N6_25
REMARK       I    between atoms: N6_25  and  C12_27
REMARK       I    between atoms: C12_27  and  N7_29
REMARK   10  A    between atoms: N11_41  and  N12_43
ROOT
HETATM    1  C3  UNL     1      13.750  13.902  36.442  1.00  0.00     0.147 A
HETATM    2  N2  UNL     1      13.900  14.964  37.248  1.00  0.00    -0.323 N
ATOM      3  H2  UNL     1      14.843  15.282  37.472  1.00  0.00     0.169 HD
HETATM    4  C4  UNL     1      12.837  15.634  37.779  1.00  0.00     0.155 A
HETATM    5  N3  UNL     1      13.001  16.759  38.632  1.00  0.00    -0.080 NA
HETATM    6  C5  UNL     1      11.563  15.212  37.482  1.00  0.00     0.187 A
HETATM    7  C6  UNL     1      11.406  14.122  36.655  1.00  0.00     0.147 A
HETATM    8  N10 UNL     1      12.502  13.503  36.163  1.00  0.00    -0.321 N
ATOM      9  H10 UNL     1      12.374  12.697  35.552  1.00  0.00     0.169 HD
ENDROOT
BRANCH   7  10
HETATM   10  N5  UNL     1      10.088  13.663  36.340  1.00  0.00    -0.305 N
HETATM   11  C7  UNL     1       9.803  12.291  36.497  1.00  0.00     0.275 C
HETATM   12  O3  UNL     1      10.674  11.490  36.897  1.00  0.00    -0.266 OA
ATOM     13  H5  UNL     1       9.374  14.312  36.010  1.00  0.00     0.170 HD
BRANCH  11  14
HETATM   14  C8  UNL     1       8.462  11.803  36.184  1.00  0.00     0.125 A
HETATM   15  C9  UNL     1       7.278  12.275  36.689  1.00  0.00     0.073 A
HETATM   16  C10 UNL     1       6.278  11.522  36.117  1.00  0.00     0.096 A
HETATM   17  O5  UNL     1       6.867  10.670  35.331  1.00  0.00    -0.240 OA
HETATM   18  N9  UNL     1       8.154  10.805  35.344  1.00  0.00    -0.256 N
ATOM     19  H9  UNL     1       8.820  10.248  34.807  1.00  0.00     0.195 HD
BRANCH  16  20
HETATM   20  C11 UNL     1       4.822  11.687  36.376  1.00  0.00     0.191 C
BRANCH  20  21
HETATM   21  N6  UNL     1       4.391  11.016  37.579  1.00  0.00    -0.337 N
HETATM   22  C12 UNL     1       4.257  11.682  38.821  1.00  0.00     0.318 C
HETATM   23  O4  UNL     1       4.536  12.921  38.846  1.00  0.00    -0.247 OA
HETATM   24  N7  UNL     1       3.846  11.084  40.010  1.00  0.00    -0.331 N
HETATM   25  C13 UNL     1       3.747  11.894  41.233  1.00  0.00     0.147 C
HETATM   26  C16 UNL     1       3.501   9.707  40.168  1.00  0.00     0.147 C
HETATM   27  C14 UNL     1       4.218  11.095  42.427  1.00  0.00     0.133 C
HETATM   28  N8  UNL     1       5.050   9.983  42.055  1.00  0.00    -0.418 N
HETATM   29  C15 UNL     1       4.515   9.085  41.098  1.00  0.00     0.133 C
ATOM     30  H8  UNL     1       5.976   9.847  42.460  1.00  0.00     0.153 HD
ATOM     31  H6  UNL     1       4.174  10.021  37.532  1.00  0.00     0.164 HD
ENDBRANCH  20  21
ENDBRANCH  16  20
ENDBRANCH  11  14
ENDBRANCH   7  10
BRANCH   6  32
HETATM   32  N4  UNL     1      10.419  15.863  38.002  1.00  0.00    -0.108 N
HETATM   33  O1  UNL     1       9.769  15.391  38.965  1.00  0.00    -0.532 OA
HETATM   34  O2  UNL     1      10.006  17.051  37.431  1.00  0.00    -0.532 OA
ENDBRANCH   6  32
BRANCH   1  35
HETATM   35  S1  UNL     1      15.183  13.049  35.770  1.00  0.00    -0.086 SA
BRANCH  35  36
HETATM   36  C2  UNL     1      15.031  11.305  36.318  1.00  0.00     0.159 C
BRANCH  36  37
HETATM   37  C1  UNL     1      14.073  10.624  35.437  1.00  0.00     0.098 C
HETATM   38  N1  UNL     1      14.370  10.375  34.206  1.00  0.00    -0.387 N
ATOM     39  H12 UNL     1      15.279  10.653  33.835  1.00  0.00     0.157 HD
ATOM     40  H11 UNL     1      13.705   9.902  33.593  1.00  0.00     0.157 HD
BRANCH  37  41
HETATM   41  N11 UNL     1      12.812  10.238  35.950  1.00  0.00    -0.295 N
ATOM     42  H11 UNL     1      12.295  10.870  36.561  1.00  0.00     0.187 HD
BRANCH  41  43
HETATM   43  N12 UNL     1      12.281   9.000  35.623  1.00  0.00    -0.344 N
ATOM     44 2H12 UNL     1      12.872   8.316  35.150  1.00  0.00     0.176 HD
ATOM     45 1H12 UNL     1      11.311   8.785  35.855  1.00  0.00     0.176 HD
ENDBRANCH  41  43
ENDBRANCH  37  41
ENDBRANCH  36  37
ENDBRANCH  35  36
ENDBRANCH   1  35
TORSDOF 10
ENDMDL