MODEL 5
REMARK VINA RESULT: -6.947146397      1.294      1.746
REMARK  14 active torsions:
REMARK  status: ('A' for Active; 'I' for Inactive)
REMARK    1  A    between atoms: C3_5  and  C4_6
REMARK    2  A    between atoms: N2_8  and  C6_9
REMARK    3  A    between atoms: C6_9  and  C7_10
REMARK    4  A    between atoms: C7_10  and  C8_11
REMARK    5  A    between atoms: C8_11  and  N3_12
REMARK    6  A    between atoms: N3_12  and  C9_13
REMARK    7  A    between atoms: C10_16  and  N5_17
REMARK    8  A    between atoms: C14_27  and  O2_28
REMARK    9  A    between atoms: C15_30  and  O3_31
REMARK   10  A    between atoms: N11_39  and  C17_40
REMARK   11  A    between atoms: C17_40  and  C18_41
REMARK   12  A    between atoms: C18_41  and  O4_42
REMARK   13  A    between atoms: C18_41  and  C19_44
REMARK   14  A    between atoms: C19_44  and  O5_45
ROOT
HETATM    1  C7  UNL     1       9.484  18.618  38.986  1.00  0.00     0.081 C
ENDROOT
BRANCH   1   2
HETATM    2  C6  UNL     1       8.129  19.135  38.629  1.00  0.00     0.152 C
BRANCH   2   3
HETATM    3  N2  UNL     1       7.692  18.612  37.364  1.00  0.00    -0.284 N
HETATM    4  C5  UNL     1       8.403  18.316  36.246  1.00  0.00     0.142 A
HETATM    5  C4  UNL     1       7.563  17.819  35.274  1.00  0.00     0.108 A
HETATM    6  N9  UNL     1       6.352  17.826  35.831  1.00  0.00    -0.279 N
HETATM    7  N8  UNL     1       6.414  18.300  37.086  1.00  0.00    -0.020 NA
ATOM      8  H9  UNL     1       5.499  17.514  35.368  1.00  0.00     0.184 HD
BRANCH   5   9
HETATM    9  C3  UNL     1       7.970  17.397  33.942  1.00  0.00     0.151 A
HETATM   10  N1  UNL     1       9.005  17.799  33.196  1.00  0.00    -0.328 N
HETATM   11  C2  UNL     1       9.059  17.170  32.010  1.00  0.00     0.096 A
ATOM     12  H1  UNL     1       9.678  18.505  33.494  1.00  0.00     0.169 HD
HETATM   13  C1  UNL     1      10.056  17.365  30.911  1.00  0.00     0.091 C
HETATM   14  N11 UNL     1       8.005  16.331  32.010  1.00  0.00    -0.276 N
HETATM   15  N10 UNL     1       7.340  16.458  33.170  1.00  0.00    -0.280 N
ATOM     16  H10 UNL     1       6.502  15.939  33.433  1.00  0.00     0.189 HD
BRANCH  14  17
HETATM   17  C17 UNL     1       7.576  15.392  31.002  1.00  0.00     0.184 C
BRANCH  17  18
HETATM   18  C18 UNL     1       7.605  13.958  31.415  1.00  0.00     0.161 C
BRANCH  18  19
HETATM   19  O4  UNL     1       6.378  13.709  32.075  1.00  0.00    -0.392 OA
ATOM     20  H4  UNL     1       6.599  13.476  32.969  1.00  0.00     0.210 HD
ENDBRANCH  18  19
BRANCH  18  21
HETATM   21  C19 UNL     1       7.683  12.994  30.278  1.00  0.00     0.197 C
BRANCH  21  22
HETATM   22  O5  UNL     1       8.914  12.321  30.319  1.00  0.00    -0.398 OA
ATOM     23  H5  UNL     1       9.418  12.533  29.542  1.00  0.00     0.209 HD
ENDBRANCH  21  22
ENDBRANCH  18  21
ENDBRANCH  17  18
ENDBRANCH  14  17
ENDBRANCH   5   9
ENDBRANCH   2   3
ENDBRANCH   1   2
BRANCH   1  24
HETATM   24  C8  UNL     1       9.338  17.222  39.583  1.00  0.00     0.159 C
BRANCH  24  25
HETATM   25  N3  UNL     1       9.437  16.183  38.712  1.00  0.00    -0.402 NA
BRANCH  25  26
HETATM   26  C9  UNL     1       9.596  15.340  37.905  1.00  0.00     0.208 A
HETATM   27  N4  UNL     1      10.903  14.992  37.543  1.00  0.00    -0.164 N
HETATM   28  C10 UNL     1      11.186  14.071  36.640  1.00  0.00     0.678 A
ATOM     29  H4  UNL     1      11.677  15.476  37.999  1.00  0.00     0.187 HD
HETATM   30  N6  UNL     1      10.233  13.388  35.992  1.00  0.00    -0.185 N
HETATM   31  C11 UNL     1       8.934  13.668  36.286  1.00  0.00     0.135 A
ATOM     32  H6  UNL     1      10.474  12.679  35.299  1.00  0.00     0.184 HD
HETATM   33  C12 UNL     1       7.941  12.954  35.604  1.00  0.00     0.277 A
HETATM   34  C16 UNL     1       8.610  14.617  37.217  1.00  0.00     0.093 A
HETATM   35  O1  UNL     1       8.300  12.097  34.762  1.00  0.00    -0.265 OA
HETATM   36  N7  UNL     1       6.644  13.206  35.871  1.00  0.00    -0.295 N
HETATM   37  C13 UNL     1       5.592  12.481  35.175  1.00  0.00     0.162 C
HETATM   38  C14 UNL     1       6.311  14.128  36.776  1.00  0.00     0.180 A
HETATM   39  C15 UNL     1       7.270  14.840  37.457  1.00  0.00     0.134 A
BRANCH  28  40
HETATM   40  N5  UNL     1      12.424  13.765  36.319  1.00  0.00    -0.234 N
ATOM     41  H52 UNL     1      12.955  13.265  37.031  1.00  0.00     0.174 HD
ATOM     42  H51 UNL     1      12.825  14.012  35.415  1.00  0.00     0.174 HD
ENDBRANCH  28  40
BRANCH  38  43
HETATM   43  O2  UNL     1       4.937  14.346  37.011  1.00  0.00    -0.344 OA
ATOM     44  H2  UNL     1       4.446  14.809  36.342  1.00  0.00     0.219 HD
ENDBRANCH  38  43
BRANCH  39  45
HETATM   45  O3  UNL     1       6.885  15.768  38.369  1.00  0.00    -0.356 OA
ATOM     46  H3  UNL     1       6.028  15.694  38.774  1.00  0.00     0.218 HD
ENDBRANCH  39  45
ENDBRANCH  25  26
ENDBRANCH  24  25
ENDBRANCH   1  24
TORSDOF 14
ENDMDL