MODEL 1
REMARK VINA RESULT: -7.146031779      0.000      0.000
REMARK  14 active torsions:
REMARK  status: ('A' for Active; 'I' for Inactive)
REMARK    1  A    between atoms: O1_2  and  C2_3
REMARK    2  A    between atoms: C2_3  and  S1_5
REMARK    3  A    between atoms: S1_5  and  C3_6
REMARK    4  A    between atoms: C4_9  and  N2_10
REMARK    5  A    between atoms: N2_10  and  N3_12
REMARK    6  A    between atoms: N3_12  and  C5_14
REMARK    7  A    between atoms: C7_18  and  C8_19
REMARK    8  A    between atoms: C9_24  and  C10_25
REMARK       I    between atoms: C10_25  and  N6_27
REMARK    9  A    between atoms: N6_27  and  N7_29
REMARK   10  A    between atoms: N7_29  and  C11_30
REMARK   11  A    between atoms: C11_30  and  O6_31
REMARK   12  A    between atoms: C11_30  and  C12_33
REMARK   13  A    between atoms: C12_33  and  C15_36
REMARK   14  A    between atoms: C15_36  and  O7_38
ROOT
HETATM    1  C3  UNL     1       8.226  14.343  34.772  1.00  0.00     0.104 A
HETATM    2  N1  UNL     1       8.160  13.038  34.646  1.00  0.00    -0.328 N
ATOM      3  H1  UNL     1       7.795  12.626  33.787  1.00  0.00     0.168 HD
HETATM    4  C4  UNL     1       8.568  12.261  35.633  1.00  0.00     0.165 A
HETATM    5  S2  UNL     1       9.070  13.377  36.808  1.00  0.00    -0.044 SA
HETATM    6  C9  UNL     1       8.718  14.850  35.938  1.00  0.00     0.111 A
ENDROOT
BRANCH   6   7
HETATM    7  C10 UNL     1       8.948  16.192  36.454  1.00  0.00     0.277 C
HETATM    8  O5  UNL     1       7.893  16.861  36.731  1.00  0.00    -0.266 OA
HETATM    9  N6  UNL     1      10.184  16.801  36.670  1.00  0.00    -0.267 N
ATOM     10  H6  UNL     1      11.051  16.303  36.466  1.00  0.00     0.185 HD
BRANCH   9  11
HETATM   11  N7  UNL     1      10.213  18.106  37.172  1.00  0.00    -0.105 NA
BRANCH  11  12
HETATM   12  C11 UNL     1      11.406  18.346  37.927  1.00  0.00     0.241 C
BRANCH  12  13
HETATM   13  O6  UNL     1      12.284  17.263  37.836  1.00  0.00    -0.377 OA
ATOM     14  H6  UNL     1      13.184  17.544  37.947  1.00  0.00     0.211 HD
ENDBRANCH  12  13
BRANCH  12  15
HETATM   15  C12 UNL     1      11.232  18.835  39.308  1.00  0.00     0.020 C
HETATM   16  C13 UNL     1      11.134  17.815  40.388  1.00  0.00     0.021 C
HETATM   17  C14 UNL     1       9.925  19.647  39.352  1.00  0.00     0.021 C
BRANCH  15  18
HETATM   18  C15 UNL     1      12.399  19.757  39.632  1.00  0.00     0.125 C
HETATM   19  C16 UNL     1      12.391  20.968  38.738  1.00  0.00     0.040 C
BRANCH  18  20
HETATM   20  O7  UNL     1      13.569  19.054  39.400  1.00  0.00    -0.395 OA
ATOM     21  H7  UNL     1      13.472  18.193  39.791  1.00  0.00     0.210 HD
ENDBRANCH  18  20
ENDBRANCH  15  18
ENDBRANCH  12  15
ENDBRANCH  11  12
ENDBRANCH   9  11
ENDBRANCH   6   7
BRANCH   1  22
HETATM   22  S1  UNL     1       7.670  15.472  33.427  1.00  0.00    -0.002 SA
BRANCH  22  23
HETATM   23  C2  UNL     1       7.783  14.626  31.861  1.00  0.00     0.328 C
HETATM   24  O2  UNL     1       7.965  13.410  31.722  1.00  0.00    -0.251 OA
BRANCH  23  25
HETATM   25  O1  UNL     1       7.654  15.410  30.729  1.00  0.00    -0.317 OA
HETATM   26  C1  UNL     1       8.067  16.754  30.650  1.00  0.00     0.214 C
ENDBRANCH  23  25
ENDBRANCH  22  23
ENDBRANCH   1  22
BRANCH   4  27
HETATM   27  N2  UNL     1       8.581  10.945  35.683  1.00  0.00    -0.277 N
ATOM     28  H2  UNL     1       9.405  10.440  36.011  1.00  0.00     0.189 HD
BRANCH  27  29
HETATM   29  N3  UNL     1       7.438  10.262  35.274  1.00  0.00    -0.263 N
ATOM     30  H3  UNL     1       7.531   9.391  34.750  1.00  0.00     0.190 HD
BRANCH  29  31
HETATM   31  C5  UNL     1       6.132  10.769  35.581  1.00  0.00     0.235 C
HETATM   32  N4  UNL     1       5.499  10.654  36.704  1.00  0.00    -0.352 N
HETATM   33  C6  UNL     1       4.203  11.307  36.599  1.00  0.00     0.165 C
ATOM     34  H4  UNL     1       5.853  10.179  37.535  1.00  0.00     0.163 HD
HETATM   35  C7  UNL     1       4.303  12.128  35.323  1.00  0.00     0.238 C
HETATM   36  O4  UNL     1       5.371  11.472  34.655  1.00  0.00    -0.305 OA
BRANCH  35  37
HETATM   37  C8  UNL     1       3.046  12.055  34.562  1.00  0.00     0.262 C
HETATM   38  N5  UNL     1       2.345  10.828  34.456  1.00  0.00    -0.060 NA
HETATM   39  O3  UNL     1       2.562  13.062  33.993  1.00  0.00    -0.274 OA
ENDBRANCH  35  37
ENDBRANCH  29  31
ENDBRANCH  27  29
ENDBRANCH   4  27
TORSDOF 14
ENDMDL