MODEL 2
REMARK VINA RESULT: -7.499788201      2.667      8.764
REMARK  10 active torsions:
REMARK  status: ('A' for Active; 'I' for Inactive)
REMARK    1  A    between atoms: C2_2  and  N1_3
REMARK    2  A    between atoms: N1_3  and  C3_4
REMARK    3  A    between atoms: N1_3  and  C5_10
REMARK    4  A    between atoms: C3_4  and  C4_5
REMARK    5  A    between atoms: C4_5  and  N2_6
REMARK    6  A    between atoms: C5_10  and  C6_11
REMARK    7  A    between atoms: C8_13  and  N3_14
REMARK    8  A    between atoms: C9_15  and  C10_16
REMARK    9  A    between atoms: C11_22  and  N6_23
REMARK       I    between atoms: N6_23  and  C12_25
REMARK       I    between atoms: C12_25  and  N7_26
REMARK       I    between atoms: C12_25  and  N8_30
REMARK   10  A    between atoms: C15_36  and  N9_37
REMARK       I    between atoms: N9_37  and  C16_39
REMARK       I    between atoms: C16_39  and  N10_40
REMARK       I    between atoms: C16_39  and  N11_44
ROOT
HETATM    1  N3  UNL     1       8.019  14.454  35.543  1.00  0.00    -0.302 N
HETATM    2  C9  UNL     1       7.424  13.266  35.403  1.00  0.00     0.072 A
HETATM    3  C13 UNL     1       7.098  13.096  34.079  1.00  0.00     0.051 A
HETATM    4  C14 UNL     1       7.509  14.229  33.366  1.00  0.00     0.054 A
HETATM    5  C15 UNL     1       7.443  14.602  32.038  1.00  0.00     0.119 A
HETATM    6  N12 UNL     1       7.934  15.786  31.634  1.00  0.00    -0.338 N
ATOM      7  H12 UNL     1       7.889  16.070  30.655  1.00  0.00     0.168 HD
HETATM    8  C17 UNL     1       8.491  16.589  32.570  1.00  0.00     0.183 A
HETATM    9  N13 UNL     1       8.552  16.221  33.859  1.00  0.00    -0.338 N
ATOM     10  H13 UNL     1       8.982  16.862  34.526  1.00  0.00     0.168 HD
HETATM   11  C18 UNL     1       8.079  15.055  34.313  1.00  0.00     0.125 A
ENDROOT
BRANCH   2  12
HETATM   12  C10 UNL     1       7.144  12.285  36.442  1.00  0.00     0.129 A
HETATM   13  N4  UNL     1       6.119  12.263  37.313  1.00  0.00    -0.236 N
HETATM   14  O1  UNL     1       6.246  11.221  38.065  1.00  0.00    -0.155 OA
ATOM     15  H4  UNL     1       5.370  12.953  37.370  1.00  0.00     0.197 HD
HETATM   16  N5  UNL     1       7.304  10.545  37.739  1.00  0.00    -0.223 N
HETATM   17  C11 UNL     1       7.908  11.163  36.727  1.00  0.00     0.157 A
ATOM     18  H5  UNL     1       7.620   9.684  38.185  1.00  0.00     0.198 HD
BRANCH  17  19
HETATM   19  N6  UNL     1       9.002  10.830  36.089  1.00  0.00    -0.324 N
HETATM   20  C12 UNL     1      10.250  11.093  36.779  1.00  0.00     0.481 C
HETATM   21  N7  UNL     1      11.342  10.294  36.252  1.00  0.00    -0.033 N
HETATM   22  N8  UNL     1      10.659  12.479  36.696  1.00  0.00    -0.033 N
ATOM     23  H73 UNL     1      11.114   9.300  36.266  1.00  0.00     0.278 HD
ATOM     24  H72 UNL     1      11.442  10.422  35.245  1.00  0.00     0.278 HD
ATOM     25  H71 UNL     1      12.219  10.479  36.738  1.00  0.00     0.278 HD
ATOM     26  H83 UNL     1      10.707  12.787  35.725  1.00  0.00     0.278 HD
ATOM     27  H82 UNL     1       9.919  13.098  37.029  1.00  0.00     0.278 HD
ATOM     28  H81 UNL     1      11.536  12.663  37.181  1.00  0.00     0.278 HD
ATOM     29  H6  UNL     1       8.977  10.410  35.160  1.00  0.00     0.165 HD
ENDBRANCH  17  19
ENDBRANCH   2  12
BRANCH   1  30
HETATM   30  C8  UNL     1       8.495  14.976  36.768  1.00  0.00     0.230 C
HETATM   31  C7  UNL     1       7.620  15.908  37.517  1.00  0.00     0.063 C
HETATM   32  C6  UNL     1       8.585  16.427  38.594  1.00  0.00     0.036 C
HETATM   33  C19 UNL     1       9.906  16.203  37.954  1.00  0.00     0.126 C
HETATM   34  O2  UNL     1       9.704  15.671  36.687  1.00  0.00    -0.361 OA
HETATM   35  C20 UNL     1      10.759  17.442  37.809  1.00  0.00     0.040 C
BRANCH  32  36
HETATM   36  C5  UNL     1       8.326  17.918  38.820  1.00  0.00     0.124 C
BRANCH  36  37
HETATM   37  N1  UNL     1       8.252  18.275  40.169  1.00  0.00    -0.411 N
BRANCH  37  38
HETATM   38  C2  UNL     1       6.939  18.420  40.730  1.00  0.00     0.112 C
HETATM   39  C1  UNL     1       6.542  17.185  41.506  1.00  0.00     0.026 C
ENDBRANCH  37  38
BRANCH  37  40
HETATM   40  C3  UNL     1       9.085  19.316  40.671  1.00  0.00     0.144 C
BRANCH  40  41
HETATM   41  C4  UNL     1      10.128  18.923  41.659  1.00  0.00     0.248 C
BRANCH  41  42
HETATM   42  N2  UNL     1      10.651  17.619  41.450  1.00  0.00    -0.078 N
ATOM     43  H23 UNL     1      10.618  17.372  40.461  1.00  0.00     0.274 HD
ATOM     44  H22 UNL     1      11.661  17.608  41.596  1.00  0.00     0.274 HD
ATOM     45  H21 UNL     1      10.198  16.900  42.013  1.00  0.00     0.274 HD
ENDBRANCH  41  42
ENDBRANCH  40  41
ENDBRANCH  37  40
ENDBRANCH  36  37
ENDBRANCH  32  36
ENDBRANCH   1  30
BRANCH   5  46
HETATM   46  N9  UNL     1       6.907  13.788  31.228  1.00  0.00    -0.326 N
HETATM   47  C16 UNL     1       7.497  13.093  30.133  1.00  0.00     0.481 C
HETATM   48  N10 UNL     1       8.591  12.211  30.508  1.00  0.00    -0.033 N
HETATM   49  N11 UNL     1       7.915  13.932  29.036  1.00  0.00    -0.033 N
ATOM     50 3H10 UNL     1       9.302  12.724  31.029  1.00  0.00     0.278 HD
ATOM     51 2H10 UNL     1       8.289  11.553  31.226  1.00  0.00     0.278 HD
ATOM     52 1H10 UNL     1       9.014  11.713  29.724  1.00  0.00     0.278 HD
ATOM     53 3H11 UNL     1       7.134  14.503  28.712  1.00  0.00     0.278 HD
ATOM     54 2H11 UNL     1       8.542  14.663  29.370  1.00  0.00     0.278 HD
ATOM     55 1H11 UNL     1       8.337  13.434  28.253  1.00  0.00     0.278 HD
ATOM     56  H9  UNL     1       5.915  13.605  31.381  1.00  0.00     0.164 HD
ENDBRANCH   5  46
TORSDOF 10
ENDMDL