MODEL 2
REMARK VINA RESULT: -5.640761153      1.835      4.420
REMARK  10 active torsions:
REMARK  status: ('A' for Active; 'I' for Inactive)
REMARK    1  A    between atoms: C2_2  and  C3_3
REMARK    2  A    between atoms: C3_3  and  C4_4
REMARK    3  A    between atoms: C4_4  and  C5_5
REMARK    4  A    between atoms: C5_5  and  C6_6
REMARK    5  A    between atoms: C6_6  and  C7_7
REMARK    6  A    between atoms: C7_7  and  C8_8
REMARK    7  A    between atoms: C8_8  and  O1_9
REMARK    8  A    between atoms: C8_8  and  C9_11
REMARK    9  A    between atoms: C12_14  and  N1_15
REMARK   10  A    between atoms: C14_20  and  N2_21
ROOT
HETATM    1  C8  UNL     1      25.812 -42.531 -57.526  1.00  0.00     0.189 C
ENDROOT
BRANCH   1   2
HETATM    2  C7  UNL     1      26.200 -41.513 -58.485  1.00  0.00     0.312 C
HETATM    3  N3  UNL     1      25.013 -41.347 -59.452  1.00  0.00    -0.036 N
HETATM    4  C15 UNL     1      24.837 -42.693 -59.964  1.00  0.00     0.263 C
ATOM      5  H32 UNL     1      24.178 -40.932 -59.040  1.00  0.00     0.280 HD
ATOM      6  H31 UNL     1      25.137 -40.629 -60.167  1.00  0.00     0.280 HD
HETATM    7  C16 UNL     1      26.248 -43.146 -60.150  1.00  0.00     0.263 C
HETATM    8  N4  UNL     1      27.073 -42.078 -59.517  1.00  0.00    -0.036 N
ATOM      9  H42 UNL     1      27.442 -41.391 -60.174  1.00  0.00     0.280 HD
ATOM     10  H41 UNL     1      27.976 -42.400 -59.170  1.00  0.00     0.280 HD
BRANCH   2  11
HETATM   11  C6  UNL     1      26.453 -40.135 -58.070  1.00  0.00     0.072 C
BRANCH  11  12
HETATM   12  C5  UNL     1      27.797 -39.722 -57.600  1.00  0.00     0.004 C
BRANCH  12  13
HETATM   13  C4  UNL     1      27.916 -39.186 -56.213  1.00  0.00     0.000 C
BRANCH  13  14
HETATM   14  C3  UNL     1      27.174 -37.822 -56.219  1.00  0.00    -0.000 C
BRANCH  14  15
HETATM   15  C2  UNL     1      27.845 -36.994 -55.139  1.00  0.00    -0.005 C
HETATM   16  C1  UNL     1      26.719 -36.274 -54.389  1.00  0.00     0.005 C
ENDBRANCH  14  15
ENDBRANCH  13  14
ENDBRANCH  12  13
ENDBRANCH  11  12
ENDBRANCH   2  11
ENDBRANCH   1   2
BRANCH   1  17
HETATM   17  O1  UNL     1      27.049 -43.109 -57.033  1.00  0.00    -0.391 OA
ATOM     18  H1  UNL     1      27.589 -43.262 -57.799  1.00  0.00     0.210 HD
ENDBRANCH   1  17
BRANCH   1  19
HETATM   19  C9  UNL     1      24.943 -42.427 -56.361  1.00  0.00     0.049 C
HETATM   20  C10 UNL     1      25.966 -42.299 -55.123  1.00  0.00     0.011 C
HETATM   21  C11 UNL     1      25.237 -41.863 -53.904  1.00  0.00     0.033 C
HETATM   22  C12 UNL     1      24.912 -40.373 -53.951  1.00  0.00     0.185 C
HETATM   23  C13 UNL     1      24.770 -40.069 -55.442  1.00  0.00     0.066 C
HETATM   24  C14 UNL     1      24.069 -41.274 -56.077  1.00  0.00     0.192 C
BRANCH  22  25
HETATM   25  N1  UNL     1      25.916 -39.558 -53.327  1.00  0.00    -0.075 N
ATOM     26  H13 UNL     1      26.034 -39.813 -52.347  1.00  0.00     0.274 HD
ATOM     27  H12 UNL     1      26.845 -39.795 -53.675  1.00  0.00     0.274 HD
ATOM     28  H11 UNL     1      25.736 -38.558 -53.423  1.00  0.00     0.274 HD
ENDBRANCH  22  25
BRANCH  24  29
HETATM   29  N2  UNL     1      23.118 -40.794 -56.994  1.00  0.00    -0.074 N
ATOM     30  H23 UNL     1      23.347 -39.821 -57.191  1.00  0.00     0.274 HD
ATOM     31  H22 UNL     1      23.301 -41.246 -57.890  1.00  0.00     0.274 HD
ATOM     32  H21 UNL     1      22.113 -40.844 -56.825  1.00  0.00     0.274 HD
ENDBRANCH  24  29
ENDBRANCH   1  19
TORSDOF 10
ENDMDL