MODEL 2
REMARK VINA RESULT: -6.730186975      1.484      2.979
REMARK  9 active torsions:
REMARK  status: ('A' for Active; 'I' for Inactive)
REMARK    1  A    between atoms: C2_3  and  N2_4
REMARK    2  A    between atoms: C2_3  and  C3_8
REMARK    3  A    between atoms: C2_3  and  C7_16
REMARK    4  A    between atoms: C3_8  and  C4_9
REMARK    5  A    between atoms: C7_16  and  O1_17
REMARK    6  A    between atoms: C7_16  and  N5_19
REMARK    7  A    between atoms: N5_19  and  C8_20
REMARK    8  A    between atoms: N5_19  and  C9_24
REMARK    9  A    between atoms: C9_24  and  C10_25
ROOT
HETATM    1  N1  UNL     1      27.409 -39.406 -58.523  1.00  0.00    -0.194 NA
HETATM    2  C1  UNL     1      27.196 -40.371 -57.925  1.00  0.00     0.103 C
HETATM    3  C2  UNL     1      26.912 -41.602 -57.132  1.00  0.00     0.258 C
ENDROOT
BRANCH   3   4
HETATM    4  N2  UNL     1      28.077 -42.003 -56.424  1.00  0.00    -0.053 N
ATOM      5  H23 UNL     1      28.118 -43.014 -56.298  1.00  0.00     0.276 HD
ATOM      6  H22 UNL     1      28.922 -41.887 -56.981  1.00  0.00     0.276 HD
ATOM      7  H21 UNL     1      28.133 -41.505 -55.535  1.00  0.00     0.276 HD
ENDBRANCH   3   4
BRANCH   3   8
HETATM    8  C3  UNL     1      26.702 -42.692 -58.211  1.00  0.00     0.117 C
BRANCH   8   9
HETATM    9  C4  UNL     1      25.560 -42.381 -59.077  1.00  0.00     0.029 A
HETATM   10  C5  UNL     1      25.061 -43.146 -60.097  1.00  0.00     0.114 A
HETATM   11  N3  UNL     1      24.012 -42.470 -60.603  1.00  0.00    -0.360 N
HETATM   12  C6  UNL     1      23.865 -41.321 -59.918  1.00  0.00     0.180 A
ATOM     13  H3  UNL     1      23.426 -42.778 -61.378  1.00  0.00     0.166 HD
HETATM   14  N4  UNL     1      24.819 -41.269 -58.977  1.00  0.00    -0.354 N
ATOM     15  H4  UNL     1      24.957 -40.515 -58.304  1.00  0.00     0.166 HD
ENDBRANCH   8   9
ENDBRANCH   3   8
BRANCH   3  16
HETATM   16  C7  UNL     1      25.637 -41.494 -56.395  1.00  0.00     0.272 C
BRANCH  16  17
HETATM   17  O1  UNL     1      25.309 -42.803 -55.956  1.00  0.00    -0.373 OA
ATOM     18  H1  UNL     1      24.463 -43.012 -56.331  1.00  0.00     0.212 HD
ENDBRANCH  16  17
BRANCH  16  19
HETATM   19  N5  UNL     1      25.454 -40.496 -55.419  1.00  0.00    -0.348 N
BRANCH  19  20
HETATM   20  C8  UNL     1      24.062 -40.138 -55.128  1.00  0.00     0.173 C
HETATM   21  N6  UNL     1      23.153 -40.535 -55.915  1.00  0.00    -0.395 N
ATOM     22  H62 UNL     1      23.401 -41.093 -56.732  1.00  0.00     0.156 HD
ATOM     23  H61 UNL     1      22.184 -40.286 -55.713  1.00  0.00     0.156 HD
ENDBRANCH  19  20
BRANCH  19  24
HETATM   24  C9  UNL     1      26.406 -39.824 -54.618  1.00  0.00     0.133 C
BRANCH  24  25
HETATM   25  C10 UNL     1      26.409 -38.344 -54.610  1.00  0.00     0.028 C
HETATM   26  C11 UNL     1      26.795 -37.905 -53.182  1.00  0.00     0.010 C
HETATM   27  C12 UNL     1      26.538 -36.414 -53.145  1.00  0.00     0.027 C
HETATM   28  C13 UNL     1      27.290 -35.795 -54.310  1.00  0.00     0.167 C
HETATM   29  O2  UNL     1      28.181 -36.713 -54.871  1.00  0.00    -0.391 OA
HETATM   30  C14 UNL     1      27.525 -37.762 -55.478  1.00  0.00     0.173 C
ENDBRANCH  24  25
ENDBRANCH  19  24
ENDBRANCH  16  19
ENDBRANCH   3  16
TORSDOF 9
ENDMDL