MODEL 2
REMARK VINA RESULT: -7.394282038      0.986      2.113
REMARK  11 active torsions:
REMARK  status: ('A' for Active; 'I' for Inactive)
REMARK    1  A    between atoms: O1_1  and  C1_3
REMARK    2  A    between atoms: C1_3  and  C2_4
REMARK    3  A    between atoms: C2_4  and  O2_5
REMARK    4  A    between atoms: C3_7  and  C4_8
REMARK    5  A    between atoms: C4_8  and  C5_9
REMARK    6  A    between atoms: C5_9  and  C6_10
REMARK    7  A    between atoms: C6_10  and  C7_11
REMARK    8  A    between atoms: C7_11  and  C8_12
REMARK    9  A    between atoms: C8_12  and  C9_13
REMARK   10  A    between atoms: C14_22  and  O4_23
REMARK   11  A    between atoms: C15_25  and  O5_26
ROOT
HETATM    1  C2  UNL     1      27.327 -40.235 -57.330  1.00  0.00     0.135 C
HETATM    2  C3  UNL     1      26.889 -39.979 -55.950  1.00  0.00     0.164 C
HETATM    3  O3  UNL     1      27.569 -40.930 -55.157  1.00  0.00    -0.350 OA
HETATM    4  C14 UNL     1      27.615 -42.072 -55.916  1.00  0.00     0.289 C
HETATM    5  C15 UNL     1      28.017 -41.611 -57.305  1.00  0.00     0.212 C
ENDROOT
BRANCH   2   6
HETATM    6  C4  UNL     1      27.168 -38.592 -55.456  1.00  0.00     0.035 C
BRANCH   6   7
HETATM    7  C5  UNL     1      26.187 -38.138 -54.449  1.00  0.00     0.002 C
BRANCH   7   8
HETATM    8  C6  UNL     1      26.824 -37.548 -53.174  1.00  0.00     0.000 C
BRANCH   8   9
HETATM    9  C7  UNL     1      26.682 -36.086 -53.140  1.00  0.00     0.000 C
BRANCH   9  10
HETATM   10  C8  UNL     1      25.542 -35.534 -53.900  1.00  0.00     0.005 C
BRANCH  10  11
HETATM   11  C9  UNL     1      24.662 -34.551 -53.242  1.00  0.00    -0.011 C
HETATM   12  C10 UNL     1      24.448 -34.632 -51.779  1.00  0.00     0.032 C
HETATM   13  C11 UNL     1      22.959 -34.459 -51.466  1.00  0.00     0.232 C
HETATM   14  N1  UNL     1      22.397 -33.302 -52.140  1.00  0.00    -0.075 N
HETATM   15  C12 UNL     1      22.406 -33.488 -53.583  1.00  0.00     0.232 C
ATOM     16  H12 UNL     1      21.463 -33.081 -51.795  1.00  0.00     0.277 HD
ATOM     17  H11 UNL     1      22.870 -32.440 -51.868  1.00  0.00     0.277 HD
HETATM   18  C13 UNL     1      23.313 -34.612 -53.967  1.00  0.00     0.032 C
ENDBRANCH  10  11
ENDBRANCH   9  10
ENDBRANCH   8   9
ENDBRANCH   7   8
ENDBRANCH   6   7
ENDBRANCH   2   6
BRANCH   1  19
HETATM   19  C1  UNL     1      26.176 -40.284 -58.316  1.00  0.00     0.207 C
BRANCH  19  20
HETATM   20  O1  UNL     1      25.932 -39.079 -58.936  1.00  0.00    -0.398 OA
ATOM     21  H1  UNL     1      25.078 -38.714 -58.734  1.00  0.00     0.209 HD
ENDBRANCH  19  20
ENDBRANCH   1  19
BRANCH   1  22
HETATM   22  O2  UNL     1      28.263 -39.329 -57.820  1.00  0.00    -0.382 OA
ATOM     23  H2  UNL     1      29.121 -39.729 -57.736  1.00  0.00     0.210 HD
ENDBRANCH   1  22
BRANCH   5  24
HETATM   24  O5  UNL     1      29.396 -41.418 -57.276  1.00  0.00    -0.387 OA
ATOM     25  H5  UNL     1      29.714 -41.359 -58.169  1.00  0.00     0.210 HD
ENDBRANCH   5  24
BRANCH   4  26
HETATM   26  O4  UNL     1      26.448 -42.796 -55.953  1.00  0.00    -0.368 OA
ATOM     27  H4  UNL     1      26.559 -43.738 -56.005  1.00  0.00     0.212 HD
ENDBRANCH   4  26
TORSDOF 11
ENDMDL