MODEL 3
REMARK VINA RESULT: -6.591793452      1.688      3.172
REMARK  10 active torsions:
REMARK  status: ('A' for Active; 'I' for Inactive)
REMARK    1  A    between atoms: C2_2  and  C3_3
REMARK    2  A    between atoms: C3_3  and  C4_4
REMARK    3  A    between atoms: C4_4  and  C5_5
REMARK    4  A    between atoms: C5_5  and  C6_6
REMARK    5  A    between atoms: C6_6  and  C7_7
REMARK    6  A    between atoms: C8_9  and  C9_10
REMARK    7  A    between atoms: C11_12  and  O2_13
REMARK    8  A    between atoms: C13_19  and  C14_20
REMARK    9  A    between atoms: C14_20  and  O3_21
REMARK   10  A    between atoms: C15_24  and  O5_25
ROOT
HETATM    1  C7  UNL     1      24.847 -40.900 -56.205  1.00  0.00     0.177 C
HETATM    2  O1  UNL     1      24.904 -40.879 -54.806  1.00  0.00    -0.371 OA
HETATM    3  C8  UNL     1      26.159 -40.469 -54.449  1.00  0.00     0.183 C
HETATM    4  C13 UNL     1      27.286 -41.064 -55.189  1.00  0.00     0.179 C
HETATM    5  O4  UNL     1      27.022 -41.669 -56.375  1.00  0.00    -0.349 OA
HETATM    6  C15 UNL     1      25.713 -42.054 -56.594  1.00  0.00     0.286 C
ENDROOT
BRANCH   3   7
HETATM    7  C9  UNL     1      26.172 -38.954 -54.467  1.00  0.00     0.219 C
HETATM    8  C10 UNL     1      27.053 -38.407 -55.599  1.00  0.00     0.069 C
HETATM    9  C11 UNL     1      27.133 -36.941 -55.146  1.00  0.00     0.145 C
HETATM   10  C12 UNL     1      27.353 -37.124 -53.659  1.00  0.00     0.264 C
HETATM   11  N1  UNL     1      26.919 -38.448 -53.319  1.00  0.00    -0.066 N
ATOM     12  H12 UNL     1      26.391 -38.487 -52.447  1.00  0.00     0.277 HD
ATOM     13  H11 UNL     1      27.683 -39.060 -53.034  1.00  0.00     0.277 HD
BRANCH   9  14
HETATM   14  O2  UNL     1      28.152 -36.267 -55.771  1.00  0.00    -0.394 OA
ATOM     15  H2  UNL     1      27.889 -35.394 -56.037  1.00  0.00     0.210 HD
ENDBRANCH   9  14
ENDBRANCH   3   7
BRANCH   4  16
HETATM   16  C14 UNL     1      28.003 -42.109 -54.321  1.00  0.00     0.198 C
BRANCH  16  17
HETATM   17  O3  UNL     1      27.081 -42.723 -53.497  1.00  0.00    -0.398 OA
ATOM     18  H3  UNL     1      26.220 -42.361 -53.668  1.00  0.00     0.209 HD
ENDBRANCH  16  17
ENDBRANCH   4  16
BRANCH   1  19
HETATM   19  C6  UNL     1      23.449 -40.926 -56.711  1.00  0.00     0.037 C
BRANCH  19  20
HETATM   20  C5  UNL     1      23.414 -40.502 -58.156  1.00  0.00     0.003 C
BRANCH  20  21
HETATM   21  C4  UNL     1      24.583 -41.066 -58.941  1.00  0.00     0.000 C
BRANCH  21  22
HETATM   22  C3  UNL     1      24.181 -41.800 -60.181  1.00  0.00    -0.000 C
BRANCH  22  23
HETATM   23  C2  UNL     1      24.921 -43.145 -60.155  1.00  0.00    -0.005 C
HETATM   24  C1  UNL     1      26.361 -42.967 -59.798  1.00  0.00     0.005 C
ENDBRANCH  22  23
ENDBRANCH  21  22
ENDBRANCH  20  21
ENDBRANCH  19  20
ENDBRANCH   1  19
BRANCH   6  25
HETATM   25  O5  UNL     1      25.473 -43.145 -55.726  1.00  0.00    -0.369 OA
ATOM     26  H5  UNL     1      26.299 -43.492 -55.410  1.00  0.00     0.212 HD
ENDBRANCH   6  25
TORSDOF 10
ENDMDL