MODEL 2
REMARK VINA RESULT: -7.634321016      0.887      1.141
REMARK  8 active torsions:
REMARK  status: ('A' for Active; 'I' for Inactive)
REMARK    1  A    between atoms: C2_2  and  O1_4
REMARK    2  A    between atoms: C2_2  and  C4_6
REMARK    3  A    between atoms: C7_9  and  N1_10
REMARK    4  A    between atoms: N1_10  and  C8_13
REMARK    5  A    between atoms: C8_13  and  C9_14
REMARK    6  A    between atoms: C9_14  and  N2_15
REMARK    7  A    between atoms: N2_15  and  C10_17
REMARK    8  A    between atoms: C10_17  and  C11_18
ROOT
HETATM    1  N1  UNL     1      26.817 -39.307 -53.885  1.00  0.00    -0.044 N
ATOM      2  H11 UNL     1      27.569 -39.688 -54.459  1.00  0.00     0.280 HD
ATOM      3  H12 UNL     1      27.133 -39.642 -52.974  1.00  0.00     0.280 HD
ENDROOT
BRANCH   1   4
HETATM    4  C7  UNL     1      25.543 -39.867 -54.242  1.00  0.00     0.358 C
HETATM    5  C6  UNL     1      25.532 -41.354 -54.404  1.00  0.00     0.067 C
HETATM    6  C5  UNL     1      26.512 -41.720 -55.521  1.00  0.00     0.042 C
HETATM    7  C4  UNL     1      26.180 -40.873 -56.700  1.00  0.00     0.194 C
HETATM    8  O3  UNL     1      25.079 -40.096 -56.449  1.00  0.00    -0.230 OA
HETATM    9  O2  UNL     1      25.158 -39.282 -55.450  1.00  0.00    -0.206 OA
BRANCH   7  10
HETATM   10  C2  UNL     1      25.838 -41.775 -57.876  1.00  0.00     0.079 C
HETATM   11  C1  UNL     1      27.036 -41.885 -58.814  1.00  0.00     0.048 C
HETATM   12  C3  UNL     1      24.681 -41.174 -58.618  1.00  0.00     0.048 C
BRANCH  10  13
HETATM   13  O1  UNL     1      25.481 -43.002 -57.369  1.00  0.00    -0.388 OA
ATOM     14  H1  UNL     1      24.908 -42.915 -56.616  1.00  0.00     0.210 HD
ENDBRANCH  10  13
ENDBRANCH   7  10
ENDBRANCH   1   4
BRANCH   1  15
HETATM   15  C8  UNL     1      26.786 -37.863 -53.939  1.00  0.00     0.254 C
BRANCH  15  16
HETATM   16  C9  UNL     1      26.853 -37.238 -52.585  1.00  0.00     0.141 C
BRANCH  16  17
HETATM   17  N2  UNL     1      26.377 -35.894 -52.605  1.00  0.00    -0.419 N
ATOM     18  H2  UNL     1      26.587 -35.233 -51.857  1.00  0.00     0.153 HD
BRANCH  17  19
HETATM   19  C10 UNL     1      25.584 -35.532 -53.741  1.00  0.00     0.118 C
BRANCH  19  20
HETATM   20  C11 UNL     1      24.576 -34.486 -53.300  1.00  0.00     0.006 C
HETATM   21  C12 UNL     1      23.262 -34.644 -54.014  1.00  0.00     0.034 C
HETATM   22  C13 UNL     1      22.453 -33.391 -53.758  1.00  0.00     0.232 C
HETATM   23  N3  UNL     1      22.333 -33.182 -52.330  1.00  0.00    -0.075 N
HETATM   24  C14 UNL     1      22.864 -34.259 -51.556  1.00  0.00     0.232 C
ATOM     25  H32 UNL     1      22.757 -32.295 -52.057  1.00  0.00     0.277 HD
ATOM     26  H31 UNL     1      21.365 -32.992 -52.071  1.00  0.00     0.277 HD
HETATM   27  C15 UNL     1      24.297 -34.592 -51.817  1.00  0.00     0.034 C
ENDBRANCH  19  20
ENDBRANCH  17  19
ENDBRANCH  16  17
ENDBRANCH  15  16
ENDBRANCH   1  15
TORSDOF 8
ENDMDL