MODEL 4
REMARK VINA RESULT: -7.246956886      2.389      3.366
REMARK  12 active torsions:
REMARK  status: ('A' for Active; 'I' for Inactive)
REMARK    1  A    between atoms: N1_1  and  N2_4
REMARK    2  A    between atoms: N2_4  and  N3_5
REMARK    3  A    between atoms: N3_5  and  C1_7
REMARK    4  A    between atoms: C1_7  and  C2_8
REMARK    5  A    between atoms: C2_8  and  C3_9
REMARK    6  A    between atoms: C3_9  and  C4_10
REMARK    7  A    between atoms: C4_10  and  C5_11
REMARK    8  A    between atoms: C5_11  and  O1_12
REMARK    9  A    between atoms: O1_12  and  C6_13
REMARK   10  A    between atoms: C8_18  and  O2_19
REMARK   11  A    between atoms: C9_21  and  O3_22
REMARK   12  A    between atoms: C10_24  and  O4_25
ROOT
HETATM    1  C6  UNL     1      26.074 -38.486 -55.007  1.00  0.00     0.469 C
HETATM    2  N4  UNL     1      26.889 -38.460 -56.230  1.00  0.00    -0.018 N
ATOM      3  H41 UNL     1      27.629 -37.762 -56.156  1.00  0.00     0.283 HD
ATOM      4  H42 UNL     1      26.361 -38.066 -57.008  1.00  0.00     0.283 HD
HETATM    5  C7  UNL     1      27.424 -39.721 -56.576  1.00  0.00     0.231 C
HETATM    6  C8  UNL     1      26.990 -40.221 -57.947  1.00  0.00     0.180 C
HETATM    7  C9  UNL     1      27.630 -41.610 -57.926  1.00  0.00     0.178 C
HETATM    8  C10 UNL     1      27.227 -42.095 -56.550  1.00  0.00     0.157 C
HETATM    9  C11 UNL     1      27.062 -40.857 -55.691  1.00  0.00     0.074 C
HETATM   10  C12 UNL     1      25.683 -40.765 -55.096  1.00  0.00     0.182 C
HETATM   11  O5  UNL     1      25.135 -39.499 -55.192  1.00  0.00    -0.339 OA
ENDROOT
BRANCH   1  12
HETATM   12  O1  UNL     1      26.810 -38.593 -53.890  1.00  0.00    -0.339 OA
BRANCH  12  13
HETATM   13  C5  UNL     1      27.103 -37.534 -53.103  1.00  0.00     0.172 C
BRANCH  13  14
HETATM   14  C4  UNL     1      26.677 -36.169 -53.462  1.00  0.00     0.026 C
BRANCH  14  15
HETATM   15  C3  UNL     1      25.614 -35.500 -52.679  1.00  0.00     0.004 C
BRANCH  15  16
HETATM   16  C2  UNL     1      24.659 -34.753 -53.610  1.00  0.00     0.022 C
BRANCH  16  17
HETATM   17  C1  UNL     1      23.586 -34.003 -52.895  1.00  0.00     0.155 C
BRANCH  17  18
HETATM   18  N3  UNL     1      22.442 -33.954 -53.823  1.00  0.00    -0.253 N
ATOM     19  H3  UNL     1      21.917 -34.806 -54.020  1.00  0.00     0.196 HD
BRANCH  18  20
HETATM   20  N2  UNL     1      22.109 -32.893 -54.367  1.00  0.00    -0.249 NA
BRANCH  20  21
HETATM   21  N1  UNL     1      21.535 -31.886 -54.745  1.00  0.00    -0.261 N
ATOM     22  H12 UNL     1      21.726 -32.098 -55.725  1.00  0.00     0.193 HD
ATOM     23  H11 UNL     1      21.020 -31.008 -54.822  1.00  0.00     0.193 HD
ENDBRANCH  20  21
ENDBRANCH  18  20
ENDBRANCH  17  18
ENDBRANCH  16  17
ENDBRANCH  15  16
ENDBRANCH  14  15
ENDBRANCH  13  14
ENDBRANCH  12  13
ENDBRANCH   1  12
BRANCH   6  24
HETATM   24  O2  UNL     1      27.476 -39.443 -58.970  1.00  0.00    -0.391 OA
ATOM     25  H2  UNL     1      26.787 -38.996 -59.447  1.00  0.00     0.210 HD
ENDBRANCH   6  24
BRANCH   7  26
HETATM   26  O3  UNL     1      27.161 -42.404 -58.939  1.00  0.00    -0.390 OA
ATOM     27  H3  UNL     1      27.077 -41.925 -59.755  1.00  0.00     0.210 HD
ENDBRANCH   7  26
BRANCH   8  28
HETATM   28  O4  UNL     1      26.046 -42.804 -56.694  1.00  0.00    -0.392 OA
ATOM     29  H4  UNL     1      26.196 -43.469 -57.356  1.00  0.00     0.210 HD
ENDBRANCH   8  28
TORSDOF 12
ENDMDL