MODEL 1
REMARK VINA RESULT: -7.418451409      0.000      0.000
REMARK  10 active torsions:
REMARK  status: ('A' for Active; 'I' for Inactive)
REMARK    1  A    between atoms: C3_4  and  N2_5
REMARK    2  A    between atoms: N3_8  and  C6_9
REMARK    3  A    between atoms: C6_9  and  C7_10
REMARK    4  A    between atoms: C7_10  and  C8_11
REMARK    5  A    between atoms: C8_11  and  C9_12
REMARK    6  A    between atoms: C9_12  and  C10_13
REMARK    7  A    between atoms: C10_13  and  C11_14
REMARK    8  A    between atoms: C11_14  and  N4_15
REMARK    9  A    between atoms: C13_22  and  N6_23
REMARK   10  A    between atoms: C14_28  and  N8_29
ROOT
HETATM    1  N1  UNL     1      23.742 -40.102 -58.079  1.00  0.00    -0.191 NA
HETATM    2  C1  UNL     1      24.751 -40.667 -58.077  1.00  0.00     0.107 C
HETATM    3  C2  UNL     1      26.011 -41.344 -58.071  1.00  0.00     0.133 A
HETATM    4  C3  UNL     1      26.923 -40.967 -57.108  1.00  0.00     0.145 A
HETATM    5  N5  UNL     1      28.110 -41.592 -57.091  1.00  0.00    -0.175 N
ATOM      6  H5  UNL     1      28.801 -41.331 -56.388  1.00  0.00     0.186 HD
HETATM    7  C13 UNL     1      28.413 -42.570 -57.991  1.00  0.00     0.679 A
HETATM    8  N7  UNL     1      27.535 -42.946 -58.932  1.00  0.00    -0.176 N
ATOM      9  H7  UNL     1      27.773 -43.679 -59.600  1.00  0.00     0.186 HD
HETATM   10  C14 UNL     1      26.336 -42.343 -58.982  1.00  0.00     0.139 A
ENDROOT
BRANCH   4  11
HETATM   11  N2  UNL     1      26.662 -39.953 -56.130  1.00  0.00    -0.338 N
HETATM   12  C4  UNL     1      25.813 -40.126 -54.953  1.00  0.00     0.156 C
HETATM   13  C5  UNL     1      26.409 -39.113 -53.977  1.00  0.00     0.294 C
HETATM   14  N3  UNL     1      26.944 -38.068 -54.825  1.00  0.00     0.107 N
HETATM   15  C12 UNL     1      27.171 -38.602 -56.125  1.00  0.00     0.399 C
BRANCH  14  16
HETATM   16  C6  UNL     1      26.174 -36.861 -54.809  1.00  0.00     0.274 C
BRANCH  16  17
HETATM   17  C7  UNL     1      26.625 -36.016 -53.637  1.00  0.00     0.030 C
BRANCH  17  18
HETATM   18  C8  UNL     1      25.464 -35.464 -52.857  1.00  0.00     0.002 C
BRANCH  18  19
HETATM   19  C9  UNL     1      24.584 -34.553 -53.665  1.00  0.00     0.002 C
BRANCH  19  20
HETATM   20  C10 UNL     1      23.341 -34.109 -52.961  1.00  0.00     0.027 C
BRANCH  20  21
HETATM   21  C11 UNL     1      23.509 -34.099 -51.451  1.00  0.00     0.229 C
BRANCH  21  22
HETATM   22  N4  UNL     1      22.358 -33.333 -50.940  1.00  0.00    -0.079 N
ATOM     23  H43 UNL     1      21.499 -33.878 -50.872  1.00  0.00     0.274 HD
ATOM     24  H42 UNL     1      22.427 -33.096 -49.950  1.00  0.00     0.274 HD
ATOM     25  H41 UNL     1      22.285 -32.521 -51.554  1.00  0.00     0.274 HD
ENDBRANCH  21  22
ENDBRANCH  20  21
ENDBRANCH  19  20
ENDBRANCH  18  19
ENDBRANCH  17  18
ENDBRANCH  16  17
ENDBRANCH  14  16
ENDBRANCH   4  11
BRANCH  10  26
HETATM   26  N8  UNL     1      25.467 -42.675 -59.872  1.00  0.00    -0.384 N
ATOM     27  H82 UNL     1      25.201 -42.024 -60.612  1.00  0.00     0.157 HD
ATOM     28  H81 UNL     1      25.046 -43.604 -59.823  1.00  0.00     0.157 HD
ENDBRANCH  10  26
BRANCH   7  29
HETATM   29  N6  UNL     1      29.548 -43.146 -57.947  1.00  0.00    -0.234 N
ATOM     30  H62 UNL     1      30.391 -42.571 -57.962  1.00  0.00     0.174 HD
ATOM     31  H61 UNL     1      29.603 -44.164 -57.899  1.00  0.00     0.174 HD
ENDBRANCH   7  29
TORSDOF 10
ENDMDL