MODEL 4
REMARK VINA RESULT: -7.047994123      2.311      3.573
REMARK  11 active torsions:
REMARK  status: ('A' for Active; 'I' for Inactive)
REMARK    1  A    between atoms: O1_1  and  C1_3
REMARK    2  A    between atoms: C1_3  and  C2_4
REMARK    3  A    between atoms: C3_6  and  C4_7
REMARK    4  A    between atoms: C4_7  and  C5_8
REMARK    5  A    between atoms: C5_8  and  C6_9
REMARK    6  A    between atoms: C6_9  and  C7_10
REMARK    7  A    between atoms: C7_10  and  C8_11
REMARK    8  A    between atoms: C8_11  and  C9_12
REMARK    9  A    between atoms: C13_19  and  O3_20
REMARK   10  A    between atoms: C14_22  and  O4_23
REMARK   11  A    between atoms: C15_25  and  O5_26
ROOT
HETATM    1  C2  UNL     1      26.948 -42.427 -57.504  1.00  0.00     0.176 C
HETATM    2  O2  UNL     1      25.639 -42.058 -57.775  1.00  0.00    -0.373 OA
HETATM    3  C3  UNL     1      25.337 -40.895 -57.112  1.00  0.00     0.153 C
HETATM    4  C13 UNL     1      26.011 -39.753 -57.792  1.00  0.00     0.178 C
HETATM    5  C14 UNL     1      27.522 -39.982 -57.645  1.00  0.00     0.180 C
HETATM    6  C15 UNL     1      27.817 -41.311 -57.031  1.00  0.00     0.180 C
ENDROOT
BRANCH   3   7
HETATM    7  C4  UNL     1      23.861 -40.693 -56.883  1.00  0.00     0.035 C
BRANCH   7   8
HETATM    8  C5  UNL     1      23.476 -40.612 -55.455  1.00  0.00     0.002 C
BRANCH   8   9
HETATM    9  C6  UNL     1      24.564 -41.306 -54.617  1.00  0.00     0.000 C
BRANCH   9  10
HETATM   10  C7  UNL     1      25.138 -40.443 -53.563  1.00  0.00     0.002 C
BRANCH  10  11
HETATM   11  C8  UNL     1      26.239 -39.577 -54.059  1.00  0.00     0.033 C
BRANCH  11  12
HETATM   12  C9  UNL     1      26.071 -38.105 -53.969  1.00  0.00     0.186 C
HETATM   13  C10 UNL     1      27.163 -37.495 -53.077  1.00  0.00     0.034 C
HETATM   14  C11 UNL     1      27.346 -36.078 -53.582  1.00  0.00     0.029 C
HETATM   15  C12 UNL     1      26.421 -36.035 -54.777  1.00  0.00     0.233 C
HETATM   16  N1  UNL     1      26.427 -37.410 -55.217  1.00  0.00    -0.071 N
ATOM     17  H12 UNL     1      27.288 -37.724 -55.664  1.00  0.00     0.277 HD
ATOM     18  H11 UNL     1      25.831 -37.616 -56.019  1.00  0.00     0.277 HD
ENDBRANCH  11  12
ENDBRANCH  10  11
ENDBRANCH   9  10
ENDBRANCH   8   9
ENDBRANCH   7   8
ENDBRANCH   3   7
BRANCH   4  19
HETATM   19  O3  UNL     1      25.755 -39.692 -59.154  1.00  0.00    -0.390 OA
ATOM     20  H3  UNL     1      24.889 -39.364 -59.362  1.00  0.00     0.210 HD
ENDBRANCH   4  19
BRANCH   1  21
HETATM   21  C1  UNL     1      27.584 -43.146 -58.694  1.00  0.00     0.198 C
BRANCH  21  22
HETATM   22  O1  UNL     1      26.987 -42.706 -59.877  1.00  0.00    -0.398 OA
ATOM     23  H1  UNL     1      27.628 -42.715 -60.577  1.00  0.00     0.209 HD
ENDBRANCH  21  22
ENDBRANCH   1  21
BRANCH   5  24
HETATM   24  O4  UNL     1      28.083 -38.996 -56.812  1.00  0.00    -0.390 OA
ATOM     25  H4  UNL     1      29.022 -38.952 -56.945  1.00  0.00     0.210 HD
ENDBRANCH   5  24
BRANCH   6  26
HETATM   26  O5  UNL     1      29.147 -41.641 -57.380  1.00  0.00    -0.390 OA
ATOM     27  H5  UNL     1      29.222 -41.544 -58.322  1.00  0.00     0.210 HD
ENDBRANCH   6  26
TORSDOF 11
ENDMDL