MODEL 4
REMARK VINA RESULT: -5.757312070      1.911      3.118
REMARK  12 active torsions:
REMARK  status: ('A' for Active; 'I' for Inactive)
REMARK    1  A    between atoms: C2_2  and  O1_3
REMARK    2  A    between atoms: C2_2  and  C3_5
REMARK    3  A    between atoms: C3_5  and  C4_6
REMARK    4  A    between atoms: C3_5  and  C7_11
REMARK    5  A    between atoms: C4_6  and  C6_8
REMARK    6  A    between atoms: C6_8  and  O2_9
REMARK    7  A    between atoms: C7_11  and  O3_12
REMARK    8  A    between atoms: C7_11  and  S1_14
REMARK    9  A    between atoms: S1_14  and  C8_15
REMARK   10  A    between atoms: C8_15  and  C9_16
REMARK   11  A    between atoms: C10_17  and  O4_18
REMARK   12  A    between atoms: C14_23  and  O5_24
ROOT
HETATM    1  C7  UNL     1      25.674 -41.449 -56.479  1.00  0.00     0.186 C
ENDROOT
BRANCH   1   2
HETATM    2  C3  UNL     1      25.978 -41.089 -57.930  1.00  0.00     0.058 C
BRANCH   2   3
HETATM    3  C2  UNL     1      27.398 -40.909 -58.266  1.00  0.00     0.121 C
HETATM    4  C1  UNL     1      28.376 -41.042 -57.125  1.00  0.00     0.040 C
BRANCH   3   5
HETATM    5  O1  UNL     1      27.553 -39.568 -58.701  1.00  0.00    -0.395 OA
ATOM      6  H1  UNL     1      27.753 -39.646 -59.627  1.00  0.00     0.210 HD
ENDBRANCH   3   5
ENDBRANCH   2   3
BRANCH   2   7
HETATM    7  C4  UNL     1      25.269 -42.136 -58.750  1.00  0.00     0.015 C
HETATM    8  C5  UNL     1      26.275 -42.988 -59.479  1.00  0.00     0.012 C
BRANCH   7   9
HETATM    9  C6  UNL     1      24.252 -41.631 -59.711  1.00  0.00     0.168 C
BRANCH   9  10
HETATM   10  O2  UNL     1      24.288 -42.277 -60.948  1.00  0.00    -0.400 OA
ATOM     11  H2  UNL     1      23.514 -42.798 -61.124  1.00  0.00     0.209 HD
ENDBRANCH   9  10
ENDBRANCH   7   9
ENDBRANCH   2   7
ENDBRANCH   1   2
BRANCH   1  12
HETATM   12  O3  UNL     1      24.901 -42.592 -56.546  1.00  0.00    -0.385 OA
ATOM     13  H3  UNL     1      24.067 -42.305 -56.898  1.00  0.00     0.211 HD
ENDBRANCH   1  12
BRANCH   1  14
HETATM   14  S1  UNL     1      24.905 -40.158 -55.572  1.00  0.00    -0.137 SA
BRANCH  14  15
HETATM   15  C8  UNL     1      25.788 -39.564 -54.181  1.00  0.00     0.086 C
BRANCH  15  16
HETATM   16  C9  UNL     1      26.492 -38.288 -54.201  1.00  0.00     0.052 C
HETATM   17  C10 UNL     1      27.459 -38.069 -55.361  1.00  0.00     0.125 C
HETATM   18  C11 UNL     1      28.454 -37.065 -54.931  1.00  0.00     0.032 C
HETATM   19  C12 UNL     1      28.096 -36.020 -53.969  1.00  0.00     0.005 C
HETATM   20  C13 UNL     1      26.820 -36.156 -53.197  1.00  0.00     0.032 C
HETATM   21  C14 UNL     1      25.803 -36.984 -54.026  1.00  0.00     0.125 C
BRANCH  17  22
HETATM   22  O4  UNL     1      26.852 -37.799 -56.555  1.00  0.00    -0.395 OA
ATOM     23  H4  UNL     1      26.495 -38.562 -56.995  1.00  0.00     0.210 HD
ENDBRANCH  17  22
BRANCH  21  24
HETATM   24  O5  UNL     1      25.679 -36.277 -55.244  1.00  0.00    -0.395 OA
ATOM     25  H5  UNL     1      25.879 -36.821 -55.998  1.00  0.00     0.210 HD
ENDBRANCH  21  24
ENDBRANCH  15  16
ENDBRANCH  14  15
ENDBRANCH   1  14
TORSDOF 12
ENDMDL