MODEL 5
REMARK VINA RESULT: -5.768433326      1.924      4.792
REMARK  2 active torsions:
REMARK  status: ('A' for Active; 'I' for Inactive)
REMARK    1  A    between atoms: C3_3  and  N1_4
REMARK    2  A    between atoms: N1_4  and  C4_6
ROOT
HETATM    1  N1  UNL     1     102.143  71.113  12.050  1.00  0.00    -0.411 N
ATOM      2  H1  UNL     1     102.237  72.124  11.951  1.00  0.00     0.154 HD
ENDROOT
BRANCH   1   3
HETATM    3  C3  UNL     1     103.177  70.474  12.651  1.00  0.00     0.104 C
HETATM    4  C2  UNL     1     103.115  69.028  13.028  1.00  0.00     0.054 C
HETATM    5  C1  UNL     1     104.343  68.911  13.952  1.00  0.00     0.234 C
HETATM    6  N2  UNL     1     104.928  70.231  14.037  1.00  0.00    -0.073 N
HETATM    7  C11 UNL     1     103.733  71.060  13.940  1.00  0.00     0.256 C
ATOM      8  H22 UNL     1     105.518  70.401  14.851  1.00  0.00     0.277 HD
ATOM      9  H21 UNL     1     105.661  70.434  13.357  1.00  0.00     0.277 HD
ENDBRANCH   1   3
BRANCH   1  10
HETATM   10  C4  UNL     1     100.964  70.555  11.552  1.00  0.00     0.077 C
HETATM   11  C5  UNL     1     100.197  69.714  12.477  1.00  0.00     0.025 C
HETATM   12  C6  UNL     1      99.434  68.533  11.976  1.00  0.00     0.007 C
HETATM   13  C7  UNL     1     100.000  68.026  10.736  1.00  0.00    -0.010 A
HETATM   14  C8  UNL     1      99.573  67.993   9.383  1.00  0.00     0.010 A
HETATM   15  C9  UNL     1      99.915  69.295   9.809  1.00  0.00    -0.008 A
HETATM   16  C10 UNL     1     101.172  69.963  10.135  1.00  0.00     0.029 C
ENDBRANCH   1  10
TORSDOF 2
ENDMDL