MODEL 2
REMARK VINA RESULT: -4.530532079      1.211      1.582
REMARK  4 active torsions:
REMARK  status: ('A' for Active; 'I' for Inactive)
REMARK    1  A    between atoms: N1_4  and  N2_6
REMARK    2  A    between atoms: N2_6  and  C4_8
REMARK    3  A    between atoms: C4_8  and  N3_10
REMARK    4  A    between atoms: N3_10  and  C5_12
ROOT
HETATM    1  C4  UNL     1     101.615  70.176  12.030  1.00  0.00     0.186 C
HETATM    2  S1  UNL     1     101.343  71.626  11.323  1.00  0.00    -0.040 SA
ENDROOT
BRANCH   1   3
HETATM    3  N2  UNL     1     102.937  69.822  12.334  1.00  0.00    -0.277 N
ATOM      4  H2  UNL     1     103.494  69.292  11.663  1.00  0.00     0.189 HD
BRANCH   3   5
HETATM    5  N1  UNL     1     103.487  70.200  13.560  1.00  0.00    -0.307 N
HETATM    6  C2  UNL     1     104.484  70.999  13.558  1.00  0.00    -0.004 C
HETATM    7  C1  UNL     1     105.018  71.492  12.271  1.00  0.00     0.064 C
HETATM    8  C3  UNL     1     105.082  71.413  14.844  1.00  0.00     0.064 C
ATOM      9  H1  UNL     1     103.103  69.847  14.436  1.00  0.00     0.186 HD
ENDBRANCH   3   5
ENDBRANCH   1   3
BRANCH   1  10
HETATM   10  N3  UNL     1     100.553  69.303  12.328  1.00  0.00    -0.361 N
ATOM     11  H3  UNL     1     100.492  68.882  13.255  1.00  0.00     0.162 HD
BRANCH  10  12
HETATM   12  C5  UNL     1      99.555  68.997  11.348  1.00  0.00     0.083 A
HETATM   13  C6  UNL     1      99.824  69.427   9.927  1.00  0.00     0.025 A
HETATM   14  C7  UNL     1      99.937  67.977   9.533  1.00  0.00     0.004 A
HETATM   15  C8  UNL     1      99.597  67.562  10.926  1.00  0.00     0.025 A
ENDBRANCH  10  12
ENDBRANCH   1  10
TORSDOF 4
ENDMDL