MODEL 3
REMARK VINA RESULT: -4.800652470      0.288      1.171
REMARK  4 active torsions:
REMARK  status: ('A' for Active; 'I' for Inactive)
REMARK    1  A    between atoms: C2_2  and  N1_4
REMARK    2  A    between atoms: N1_4  and  C4_6
REMARK    3  A    between atoms: C4_6  and  N2_8
REMARK    4  A    between atoms: N2_8  and  C5_10
ROOT
HETATM    1  C4  UNL     1     101.835  71.091  11.847  1.00  0.00     0.168 C
HETATM    2  S1  UNL     1     101.461  72.490  11.145  1.00  0.00    -0.041 SA
ENDROOT
BRANCH   1   3
HETATM    3  N1  UNL     1     103.184  70.842  12.204  1.00  0.00    -0.363 N
ATOM      4  H1  UNL     1     103.922  70.974  11.512  1.00  0.00     0.162 HD
BRANCH   3   5
HETATM    5  C2  UNL     1     103.530  70.399  13.552  1.00  0.00     0.075 C
HETATM    6  C1  UNL     1     104.718  71.191  14.011  1.00  0.00     0.032 C
HETATM    7  C3  UNL     1     103.837  68.917  13.557  1.00  0.00     0.032 C
ENDBRANCH   3   5
ENDBRANCH   1   3
BRANCH   1   8
HETATM    8  N2  UNL     1     100.860  70.114  12.126  1.00  0.00    -0.363 N
ATOM      9  H2  UNL     1     100.223  70.244  12.912  1.00  0.00     0.162 HD
BRANCH   8  10
HETATM   10  C5  UNL     1     100.758  68.936  11.309  1.00  0.00     0.083 C
HETATM   11  C6  UNL     1      99.681  67.983  11.657  1.00  0.00     0.025 C
HETATM   12  C7  UNL     1      99.604  67.100  10.398  1.00  0.00     0.002 C
HETATM   13  C8  UNL     1      99.675  68.118   9.309  1.00  0.00     0.002 C
HETATM   14  C9  UNL     1     100.490  69.267   9.858  1.00  0.00     0.025 C
ENDBRANCH   8  10
ENDBRANCH   1   8
TORSDOF 4
ENDMDL