MODEL 2
REMARK VINA RESULT: -4.846334184      0.038      1.230
REMARK  5 active torsions:
REMARK  status: ('A' for Active; 'I' for Inactive)
REMARK    1  A    between atoms: C2_2  and  N1_4
REMARK    2  A    between atoms: N1_4  and  C4_6
REMARK    3  A    between atoms: C4_6  and  N2_8
REMARK    4  A    between atoms: N2_8  and  C5_10
REMARK    5  A    between atoms: C5_10  and  C6_11
ROOT
HETATM    1  C4  UNL     1     100.516  69.830  11.708  1.00  0.00     0.167 C
HETATM    2  S1  UNL     1     100.855  71.215  10.884  1.00  0.00    -0.041 SA
ENDROOT
BRANCH   1   3
HETATM    3  N1  UNL     1      99.364  69.064  11.415  1.00  0.00    -0.363 N
ATOM      4  H1  UNL     1      98.486  69.346  11.852  1.00  0.00     0.162 HD
BRANCH   3   5
HETATM    5  C2  UNL     1      99.335  67.927  10.554  1.00  0.00     0.075 C
HETATM    6  C1  UNL     1      99.893  66.679  11.196  1.00  0.00     0.032 C
HETATM    7  C3  UNL     1     100.150  68.272   9.317  1.00  0.00     0.032 C
ENDBRANCH   3   5
ENDBRANCH   1   3
BRANCH   1   8
HETATM    8  N2  UNL     1     101.434  69.447  12.722  1.00  0.00    -0.367 N
ATOM      9  H2  UNL     1     101.512  68.474  13.016  1.00  0.00     0.161 HD
BRANCH   8  10
HETATM   10  C5  UNL     1     102.252  70.464  13.323  1.00  0.00     0.130 C
BRANCH  10  11
HETATM   11  C6  UNL     1     103.714  70.225  13.197  1.00  0.00    -0.035 C
HETATM   12  C7  UNL     1     104.462  71.079  14.226  1.00  0.00     0.016 C
HETATM   13  C8  UNL     1     103.989  68.772  13.531  1.00  0.00     0.016 C
HETATM   14  C9  UNL     1     104.247  70.557  11.838  1.00  0.00     0.016 C
ENDBRANCH  10  11
ENDBRANCH   8  10
ENDBRANCH   1   8
TORSDOF 5
ENDMDL