MODEL 1
REMARK VINA RESULT: -6.924832522      0.000      0.000
REMARK  2 active torsions:
REMARK  status: ('A' for Active; 'I' for Inactive)
REMARK    1  A    between atoms: C4_4  and  N1_5
REMARK    2  A    between atoms: N1_5  and  C5_7
ROOT
HETATM    1  C5  UNL     1     102.010  70.246  11.887  1.00  0.00     0.079 C
HETATM    2  C6  UNL     1     101.440  70.129  13.300  1.00  0.00     0.027 C
HETATM    3  C7  UNL     1     102.359  69.322  14.214  1.00  0.00     0.037 C
HETATM    4  C8  UNL     1     103.675  69.341  13.549  1.00  0.00     0.217 A
HETATM    5  N2  UNL     1     104.840  70.043  13.808  1.00  0.00    -0.063 N
ATOM      6  H21 UNL     1     105.800  69.877  13.505  1.00  0.00     0.278 HD
ATOM      7  H22 UNL     1     105.384  70.140  14.665  1.00  0.00     0.278 HD
HETATM    8  C9  UNL     1     103.850  70.843  13.270  1.00  0.00     0.218 A
HETATM    9  C10 UNL     1     103.336  70.946  11.880  1.00  0.00     0.059 C
ENDROOT
BRANCH   1  10
HETATM   10  N1  UNL     1     100.996  70.716  11.062  1.00  0.00    -0.413 N
ATOM     11  H1  UNL     1     100.934  71.724  10.922  1.00  0.00     0.154 HD
BRANCH  10  12
HETATM   12  C4  UNL     1     100.067  69.926  10.416  1.00  0.00     0.077 C
HETATM   13  C3  UNL     1      99.622  68.831  11.381  1.00  0.00     0.024 C
HETATM   14  C2  UNL     1      99.405  67.596  10.562  1.00  0.00     0.002 C
HETATM   15  C1  UNL     1      99.996  67.841   9.201  1.00  0.00     0.002 C
HETATM   16  C11 UNL     1     100.731  69.149   9.283  1.00  0.00     0.024 C
ENDBRANCH  10  12
ENDBRANCH   1  10
TORSDOF 2
ENDMDL