MODEL 2
REMARK VINA RESULT: -5.251999229      1.233      1.491
REMARK  3 active torsions:
REMARK  status: ('A' for Active; 'I' for Inactive)
REMARK    1  A    between atoms: C2_2  and  C4_5
REMARK    2  A    between atoms: C9_10  and  C10_11
REMARK    3  A    between atoms: C10_11  and  N2_12
ROOT
HETATM    1  C1  UNL     1     104.203  70.858  11.845  1.00  0.00     0.026 C
HETATM    2  C2  UNL     1     103.309  70.610  13.013  1.00  0.00     0.093 C
HETATM    3  C3  UNL     1     103.568  69.250  13.505  1.00  0.00     0.064 C
HETATM    4  N1  UNL     1     103.782  68.175  13.912  1.00  0.00    -0.197 NA
ENDROOT
BRANCH   2   5
HETATM    5  C4  UNL     1     101.843  70.724  12.689  1.00  0.00     0.003 C
HETATM    6  C5  UNL     1     101.728  71.186  11.256  1.00  0.00     0.006 C
HETATM    7  C6  UNL     1     100.325  71.485  10.837  1.00  0.00     0.000 C
HETATM    8  C7  UNL     1      99.661  70.302  10.147  1.00  0.00     0.000 C
HETATM    9  C8  UNL     1      99.270  69.333  11.244  1.00  0.00     0.006 C
HETATM   10  C9  UNL     1     100.587  68.751  11.771  1.00  0.00     0.011 C
HETATM   11  C11 UNL     1     101.075  69.488  12.985  1.00  0.00     0.012 C
BRANCH  10  12
HETATM   12  C10 UNL     1     100.305  67.300  12.128  1.00  0.00     0.234 C
BRANCH  12  13
HETATM   13  N2  UNL     1      99.657  66.635  11.001  1.00  0.00    -0.079 N
ATOM     14  H23 UNL     1      99.816  65.628  11.004  1.00  0.00     0.274 HD
ATOM     15  H22 UNL     1      98.641  66.622  11.094  1.00  0.00     0.274 HD
ATOM     16  H21 UNL     1      99.958  67.070  10.128  1.00  0.00     0.274 HD
ENDBRANCH  12  13
ENDBRANCH  10  12
ENDBRANCH   2   5
TORSDOF 3
ENDMDL