MODEL 4
REMARK VINA RESULT: -4.830961385      1.671      5.116
REMARK  2 active torsions:
REMARK  status: ('A' for Active; 'I' for Inactive)
REMARK    1  A    between atoms: N1_4  and  N2_5
REMARK    2  A    between atoms: N2_5  and  C4_7
ROOT
HETATM    1  C4  UNL     1     103.515  69.696  13.720  1.00  0.00     0.102 C
HETATM    2  C5  UNL     1     104.107  69.912  12.341  1.00  0.00     0.054 C
HETATM    3  C6  UNL     1     104.567  71.340  12.151  1.00  0.00     0.234 C
HETATM    4  N3  UNL     1     105.555  71.731  13.121  1.00  0.00    -0.075 N
ATOM      5  H31 UNL     1     105.705  72.740  13.104  1.00  0.00     0.277 HD
ATOM      6  H32 UNL     1     106.486  71.421  12.841  1.00  0.00     0.277 HD
HETATM    7  C7  UNL     1     105.236  71.276  14.457  1.00  0.00     0.234 C
HETATM    8  C8  UNL     1     103.751  70.980  14.488  1.00  0.00     0.054 C
ENDROOT
BRANCH   1   9
HETATM    9  N2  UNL     1     102.133  69.400  13.574  1.00  0.00    -0.334 N
ATOM     10  H2  UNL     1     101.572  69.058  14.354  1.00  0.00     0.180 HD
BRANCH   9  11
HETATM   11  N1  UNL     1     101.597  69.596  12.335  1.00  0.00    -0.332 N
HETATM   12  C3  UNL     1     100.725  68.542  11.958  1.00  0.00     0.142 C
HETATM   13  C2  UNL     1      99.396  68.934  11.424  1.00  0.00     0.021 C
HETATM   14  C1  UNL     1      99.384  70.153  10.557  1.00  0.00     0.003 C
HETATM   15  C10 UNL     1     100.686  70.908  10.573  1.00  0.00     0.021 C
HETATM   16  C9  UNL     1     101.173  70.907  12.021  1.00  0.00     0.142 C
ENDBRANCH   9  11
ENDBRANCH   1   9
TORSDOF 2
ENDMDL