MODEL 4
REMARK VINA RESULT: -6.585533506      1.553      1.617
REMARK  4 active torsions:
REMARK  status: ('A' for Active; 'I' for Inactive)
REMARK    1  A    between atoms: C1_2  and  N2_4
REMARK    2  A    between atoms: N2_4  and  N3_6
REMARK    3  A    between atoms: N3_6  and  C2_8
REMARK    4  A    between atoms: C3_9  and  C4_10
ROOT
HETATM    1  N3  UNL     1     102.721  69.349  13.727  1.00  0.00    -0.310 N
ATOM      2  H3  UNL     1     102.373  68.606  14.332  1.00  0.00     0.186 HD
ENDROOT
BRANCH   1   3
HETATM    3  N2  UNL     1     104.101  69.570  13.687  1.00  0.00    -0.279 N
ATOM      4  H2  UNL     1     104.758  68.793  13.605  1.00  0.00     0.189 HD
BRANCH   3   5
HETATM    5  C1  UNL     1     104.554  70.905  13.761  1.00  0.00     0.199 C
HETATM    6  N1  UNL     1     104.562  71.640  14.992  1.00  0.00    -0.068 NA
HETATM    7  S1  UNL     1     105.087  71.627  12.400  1.00  0.00    -0.043 SA
ENDBRANCH   3   5
ENDBRANCH   1   3
BRANCH   1   8
HETATM    8  C2  UNL     1     101.870  70.021  13.054  1.00  0.00     0.103 C
HETATM    9  C3  UNL     1     101.287  70.577  12.004  1.00  0.00    -0.003 C
BRANCH   9  10
HETATM   10  C4  UNL     1     100.256  69.803  11.311  1.00  0.00     0.009 C
HETATM   11  C5  UNL     1     100.814  69.548   9.904  1.00  0.00     0.008 C
HETATM   12  C6  UNL     1      99.880  68.476   9.409  1.00  0.00     0.001 C
HETATM   13  C7  UNL     1      99.503  67.667  10.645  1.00  0.00     0.001 C
HETATM   14  C8  UNL     1     100.132  68.384  11.819  1.00  0.00     0.008 C
ENDBRANCH   9  10
ENDBRANCH   1   8
TORSDOF 4
ENDMDL