MODEL 4
REMARK VINA RESULT: -6.235510227      0.713      1.478
REMARK  3 active torsions:
REMARK  status: ('A' for Active; 'I' for Inactive)
REMARK    1  A    between atoms: C1_2  and  N2_4
REMARK    2  A    between atoms: N2_4  and  N3_6
REMARK    3  A    between atoms: C2_8  and  C3_9
ROOT
HETATM    1  N3  UNL     1     102.929  70.721  11.707  1.00  0.00    -0.314 N
ATOM      2  H3  UNL     1     103.215  69.912  11.154  1.00  0.00     0.185 HD
HETATM    3  C2  UNL     1     101.673  70.941  11.875  1.00  0.00     0.084 C
ENDROOT
BRANCH   1   4
HETATM    4  N2  UNL     1     103.904  71.534  12.245  1.00  0.00    -0.279 N
ATOM      5  H2  UNL     1     104.138  72.418  11.793  1.00  0.00     0.189 HD
BRANCH   4   6
HETATM    6  C1  UNL     1     104.579  71.139  13.425  1.00  0.00     0.199 C
HETATM    7  N1  UNL     1     105.523  71.993  14.032  1.00  0.00    -0.068 NA
HETATM    8  S1  UNL     1     104.238  69.670  14.064  1.00  0.00    -0.043 SA
ENDBRANCH   4   6
ENDBRANCH   1   4
BRANCH   3   9
HETATM    9  C3  UNL     1     100.719  70.009  11.255  1.00  0.00     0.025 C
HETATM   10  C4  UNL     1     101.281  69.409   9.972  1.00  0.00     0.010 C
HETATM   11  C5  UNL     1     100.085  68.870   9.206  1.00  0.00     0.001 C
HETATM   12  C6  UNL     1      99.081  68.298  10.172  1.00  0.00     0.000 C
HETATM   13  C7  UNL     1      99.736  67.779  11.437  1.00  0.00     0.001 C
HETATM   14  C8  UNL     1     100.396  68.886  12.211  1.00  0.00     0.010 C
ENDBRANCH   3   9
TORSDOF 3
ENDMDL