MODEL 4
REMARK VINA RESULT: -5.447923091      1.652      4.825
REMARK  3 active torsions:
REMARK  status: ('A' for Active; 'I' for Inactive)
REMARK    1  A    between atoms: N1_1  and  C1_5
REMARK    2  A    between atoms: C1_5  and  C2_6
REMARK    3  A    between atoms: C2_6  and  C3_7
ROOT
HETATM    1  C1  UNL     1     100.837  69.429  12.323  1.00  0.00     0.284 C
HETATM    2  C8  UNL     1     100.600  70.360  11.200  1.00  0.00     0.069 C
HETATM    3  C9  UNL     1     100.711  69.694   9.836  1.00  0.00     0.006 C
HETATM    4  C10 UNL     1      99.595  68.675   9.760  1.00  0.00     0.028 C
HETATM    5  C11 UNL     1      99.667  67.834  11.005  1.00  0.00     0.235 C
HETATM    6  N2  UNL     1     100.856  68.078  11.787  1.00  0.00    -0.041 N
ATOM      7  H21 UNL     1     100.980  67.379  12.520  1.00  0.00     0.280 HD
ATOM      8  H22 UNL     1     101.707  67.892  11.255  1.00  0.00     0.280 HD
ENDROOT
BRANCH   1   9
HETATM    9  N1  UNL     1      99.597  69.456  13.158  1.00  0.00    -0.044 N
ATOM     10  H13 UNL     1      99.032  68.608  13.101  1.00  0.00     0.277 HD
ATOM     11  H12 UNL     1      99.763  69.406  14.163  1.00  0.00     0.277 HD
ATOM     12  H11 UNL     1      99.118  70.303  12.852  1.00  0.00     0.277 HD
ENDBRANCH   1   9
BRANCH   1  13
HETATM   13  C2  UNL     1     101.911  69.705  13.288  1.00  0.00     0.074 C
BRANCH  13  14
HETATM   14  C3  UNL     1     103.309  69.388  13.033  1.00  0.00    -0.010 C
HETATM   15  C4  UNL     1     103.986  69.894  11.823  1.00  0.00     0.005 C
HETATM   16  C5  UNL     1     104.142  71.382  12.168  1.00  0.00     0.000 C
HETATM   17  C6  UNL     1     104.782  71.255  13.533  1.00  0.00     0.000 C
HETATM   18  C7  UNL     1     104.163  70.043  14.142  1.00  0.00     0.005 C
ENDBRANCH  13  14
ENDBRANCH   1  13
TORSDOF 3
ENDMDL