MODEL 3
REMARK VINA RESULT: -5.691051395      1.015      1.381
REMARK  14 active torsions:
REMARK  status: ('A' for Active; 'I' for Inactive)
REMARK    1  A    between atoms: C2_2  and  C3_3
REMARK    2  A    between atoms: C3_3  and  C4_4
REMARK    3  A    between atoms: C4_4  and  C22_35
REMARK    4  A    between atoms: C5_5  and  O1_6
REMARK    5  A    between atoms: C5_5  and  N1_8
REMARK    6  A    between atoms: N1_8  and  C7_10
REMARK    7  A    between atoms: C7_10  and  C8_11
REMARK    8  A    between atoms: C9_13  and  C10_14
REMARK    9  A    between atoms: C10_14  and  C11_15
REMARK   10  A    between atoms: C12_17  and  O4_18
REMARK   11  A    between atoms: O4_18  and  C13_19
REMARK   12  A    between atoms: C14_21  and  C15_22
REMARK   13  A    between atoms: C20_29  and  O6_30
REMARK   14  A    between atoms: C21_32  and  O7_33
ROOT
HETATM    1  C11 UNL     1       8.479  -0.017  24.251  1.00  0.00     0.158 C
HETATM    2  O3  UNL     1       7.764  -1.191  24.460  1.00  0.00    -0.352 OA
HETATM    3  C12 UNL     1       7.959  -1.699  25.743  1.00  0.00     0.280 C
HETATM    4  C14 UNL     1       9.364  -2.222  25.926  1.00  0.00     0.106 C
HETATM    5  C20 UNL     1      10.268  -1.440  25.081  1.00  0.00     0.162 C
HETATM    6  C21 UNL     1       9.871  -0.023  24.775  1.00  0.00     0.176 C
ENDROOT
BRANCH   1   7
HETATM    7  C10 UNL     1       7.687   1.201  24.677  1.00  0.00     0.069 C
BRANCH   7   8
HETATM    8  C9  UNL     1       7.364   2.090  23.495  1.00  0.00     0.155 A
HETATM    9  C8  UNL     1       7.724   3.527  23.568  1.00  0.00     0.169 A
HETATM   10  O2  UNL     1       6.397   3.073  23.676  1.00  0.00    -0.374 OA
BRANCH   9  11
HETATM   11  C7  UNL     1       8.062   4.288  22.339  1.00  0.00     0.159 C
BRANCH  11  12
HETATM   12  N1  UNL     1       9.353   4.967  22.365  1.00  0.00    -0.363 N
HETATM   13  C6  UNL     1      10.389   4.359  21.575  1.00  0.00     0.152 C
BRANCH  12  14
HETATM   14  C5  UNL     1       9.505   6.145  23.083  1.00  0.00     0.144 C
HETATM   15  C4  UNL     1       9.558   6.469  24.482  1.00  0.00    -0.008 C
BRANCH  15  16
HETATM   16  C3  UNL     1       8.329   6.979  25.083  1.00  0.00    -0.015 C
BRANCH  16  17
HETATM   17  C2  UNL     1       8.145   8.327  25.607  1.00  0.00     0.023 C
HETATM   18  C1  UNL     1       8.411   8.595  27.042  1.00  0.00     0.009 C
ENDBRANCH  16  17
ENDBRANCH  15  16
BRANCH  15  19
HETATM   19  C22 UNL     1      10.349   5.528  25.375  1.00  0.00     0.014 C
HETATM   20  C23 UNL     1      11.273   6.340  26.246  1.00  0.00     0.015 C
HETATM   21  C24 UNL     1       9.360   4.859  26.315  1.00  0.00     0.015 C
ENDBRANCH  15  19
BRANCH  14  22
HETATM   22  O1  UNL     1       9.631   7.203  22.299  1.00  0.00    -0.346 OA
ATOM     23  H1  UNL     1       9.241   7.081  21.442  1.00  0.00     0.219 HD
ENDBRANCH  14  22
ENDBRANCH  12  14
ENDBRANCH  11  12
ENDBRANCH   9  11
ENDBRANCH   7   8
ENDBRANCH   1   7
BRANCH   6  24
HETATM   24  O7  UNL     1      10.132   0.887  25.782  1.00  0.00    -0.390 OA
ATOM     25  H7  UNL     1      11.022   0.886  26.115  1.00  0.00     0.210 HD
ENDBRANCH   6  24
BRANCH   3  26
HETATM   26  O4  UNL     1       7.047  -2.801  25.856  1.00  0.00    -0.296 OA
BRANCH  26  27
HETATM   27  C13 UNL     1       6.689  -3.518  24.741  1.00  0.00     0.400 C
HETATM   28  O5  UNL     1       7.108  -4.670  24.500  1.00  0.00    -0.276 OA
ENDBRANCH  26  27
ENDBRANCH   3  26
BRANCH   5  29
HETATM   29  O6  UNL     1      11.623  -1.549  25.402  1.00  0.00    -0.392 OA
ATOM     30  H6  UNL     1      12.211  -1.608  24.658  1.00  0.00     0.210 HD
ENDBRANCH   5  29
BRANCH   4  31
HETATM   31  C15 UNL     1       9.629  -2.372  27.336  1.00  0.00    -0.044 A
HETATM   32  C16 UNL     1       9.936  -3.602  27.868  1.00  0.00     0.025 A
HETATM   33  C17 UNL     1      10.180  -3.719  29.249  1.00  0.00     0.088 A
HETATM   34  N2  UNL     1      10.120  -2.656  30.066  1.00  0.00    -0.375 N
HETATM   35  C18 UNL     1       9.822  -1.442  29.571  1.00  0.00     0.088 A
ATOM     36  H2  UNL     1      10.302  -2.769  31.063  1.00  0.00     0.164 HD
HETATM   37  C19 UNL     1       9.584  -1.310  28.241  1.00  0.00     0.025 A
ENDBRANCH   4  31
TORSDOF 14
ENDMDL