MODEL 3
REMARK VINA RESULT: -4.948479759      2.833      7.034
REMARK  13 active torsions:
REMARK  status: ('A' for Active; 'I' for Inactive)
REMARK    1  A    between atoms: O1_2  and  C2_3
REMARK    2  A    between atoms: C2_3  and  C3_4
REMARK    3  A    between atoms: C3_4  and  C4_5
REMARK    4  A    between atoms: C4_5  and  C5_6
REMARK    5  A    between atoms: C6_7  and  C7_8
REMARK    6  A    between atoms: C7_8  and  O2_9
REMARK    7  A    between atoms: C9_12  and  N1_13
REMARK       I    between atoms: N1_13  and  C10_15
REMARK    8  A    between atoms: C10_15  and  C11_17
REMARK    9  A    between atoms: C11_17  and  N2_18
REMARK   10  A    between atoms: N5_28  and  C17_29
REMARK   11  A    between atoms: C17_29  and  C18_30
REMARK   12  A    between atoms: C18_30  and  C19_32
REMARK   13  A    between atoms: C19_32  and  C20_33
ROOT
HETATM    1  C5  UNL     1       9.866   4.036  23.166  1.00  0.00     0.023 A
HETATM    2  C6  UNL     1       9.118   5.241  22.871  1.00  0.00     0.006 A
HETATM    3  C8  UNL     1       7.878   4.878  22.514  1.00  0.00     0.063 A
HETATM    4  C9  UNL     1       6.732   5.553  22.128  1.00  0.00     0.123 A
HETATM    5  N3  UNL     1       5.633   4.811  21.834  1.00  0.00    -0.331 N
ATOM      6  H3  UNL     1       4.788   5.306  21.549  1.00  0.00     0.168 HD
HETATM    7  C14 UNL     1       5.584   3.476  21.893  1.00  0.00     0.080 A
HETATM    8  C15 UNL     1       4.344   2.718  21.557  1.00  0.00     0.089 C
HETATM    9  N4  UNL     1       6.683   2.798  22.265  1.00  0.00    -0.331 N
ATOM     10  H4  UNL     1       6.668   1.780  22.317  1.00  0.00     0.168 HD
HETATM   11  C16 UNL     1       7.804   3.481  22.569  1.00  0.00     0.124 A
HETATM   12  N5  UNL     1       9.038   3.051  22.968  1.00  0.00    -0.328 N
ENDROOT
BRANCH   4  13
HETATM   13  N1  UNL     1       6.707   6.814  22.053  1.00  0.00    -0.311 N
HETATM   14  C10 UNL     1       5.812   7.647  22.776  1.00  0.00     0.251 C
HETATM   15  O3  UNL     1       4.762   7.998  22.164  1.00  0.00    -0.271 OA
ATOM     16  H1  UNL     1       7.378   7.265  21.430  1.00  0.00     0.170 HD
BRANCH  14  17
HETATM   17  C11 UNL     1       6.051   8.101  24.155  1.00  0.00     0.373 C
BRANCH  17  18
HETATM   18  N2  UNL     1       7.322   8.758  24.250  1.00  0.00     0.088 N
HETATM   19  C12 UNL     1       7.406   9.998  23.536  1.00  0.00     0.310 C
HETATM   20  C13 UNL     1       7.775   8.933  25.599  1.00  0.00     0.310 C
ENDBRANCH  17  18
ENDBRANCH  14  17
ENDBRANCH   4  13
BRANCH   2  21
HETATM   21  C7  UNL     1       9.752   6.567  22.987  1.00  0.00     0.206 C
BRANCH  21  22
HETATM   22  O2  UNL     1       9.680   7.422  21.957  1.00  0.00    -0.396 OA
ATOM     23  H2  UNL     1      10.189   8.224  21.981  1.00  0.00     0.209 HD
ENDBRANCH  21  22
ENDBRANCH   2  21
BRANCH   1  24
HETATM   24  C4  UNL     1      11.265   4.195  23.579  1.00  0.00     0.060 C
BRANCH  24  25
HETATM   25  C3  UNL     1      11.675   3.828  24.931  1.00  0.00     0.032 C
BRANCH  25  26
HETATM   26  C2  UNL     1      10.863   4.740  25.895  1.00  0.00     0.167 C
BRANCH  26  27
HETATM   27  O1  UNL     1      11.584   5.917  26.063  1.00  0.00    -0.396 OA
HETATM   28  C1  UNL     1      10.747   6.892  26.612  1.00  0.00     0.201 C
ENDBRANCH  26  27
ENDBRANCH  25  26
ENDBRANCH  24  25
ENDBRANCH   1  24
BRANCH  12  29
HETATM   29  C17 UNL     1       9.315   1.628  23.117  1.00  0.00     0.209 C
BRANCH  29  30
HETATM   30  C18 UNL     1       9.080   1.154  24.485  1.00  0.00     0.145 C
HETATM   31  O4  UNL     1       7.975   1.396  24.982  1.00  0.00    -0.296 OA
BRANCH  30  32
HETATM   32  C19 UNL     1      10.043   0.426  25.293  1.00  0.00     0.088 C
BRANCH  32  33
HETATM   33  C20 UNL     1       9.866  -1.026  25.515  1.00  0.00    -0.045 C
HETATM   34  C21 UNL     1       8.722  -1.674  24.788  1.00  0.00     0.015 C
HETATM   35  C22 UNL     1       9.569  -1.206  27.025  1.00  0.00     0.015 C
HETATM   36  C23 UNL     1      11.094  -1.854  25.236  1.00  0.00     0.015 C
ENDBRANCH  32  33
ENDBRANCH  30  32
ENDBRANCH  29  30
ENDBRANCH  12  29
TORSDOF 13
ENDMDL