MODEL 2
REMARK VINA RESULT: -5.338759105      2.396      4.352
REMARK  12 active torsions:
REMARK  status: ('A' for Active; 'I' for Inactive)
REMARK    1  A    between atoms: C3_3  and  N1_4
REMARK    2  A    between atoms: N1_4  and  C4_5
REMARK       I    between atoms: N1_4  and  C7_12
REMARK    3  A    between atoms: C4_5  and  C5_6
REMARK    4  A    between atoms: C5_6  and  C6_7
REMARK    5  A    between atoms: C6_7  and  N2_8
REMARK    6  A    between atoms: C7_12  and  C8_14
REMARK    7  A    between atoms: C8_14  and  C9_15
REMARK    8  A    between atoms: C9_15  and  C10_16
REMARK    9  A    between atoms: C10_16  and  C11_17
REMARK   10  A    between atoms: C11_17  and  N3_18
REMARK   11  A    between atoms: N7_31  and  C17_32
REMARK   12  A    between atoms: C19_34  and  O2_35
ROOT
HETATM    1  C1  UNL     1       7.103   5.414  28.760  1.00  0.00     0.098 C
HETATM    2  C2  UNL     1       7.772   4.979  27.836  1.00  0.00    -0.168 C
HETATM    3  C3  UNL     1       8.587   4.464  26.739  1.00  0.00     0.205 C
ENDROOT
BRANCH   3   4
HETATM    4  N1  UNL     1       9.079   5.617  25.932  1.00  0.00    -0.343 N
HETATM    5  C7  UNL     1       8.436   5.941  24.724  1.00  0.00     0.220 C
HETATM    6  O1  UNL     1       7.458   5.185  24.373  1.00  0.00    -0.273 OA
BRANCH   4   7
HETATM    7  C4  UNL     1      10.209   6.341  26.416  1.00  0.00     0.128 C
BRANCH   7   8
HETATM    8  C5  UNL     1       9.980   7.756  26.826  1.00  0.00     0.047 C
BRANCH   8   9
HETATM    9  C6  UNL     1       9.842   7.988  28.294  1.00  0.00     0.231 C
BRANCH   9  10
HETATM   10  N2  UNL     1       8.614   8.735  28.596  1.00  0.00    -0.079 N
ATOM     11  H23 UNL     1       8.629   9.667  28.184  1.00  0.00     0.274 HD
ATOM     12  H22 UNL     1       7.810   8.356  28.094  1.00  0.00     0.274 HD
ATOM     13  H21 UNL     1       8.445   8.770  29.602  1.00  0.00     0.274 HD
ENDBRANCH   9  10
ENDBRANCH   8   9
ENDBRANCH   7   8
ENDBRANCH   4   7
BRANCH   5  14
HETATM   14  C8  UNL     1       8.755   7.042  23.823  1.00  0.00     0.103 C
BRANCH  14  15
HETATM   15  C9  UNL     1       9.221   6.553  22.457  1.00  0.00     0.011 C
BRANCH  15  16
HETATM   16  C10 UNL     1      10.691   6.318  22.371  1.00  0.00     0.020 C
BRANCH  16  17
HETATM   17  C11 UNL     1      10.912   5.045  21.543  1.00  0.00     0.121 C
BRANCH  17  18
HETATM   18  N3  UNL     1      10.207   3.935  22.103  1.00  0.00    -0.374 N
HETATM   19  C12 UNL     1      10.475   3.376  23.225  1.00  0.00     0.133 A
HETATM   20  N4  UNL     1      11.466   3.750  24.056  1.00  0.00    -0.337 N
HETATM   21  C15 UNL     1       9.692   2.302  23.627  1.00  0.00     0.122 A
HETATM   22  C13 UNL     1      11.673   3.099  25.223  1.00  0.00     0.183 A
ATOM     23  H4  UNL     1      12.067   4.534  23.803  1.00  0.00     0.168 HD
HETATM   24  N5  UNL     1      10.908   2.060  25.602  1.00  0.00    -0.336 N
HETATM   25  C14 UNL     1       9.909   1.640  24.825  1.00  0.00     0.140 A
ATOM     26  H5  UNL     1      11.092   1.591  26.489  1.00  0.00     0.168 HD
HETATM   27  N7  UNL     1       9.015   0.650  24.961  1.00  0.00    -0.322 N
HETATM   28  C16 UNL     1       8.245   0.700  23.852  1.00  0.00     0.185 A
HETATM   29  N6  UNL     1       8.654   1.685  23.063  1.00  0.00    -0.346 N
ATOM     30  H6  UNL     1       8.238   1.932  22.165  1.00  0.00     0.167 HD
ATOM     31  H3  UNL     1       9.426   3.557  21.566  1.00  0.00     0.161 HD
BRANCH  27  32
HETATM   32  C17 UNL     1       8.850  -0.281  26.006  1.00  0.00     0.095 C
HETATM   33  C18 UNL     1       7.711  -1.260  25.838  1.00  0.00     0.058 C
HETATM   34  C19 UNL     1       7.942  -2.141  27.050  1.00  0.00     0.130 C
HETATM   35  C21 UNL     1       9.429  -2.102  27.330  1.00  0.00    -0.020 C
HETATM   36  C22 UNL     1      10.051  -3.474  27.341  1.00  0.00     0.017 C
HETATM   37  C23 UNL     1       9.673  -1.349  28.614  1.00  0.00     0.017 C
HETATM   38  C24 UNL     1      10.009  -1.244  26.203  1.00  0.00     0.037 C
BRANCH  34  39
HETATM   39  O2  UNL     1       7.431  -3.399  26.931  1.00  0.00    -0.390 OA
HETATM   40  C20 UNL     1       6.234  -3.598  27.605  1.00  0.00     0.202 C
ENDBRANCH  34  39
ENDBRANCH  27  32
ENDBRANCH  17  18
ENDBRANCH  16  17
ENDBRANCH  15  16
ENDBRANCH  14  15
ENDBRANCH   5  14
ENDBRANCH   3   4
TORSDOF 12
ENDMDL