MODEL 3
REMARK VINA RESULT: -4.874904730      1.647      2.341
REMARK  14 active torsions:
REMARK  status: ('A' for Active; 'I' for Inactive)
REMARK    1  A    between atoms: C2_2  and  N1_3
REMARK    2  A    between atoms: N1_3  and  C3_4
REMARK    3  A    between atoms: N1_3  and  C5_6
REMARK    4  A    between atoms: C5_6  and  C6_7
REMARK    5  A    between atoms: C6_7  and  C7_8
REMARK    6  A    between atoms: C7_8  and  N2_9
REMARK    7  A    between atoms: N2_9  and  C8_11
REMARK    8  A    between atoms: C8_11  and  N3_13
REMARK    9  A    between atoms: N3_13  and  C9_15
REMARK   10  A    between atoms: C10_20  and  S2_21
REMARK   11  A    between atoms: S2_21  and  C11_22
REMARK   12  A    between atoms: C11_22  and  C12_23
REMARK       I    between atoms: C12_23  and  N6_25
REMARK   13  A    between atoms: N6_25  and  O2_26
REMARK   14  A    between atoms: N6_25  and  C14_28
ROOT
HETATM    1  C9  UNL     1      10.567   2.976  24.127  1.00  0.00     0.168 A
HETATM    2  N4  UNL     1      10.943   2.568  25.351  1.00  0.00    -0.278 N
ATOM      3  H4  UNL     1      11.579   3.130  25.917  1.00  0.00     0.189 HD
HETATM    4  N5  UNL     1      10.488   1.464  25.789  1.00  0.00    -0.286 N
ATOM      5  H5  UNL     1      10.762   1.138  26.716  1.00  0.00     0.188 HD
HETATM    6  C10 UNL     1       9.667   0.739  25.056  1.00  0.00     0.130 A
HETATM    7  S3  UNL     1       9.537   1.705  23.640  1.00  0.00    -0.026 SA
ENDROOT
BRANCH   1   8
HETATM    8  N3  UNL     1      10.935   4.085  23.528  1.00  0.00    -0.312 N
ATOM      9  H3  UNL     1      11.686   4.101  22.839  1.00  0.00     0.170 HD
BRANCH   8  10
HETATM   10  C8  UNL     1      10.230   5.261  23.895  1.00  0.00     0.173 C
HETATM   11  S1  UNL     1       8.703   5.435  23.388  1.00  0.00    -0.041 SA
BRANCH  10  12
HETATM   12  N2  UNL     1      10.878   6.237  24.640  1.00  0.00    -0.367 N
ATOM     13  H2  UNL     1      11.100   7.121  24.182  1.00  0.00     0.161 HD
BRANCH  12  14
HETATM   14  C7  UNL     1      11.251   6.077  26.006  1.00  0.00     0.123 C
BRANCH  14  15
HETATM   15  C6  UNL     1      10.793   7.283  26.811  1.00  0.00     0.050 C
BRANCH  15  16
HETATM   16  C5  UNL     1       9.327   7.300  26.949  1.00  0.00     0.274 C
BRANCH  16  17
HETATM   17  N1  UNL     1       8.720   6.418  27.905  1.00  0.00     0.087 N
BRANCH  17  18
HETATM   18  C2  UNL     1       7.711   5.613  27.090  1.00  0.00     0.268 C
HETATM   19  C1  UNL     1       8.170   4.189  27.038  1.00  0.00     0.037 C
ENDBRANCH  17  18
BRANCH  17  20
HETATM   20  C3  UNL     1       7.848   7.142  28.848  1.00  0.00     0.268 C
HETATM   21  C4  UNL     1       8.617   7.958  29.821  1.00  0.00     0.037 C
ENDBRANCH  17  20
ENDBRANCH  16  17
ENDBRANCH  15  16
ENDBRANCH  14  15
ENDBRANCH  12  14
ENDBRANCH  10  12
ENDBRANCH   8  10
ENDBRANCH   1   8
BRANCH   6  22
HETATM   22  S2  UNL     1       8.884  -0.849  25.417  1.00  0.00    -0.094 SA
BRANCH  22  23
HETATM   23  C11 UNL     1      10.068  -1.800  26.391  1.00  0.00     0.186 C
BRANCH  23  24
HETATM   24  C12 UNL     1       9.776  -1.610  27.831  1.00  0.00     0.253 C
HETATM   25  O1  UNL     1       9.620  -0.443  28.255  1.00  0.00    -0.270 OA
HETATM   26  N6  UNL     1       9.669  -2.688  28.751  1.00  0.00    -0.219 N
BRANCH  26  27
HETATM   27  O2  UNL     1       9.813  -3.935  28.150  1.00  0.00    -0.280 OA
HETATM   28  C13 UNL     1      10.358  -4.760  29.138  1.00  0.00     0.238 C
ENDBRANCH  26  27
BRANCH  26  29
HETATM   29  C14 UNL     1       9.462  -2.603  30.148  1.00  0.00     0.143 C
HETATM   30  C15 UNL     1       8.118  -2.118  30.618  1.00  0.00     0.056 C
HETATM   31  C16 UNL     1       8.518  -1.728  32.057  1.00  0.00     0.169 C
HETATM   32  O3  UNL     1       9.754  -1.111  31.928  1.00  0.00    -0.389 OA
HETATM   33  C17 UNL     1      10.387  -1.618  30.831  1.00  0.00     0.195 C
ENDBRANCH  26  29
ENDBRANCH  23  24
ENDBRANCH  22  23
ENDBRANCH   6  22
TORSDOF 14
ENDMDL