MODEL 1
REMARK VINA RESULT: -4.765016449      0.000      0.000
REMARK  13 active torsions:
REMARK  status: ('A' for Active; 'I' for Inactive)
REMARK    1  A    between atoms: O1_2  and  C2_3
REMARK    2  A    between atoms: C2_3  and  C3_5
REMARK    3  A    between atoms: C3_5  and  C4_6
REMARK    4  A    between atoms: C4_6  and  C5_7
REMARK    5  A    between atoms: C5_7  and  C6_8
REMARK    6  A    between atoms: C6_8  and  C7_9
REMARK    7  A    between atoms: C7_9  and  C8_10
REMARK    8  A    between atoms: C8_10  and  N1_11
REMARK       I    between atoms: N1_11  and  C9_12
REMARK    9  A    between atoms: N1_11  and  C14_19
REMARK   10  A    between atoms: C9_12  and  C10_14
REMARK   11  A    between atoms: C10_14  and  N2_15
REMARK   12  A    between atoms: C17_22  and  O4_24
REMARK   13  A    between atoms: C19_26  and  C20_27
ROOT
HETATM    1  N1  UNL     1       7.949   6.850  25.939  1.00  0.00    -0.324 N
HETATM    2  C9  UNL     1       7.496   7.267  24.698  1.00  0.00     0.247 C
HETATM    3  O3  UNL     1       6.652   6.492  24.108  1.00  0.00    -0.271 OA
ENDROOT
BRANCH   1   4
HETATM    4  C8  UNL     1       8.904   7.492  26.791  1.00  0.00     0.128 C
BRANCH   4   5
HETATM    5  C7  UNL     1      10.267   6.909  26.876  1.00  0.00     0.020 C
BRANCH   5   6
HETATM    6  C6  UNL     1      10.925   6.465  25.642  1.00  0.00     0.002 C
BRANCH   6   7
HETATM    7  C5  UNL     1      11.430   5.039  25.641  1.00  0.00     0.001 C
BRANCH   7   8
HETATM    8  C4  UNL     1      11.387   4.536  24.221  1.00  0.00     0.010 C
BRANCH   8   9
HETATM    9  C3  UNL     1      10.241   5.085  23.426  1.00  0.00     0.111 C
BRANCH   9  10
HETATM   10  C2  UNL     1      10.657   5.775  22.190  1.00  0.00     0.258 C
HETATM   11  O2  UNL     1      10.134   6.889  21.921  1.00  0.00    -0.265 OA
BRANCH  10  12
HETATM   12  O1  UNL     1      11.593   5.272  21.301  1.00  0.00    -0.326 OA
HETATM   13  C1  UNL     1      11.162   4.438  20.219  1.00  0.00     0.213 C
ENDBRANCH  10  12
ENDBRANCH   9  10
ENDBRANCH   8   9
ENDBRANCH   7   8
ENDBRANCH   6   7
ENDBRANCH   5   6
ENDBRANCH   4   5
ENDBRANCH   1   4
BRANCH   1  14
HETATM   14  C14 UNL     1       7.363   5.557  26.452  1.00  0.00     0.226 C
HETATM   15  C15 UNL     1       7.087   5.777  27.904  1.00  0.00     0.057 C
HETATM   16  C16 UNL     1       7.535   4.658  28.795  1.00  0.00     0.044 C
HETATM   17  C17 UNL     1       7.219   3.377  27.991  1.00  0.00     0.083 C
HETATM   18  C18 UNL     1       7.395   2.229  28.931  1.00  0.00     0.049 C
HETATM   19  C19 UNL     1       8.235   3.417  26.881  1.00  0.00     0.186 C
HETATM   20  O6  UNL     1       8.077   4.488  26.074  1.00  0.00    -0.356 OA
BRANCH  17  21
HETATM   21  O4  UNL     1       5.924   3.554  27.568  1.00  0.00    -0.388 OA
ATOM     22  H4  UNL     1       5.503   2.722  27.749  1.00  0.00     0.210 HD
ENDBRANCH  17  21
BRANCH  19  23
HETATM   23  C20 UNL     1       8.363   2.161  26.102  1.00  0.00     0.153 C
HETATM   24  C21 UNL     1       8.016   2.189  24.681  1.00  0.00     0.036 C
HETATM   25  C22 UNL     1       9.108   1.420  23.971  1.00  0.00     0.029 C
HETATM   26  C23 UNL     1       9.969   0.949  25.104  1.00  0.00     0.168 C
HETATM   27  O5  UNL     1       9.706   1.760  26.175  1.00  0.00    -0.383 OA
ENDBRANCH  19  23
ENDBRANCH   1  14
BRANCH   2  28
HETATM   28  C10 UNL     1       7.840   8.482  23.959  1.00  0.00     0.338 C
BRANCH  28  29
HETATM   29  N2  UNL     1       6.829   9.537  24.093  1.00  0.00    -0.070 N
HETATM   30  C11 UNL     1       7.511  10.842  24.027  1.00  0.00     0.272 C
HETATM   31  C12 UNL     1       5.850   9.507  23.038  1.00  0.00     0.272 C
HETATM   32  C13 UNL     1       6.150   9.492  25.365  1.00  0.00     0.272 C
ENDBRANCH  28  29
ENDBRANCH   2  28
TORSDOF 13
ENDMDL