MODEL 4
REMARK VINA RESULT: -5.941761455      2.696      7.144
REMARK  12 active torsions:
REMARK  status: ('A' for Active; 'I' for Inactive)
REMARK    1  A    between atoms: C3_3  and  C5_5
REMARK    2  A    between atoms: C5_5  and  C6_6
REMARK    3  A    between atoms: C6_6  and  N1_7
REMARK       I    between atoms: N1_7  and  C7_9
REMARK       I    between atoms: C7_9  and  N2_11
REMARK       I    between atoms: N2_11  and  C8_13
REMARK    4  A    between atoms: C8_13  and  C9_15
REMARK    5  A    between atoms: C9_15  and  C10_16
REMARK    6  A    between atoms: C9_15  and  C14_22
REMARK    7  A    between atoms: C10_16  and  C11_17
REMARK    8  A    between atoms: C11_17  and  C12_18
REMARK    9  A    between atoms: C12_18  and  O4_20
REMARK   10  A    between atoms: C14_22  and  C15_23
REMARK   11  A    between atoms: C15_23  and  S1_24
REMARK   12  A    between atoms: S1_24  and  C16_26
ROOT
HETATM    1  C1  UNL     1       7.481   5.380  30.573  1.00  0.00     0.012 C
HETATM    2  C2  UNL     1       7.903   6.479  30.875  1.00  0.00    -0.113 C
HETATM    3  C3  UNL     1       8.407   7.833  31.221  1.00  0.00     0.061 C
HETATM    4  C4  UNL     1       9.145   7.794  32.521  1.00  0.00     0.023 C
ENDROOT
BRANCH   3   5
HETATM    5  C5  UNL     1       9.254   8.296  30.048  1.00  0.00     0.036 C
BRANCH   5   6
HETATM    6  C6  UNL     1       8.556   8.252  28.733  1.00  0.00     0.125 C
BRANCH   6   7
HETATM    7  N1  UNL     1       9.317   7.411  27.816  1.00  0.00    -0.343 N
HETATM    8  C7  UNL     1       8.704   6.460  26.980  1.00  0.00     0.322 C
HETATM    9  O1  UNL     1       7.419   6.296  27.061  1.00  0.00    -0.247 OA
HETATM   10  N2  UNL     1       9.376   5.668  26.054  1.00  0.00    -0.279 N
HETATM   11  C8  UNL     1      10.746   5.690  25.767  1.00  0.00     0.229 C
ATOM     12  H2  UNL     1       8.810   5.002  25.528  1.00  0.00     0.173 HD
HETATM   13  O2  UNL     1      11.619   6.383  26.321  1.00  0.00    -0.273 OA
ATOM     14  H1  UNL     1      10.331   7.516  27.781  1.00  0.00     0.164 HD
BRANCH  11  15
HETATM   15  C9  UNL     1      11.271   4.787  24.666  1.00  0.00     0.079 C
BRANCH  15  16
HETATM   16  C10 UNL     1      10.427   4.893  23.447  1.00  0.00     0.024 C
BRANCH  16  17
HETATM   17  C11 UNL     1      10.701   6.101  22.580  1.00  0.00     0.112 C
BRANCH  17  18
HETATM   18  C12 UNL     1       9.373   6.818  22.491  1.00  0.00     0.258 C
HETATM   19  O3  UNL     1       8.427   6.380  23.143  1.00  0.00    -0.265 OA
BRANCH  18  20
HETATM   20  O4  UNL     1       9.211   7.966  21.689  1.00  0.00    -0.326 OA
HETATM   21  C13 UNL     1       8.030   8.748  21.749  1.00  0.00     0.213 C
ENDBRANCH  18  20
ENDBRANCH  17  18
ENDBRANCH  16  17
ENDBRANCH  15  16
BRANCH  15  22
HETATM   22  C14 UNL     1      11.431   3.392  25.196  1.00  0.00     0.027 C
BRANCH  22  23
HETATM   23  C15 UNL     1      10.425   2.471  24.630  1.00  0.00     0.118 C
BRANCH  23  24
HETATM   24  S1  UNL     1       9.072   2.013  25.605  1.00  0.00     0.084 S
HETATM   25  O5  UNL     1       8.886   2.976  26.931  1.00  0.00    -0.250 OA
BRANCH  24  26
HETATM   26  C16 UNL     1       9.256   0.331  26.069  1.00  0.00     0.175 A
HETATM   27  N3  UNL     1       9.522  -0.025  27.345  1.00  0.00    -0.339 N
HETATM   28  C17 UNL     1       9.670  -1.300  27.725  1.00  0.00     0.009 A
ATOM     29  H3  UNL     1       9.614   0.709  28.048  1.00  0.00     0.168 HD
HETATM   30  C18 UNL     1       9.955  -1.645  29.133  1.00  0.00     0.068 C
HETATM   31  C19 UNL     1       9.551  -2.312  26.802  1.00  0.00     0.049 A
HETATM   32  C20 UNL     1       9.277  -1.950  25.482  1.00  0.00     0.009 A
HETATM   33  C21 UNL     1       9.160  -3.037  24.489  1.00  0.00     0.068 C
HETATM   34  N4  UNL     1       9.140  -0.655  25.164  1.00  0.00    -0.339 N
ATOM     35  H4  UNL     1       8.940  -0.408  24.195  1.00  0.00     0.168 HD
ENDBRANCH  24  26
ENDBRANCH  23  24
ENDBRANCH  22  23
ENDBRANCH  15  22
ENDBRANCH  11  15
ENDBRANCH   6   7
ENDBRANCH   5   6
ENDBRANCH   3   5
TORSDOF 12
ENDMDL