MODEL 1
REMARK VINA RESULT: -5.893514937      0.000      0.000
REMARK  11 active torsions:
REMARK  status: ('A' for Active; 'I' for Inactive)
REMARK    1  A    between atoms: C2_2  and  C3_3
REMARK    2  A    between atoms: C5_5  and  O1_6
REMARK    3  A    between atoms: C7_8  and  O2_9
REMARK    4  A    between atoms: C9_11  and  C10_12
REMARK    5  A    between atoms: C10_12  and  O3_13
REMARK    6  A    between atoms: N1_15  and  C11_17
REMARK    7  A    between atoms: C11_17  and  C12_18
REMARK    8  A    between atoms: C11_17  and  C22_31
REMARK    9  A    between atoms: C12_18  and  C13_19
REMARK   10  A    between atoms: C15_21  and  O4_22
REMARK   11  A    between atoms: C17_24  and  O5_25
ROOT
HETATM    1  C13 UNL     1       8.851  -1.410  28.087  1.00  0.00    -0.032 A
HETATM    2  C14 UNL     1       9.579  -0.936  29.155  1.00  0.00     0.048 A
HETATM    3  C15 UNL     1      10.167  -1.789  30.045  1.00  0.00     0.102 A
HETATM    4  C17 UNL     1       9.992  -3.174  29.814  1.00  0.00     0.102 A
HETATM    5  C19 UNL     1       9.280  -3.638  28.766  1.00  0.00     0.062 A
HETATM    6  C20 UNL     1       8.685  -2.742  27.869  1.00  0.00     0.053 A
HETATM    7  C21 UNL     1       7.938  -3.255  26.756  1.00  0.00     0.100 C
HETATM    8  N2  UNL     1       7.357  -3.668  25.844  1.00  0.00    -0.191 NA
ENDROOT
BRANCH   1   9
HETATM    9  C12 UNL     1       8.197  -0.429  27.170  1.00  0.00     0.076 C
BRANCH   9  10
HETATM   10  C11 UNL     1       9.149   0.193  26.231  1.00  0.00     0.194 C
BRANCH  10  11
HETATM   11  N1  UNL     1       8.838   1.618  25.974  1.00  0.00    -0.355 N
HETATM   12  C10 UNL     1       9.819   2.451  25.576  1.00  0.00     0.149 C
ATOM     13  H1  UNL     1       7.888   1.966  26.099  1.00  0.00     0.162 HD
BRANCH  12  14
HETATM   14  C9  UNL     1       9.845   3.869  25.209  1.00  0.00     0.051 A
HETATM   15  C7  UNL     1       9.183   4.355  24.097  1.00  0.00     0.116 A
HETATM   16  C5  UNL     1       9.097   5.701  23.828  1.00  0.00     0.103 A
HETATM   17  C4  UNL     1       9.692   6.589  24.686  1.00  0.00     0.051 A
HETATM   18  C3  UNL     1      10.379   6.171  25.824  1.00  0.00    -0.033 A
HETATM   19  C24 UNL     1      10.440   4.799  26.063  1.00  0.00     0.030 A
BRANCH  15  20
HETATM   20  O2  UNL     1       8.566   3.490  23.179  1.00  0.00    -0.352 OA
HETATM   21  C8  UNL     1       9.501   2.959  22.214  1.00  0.00     0.210 C
ENDBRANCH  15  20
BRANCH  16  22
HETATM   22  O1  UNL     1       8.403   6.114  22.689  1.00  0.00    -0.353 OA
HETATM   23  C6  UNL     1       8.467   7.461  22.235  1.00  0.00     0.210 C
ENDBRANCH  16  22
BRANCH  18  24
HETATM   24  C2  UNL     1      11.009   7.108  26.760  1.00  0.00     0.001 C
HETATM   25  C1  UNL     1      10.263   7.896  27.508  1.00  0.00     0.012 C
ENDBRANCH  18  24
ENDBRANCH  12  14
BRANCH  12  26
HETATM   26  O3  UNL     1      11.032   1.908  25.473  1.00  0.00    -0.346 OA
ATOM     27  H3  UNL     1      11.548   2.075  26.253  1.00  0.00     0.219 HD
ENDBRANCH  12  26
ENDBRANCH  10  11
BRANCH  10  28
HETATM   28  C22 UNL     1       9.007  -0.517  24.848  1.00  0.00     0.309 C
HETATM   29  O6  UNL     1      10.095  -1.034  24.501  1.00  0.00    -0.255 OA
HETATM   30  N3  UNL     1       7.792  -0.466  24.277  1.00  0.00    -0.419 NA
HETATM   31  C23 UNL     1       6.548  -0.415  23.690  1.00  0.00     0.264 C
ENDBRANCH  10  28
ENDBRANCH   9  10
ENDBRANCH   1   9
BRANCH   4  32
HETATM   32  O5  UNL     1      10.605  -4.002  30.740  1.00  0.00    -0.353 OA
HETATM   33  C18 UNL     1      11.648  -4.899  30.479  1.00  0.00     0.210 C
ENDBRANCH   4  32
BRANCH   3  34
HETATM   34  O4  UNL     1      10.901  -1.400  31.131  1.00  0.00    -0.353 OA
HETATM   35  C16 UNL     1      10.354  -0.882  32.295  1.00  0.00     0.210 C
ENDBRANCH   3  34
TORSDOF 10
ENDMDL