MODEL 2
REMARK VINA RESULT: -5.453989412      2.402      6.716
REMARK  14 active torsions:
REMARK  status: ('A' for Active; 'I' for Inactive)
REMARK    1  A    between atoms: C2_2  and  O1_3
REMARK    2  A    between atoms: O1_3  and  C3_4
REMARK    3  A    between atoms: C3_4  and  C4_6
REMARK    4  A    between atoms: N1_8  and  C6_9
REMARK    5  A    between atoms: C6_9  and  C7_10
REMARK    6  A    between atoms: C7_10  and  C8_11
REMARK    7  A    between atoms: C9_12  and  C10_13
REMARK    8  A    between atoms: C12_17  and  O5_18
REMARK    9  A    between atoms: C14_21  and  C15_22
REMARK   10  A    between atoms: C15_22  and  C16_23
REMARK   11  A    between atoms: C18_25  and  C19_26
REMARK   12  A    between atoms: C19_26  and  O7_28
REMARK   13  A    between atoms: O7_28  and  C20_29
REMARK   14  A    between atoms: C20_29  and  C21_30
ROOT
HETATM    1  C4  UNL     1       9.773   5.181  25.381  1.00  0.00     0.081 C
HETATM    2  C5  UNL     1       9.485   5.085  23.935  1.00  0.00     0.292 C
HETATM    3  N1  UNL     1      10.614   5.165  23.063  1.00  0.00     0.092 N
HETATM    4  C11 UNL     1      11.771   4.415  23.496  1.00  0.00     0.310 C
HETATM    5  C12 UNL     1      11.787   4.149  24.967  1.00  0.00     0.086 C
HETATM    6  C13 UNL     1      10.726   3.083  25.252  1.00  0.00     0.045 C
HETATM    7  C14 UNL     1       9.705   3.805  26.088  1.00  0.00     0.009 C
HETATM    8  C24 UNL     1      11.254   5.436  25.617  1.00  0.00     0.061 C
ENDROOT
BRANCH   7   9
HETATM    9  C15 UNL     1       8.335   3.271  26.111  1.00  0.00     0.011 C
BRANCH   9  10
HETATM   10  C16 UNL     1       8.293   1.823  26.477  1.00  0.00     0.000 A
HETATM   11  C17 UNL     1       6.966   1.131  26.497  1.00  0.00     0.020 A
HETATM   12  C18 UNL     1       7.785   1.294  27.745  1.00  0.00     0.090 A
BRANCH  12  13
HETATM   13  C19 UNL     1       8.369   0.005  28.255  1.00  0.00     0.263 C
HETATM   14  O6  UNL     1       7.742  -0.754  29.028  1.00  0.00    -0.265 OA
BRANCH  13  15
HETATM   15  O7  UNL     1       9.660  -0.402  27.880  1.00  0.00    -0.321 OA
BRANCH  15  16
HETATM   16  C20 UNL     1       9.817  -1.610  27.142  1.00  0.00     0.182 C
BRANCH  16  17
HETATM   17  C21 UNL     1      10.161  -1.274  25.707  1.00  0.00     0.002 C
HETATM   18  C22 UNL     1       8.959  -1.469  24.794  1.00  0.00     0.011 C
HETATM   19  C23 UNL     1      11.327  -2.053  25.181  1.00  0.00     0.011 C
ENDBRANCH  16  17
ENDBRANCH  15  16
ENDBRANCH  13  15
ENDBRANCH  12  13
ENDBRANCH   9  10
ENDBRANCH   7   9
BRANCH   1  20
HETATM   20  C3  UNL     1       8.930   6.162  26.104  1.00  0.00     0.269 C
HETATM   21  O2  UNL     1       8.170   6.903  25.433  1.00  0.00    -0.264 OA
BRANCH  20  22
HETATM   22  O1  UNL     1       8.940   6.300  27.474  1.00  0.00    -0.321 OA
BRANCH  22  23
HETATM   23  C2  UNL     1       8.971   7.519  28.180  1.00  0.00     0.174 C
HETATM   24  C1  UNL     1      10.284   8.200  27.904  1.00  0.00     0.034 C
ENDBRANCH  22  23
ENDBRANCH  20  22
ENDBRANCH   1  20
BRANCH   5  25
HETATM   25  O5  UNL     1      13.022   3.817  25.461  1.00  0.00    -0.388 OA
ATOM     26  H5  UNL     1      13.449   4.518  25.938  1.00  0.00     0.210 HD
ENDBRANCH   5  25
BRANCH   3  27
HETATM   27  C6  UNL     1      10.240   4.612  21.778  1.00  0.00     0.276 C
BRANCH  27  28
HETATM   28  C7  UNL     1       8.986   3.764  21.915  1.00  0.00     0.057 C
BRANCH  28  29
HETATM   29  C8  UNL     1       9.312   2.353  22.112  1.00  0.00    -0.018 C
HETATM   30  C9  UNL     1       8.503   1.404  22.476  1.00  0.00     0.080 C
BRANCH  30  31
HETATM   31  C10 UNL     1       7.102   1.473  22.779  1.00  0.00     0.198 C
HETATM   32  O3  UNL     1       6.402   0.410  22.580  1.00  0.00    -0.645 OA
HETATM   33  O4  UNL     1       6.412   2.557  23.266  1.00  0.00    -0.645 OA
ENDBRANCH  30  31
ENDBRANCH  28  29
ENDBRANCH  27  28
ENDBRANCH   3  27
TORSDOF 14
ENDMDL