MODEL 5
REMARK VINA RESULT: -5.359883918      1.272      2.067
REMARK  13 active torsions:
REMARK  status: ('A' for Active; 'I' for Inactive)
REMARK    1  A    between atoms: C2_2  and  C3_3
REMARK    2  A    between atoms: C3_3  and  C4_4
REMARK    3  A    between atoms: C4_4  and  C5_5
REMARK    4  A    between atoms: C5_5  and  C6_6
REMARK    5  A    between atoms: C6_6  and  C7_7
REMARK    6  A    between atoms: C7_7  and  N1_8
REMARK    7  A    between atoms: C9_11  and  N3_12
REMARK       I    between atoms: N3_12  and  C11_14
REMARK    8  A    between atoms: C11_14  and  C12_16
REMARK    9  A    between atoms: C12_16  and  C13_17
REMARK   10  A    between atoms: N4_21  and  C16_22
REMARK   11  A    between atoms: C16_22  and  C17_23
REMARK       I    between atoms: C17_23  and  N5_25
REMARK   12  A    between atoms: C19_28  and  N6_29
REMARK   13  A    between atoms: N6_29  and  C20_30
ROOT
HETATM    1  N1  UNL     1       8.014   3.793  26.975  1.00  0.00    -0.293 N
HETATM    2  C8  UNL     1       7.930   2.491  26.679  1.00  0.00     0.154 A
HETATM    3  N2  UNL     1       6.794   1.761  27.145  1.00  0.00    -0.080 NA
HETATM    4  C9  UNL     1       8.869   1.818  25.956  1.00  0.00     0.147 A
HETATM    5  C15 UNL     1       9.939   2.538  25.525  1.00  0.00     0.282 A
HETATM    6  O2  UNL     1      10.854   1.982  24.847  1.00  0.00    -0.265 OA
HETATM    7  N4  UNL     1      10.089   3.880  25.793  1.00  0.00    -0.263 N
HETATM    8  C19 UNL     1       9.123   4.479  26.515  1.00  0.00     0.263 A
ENDROOT
BRANCH   1   9
HETATM    9  C7  UNL     1       6.962   4.406  27.743  1.00  0.00     0.134 C
BRANCH   9  10
HETATM   10  C6  UNL     1       7.188   4.486  29.192  1.00  0.00     0.020 C
BRANCH  10  11
HETATM   11  C5  UNL     1       5.957   3.875  29.906  1.00  0.00     0.002 C
BRANCH  11  12
HETATM   12  C4  UNL     1       6.298   2.729  30.766  1.00  0.00     0.000 C
BRANCH  12  13
HETATM   13  C3  UNL     1       7.755   2.458  30.869  1.00  0.00    -0.000 C
BRANCH  13  14
HETATM   14  C2  UNL     1       8.267   1.133  30.480  1.00  0.00    -0.005 C
HETATM   15  C1  UNL     1       9.397   0.576  31.268  1.00  0.00     0.005 C
ENDBRANCH  13  14
ENDBRANCH  12  13
ENDBRANCH  11  12
ENDBRANCH  10  11
ENDBRANCH   9  10
ENDBRANCH   1   9
BRANCH   8  16
HETATM   16  N6  UNL     1       9.184   5.652  26.852  1.00  0.00    -0.405 NA
BRANCH  16  17
HETATM   17  C20 UNL     1       9.337   6.971  26.945  1.00  0.00     0.086 C
HETATM   18  C21 UNL     1      10.784   7.508  26.940  1.00  0.00     0.053 C
HETATM   19  C22 UNL     1       8.818   7.611  28.286  1.00  0.00     0.053 C
HETATM   20  C23 UNL     1       8.516   7.807  25.936  1.00  0.00     0.053 C
ENDBRANCH  16  17
ENDBRANCH   8  16
BRANCH   4  21
HETATM   21  N3  UNL     1       8.792   0.438  25.640  1.00  0.00    -0.315 N
HETATM   22  C10 UNL     1       8.241   0.029  24.333  1.00  0.00     0.159 C
HETATM   23  C11 UNL     1       9.217  -0.587  26.505  1.00  0.00     0.224 C
HETATM   24  O1  UNL     1       9.716  -0.307  27.606  1.00  0.00    -0.273 OA
BRANCH  23  25
HETATM   25  C12 UNL     1       9.073  -2.000  26.116  1.00  0.00     0.103 C
BRANCH  25  26
HETATM   26  C13 UNL     1      10.380  -2.748  26.163  1.00  0.00     0.005 C
HETATM   27  C14 UNL     1      11.324  -2.108  25.166  1.00  0.00     0.005 C
ENDBRANCH  25  26
ENDBRANCH  23  25
ENDBRANCH   4  21
BRANCH   7  28
HETATM   28  C16 UNL     1      11.282   4.508  25.264  1.00  0.00     0.239 C
BRANCH  28  29
HETATM   29  C17 UNL     1      10.925   5.022  23.892  1.00  0.00     0.235 C
HETATM   30  O3  UNL     1      10.677   6.233  23.720  1.00  0.00    -0.272 OA
HETATM   31  N5  UNL     1      10.871   4.135  22.792  1.00  0.00    -0.364 N
HETATM   32  C18 UNL     1      10.533   4.634  21.494  1.00  0.00     0.149 C
ATOM     33  H5  UNL     1      11.071   3.143  22.923  1.00  0.00     0.161 HD
ENDBRANCH  28  29
ENDBRANCH   7  28
TORSDOF 13
ENDMDL