MODEL 2
REMARK VINA RESULT: -5.689390397      1.408      1.663
REMARK  14 active torsions:
REMARK  status: ('A' for Active; 'I' for Inactive)
REMARK    1  A    between atoms: C2_2  and  C3_3
REMARK    2  A    between atoms: C3_3  and  C4_4
REMARK    3  A    between atoms: C4_4  and  C5_5
REMARK    4  A    between atoms: C5_5  and  C6_6
REMARK    5  A    between atoms: C6_6  and  O1_7
REMARK    6  A    between atoms: C6_6  and  C7_9
REMARK    7  A    between atoms: C7_9  and  O2_10
REMARK    8  A    between atoms: C7_9  and  N1_12
REMARK    9  A    between atoms: C12_18  and  S1_19
REMARK   10  A    between atoms: C14_21  and  C15_22
REMARK       I    between atoms: C15_22  and  N2_24
REMARK   11  A    between atoms: N2_24  and  C16_25
REMARK   12  A    between atoms: N2_24  and  O5_27
REMARK   13  A    between atoms: O5_27  and  C18_28
REMARK   14  A    between atoms: C20_30  and  C21_31
ROOT
HETATM    1  N1  UNL     1       9.769   3.256  24.727  1.00  0.00    -0.316 N
HETATM    2  C8  UNL     1       8.497   3.841  24.267  1.00  0.00     0.266 C
HETATM    3  O3  UNL     1       7.608   2.776  24.009  1.00  0.00    -0.355 OA
HETATM    4  C9  UNL     1       8.230   1.784  23.305  1.00  0.00     0.143 C
HETATM    5  C10 UNL     1       8.955   2.287  22.108  1.00  0.00     0.061 C
HETATM    6  C11 UNL     1       8.836   3.748  21.914  1.00  0.00    -0.006 C
HETATM    7  C12 UNL     1       8.605   4.565  22.962  1.00  0.00     0.022 C
HETATM    8  C14 UNL     1       9.209   1.002  24.171  1.00  0.00     0.143 C
HETATM    9  C20 UNL     1       9.591   1.916  25.293  1.00  0.00     0.205 C
ENDROOT
BRANCH   1  10
HETATM   10  C7  UNL     1      10.953   3.969  24.607  1.00  0.00     0.146 C
BRANCH  10  11
HETATM   11  C6  UNL     1      11.399   5.222  25.161  1.00  0.00     0.192 C
BRANCH  11  12
HETATM   12  C5  UNL     1      10.584   5.667  26.378  1.00  0.00     0.040 C
BRANCH  12  13
HETATM   13  C4  UNL     1      10.744   7.081  26.769  1.00  0.00     0.003 C
BRANCH  13  14
HETATM   14  C3  UNL     1       9.470   7.515  27.512  1.00  0.00    -0.000 C
BRANCH  14  15
HETATM   15  C2  UNL     1       9.756   8.279  28.764  1.00  0.00    -0.005 C
HETATM   16  C1  UNL     1       8.784   7.955  29.883  1.00  0.00     0.005 C
ENDBRANCH  14  15
ENDBRANCH  13  14
ENDBRANCH  12  13
ENDBRANCH  11  12
BRANCH  11  17
HETATM   17  O1  UNL     1      11.289   6.274  24.272  1.00  0.00    -0.387 OA
ATOM     18  H1  UNL     1      12.126   6.717  24.329  1.00  0.00     0.210 HD
ENDBRANCH  11  17
ENDBRANCH  10  11
BRANCH  10  19
HETATM   19  O2  UNL     1      11.846   3.400  23.845  1.00  0.00    -0.347 OA
ATOM     20  H2  UNL     1      12.290   2.675  24.270  1.00  0.00     0.219 HD
ENDBRANCH  10  19
ENDBRANCH   1  10
BRANCH   9  21
HETATM   21  C21 UNL     1       8.611   2.008  26.391  1.00  0.00     0.198 C
HETATM   22  O6  UNL     1       7.725   1.126  26.594  1.00  0.00    -0.646 OA
HETATM   23  O7  UNL     1       8.618   3.068  27.258  1.00  0.00    -0.646 OA
ENDBRANCH   9  21
BRANCH   7  24
HETATM   24  S1  UNL     1       8.368   6.307  22.728  1.00  0.00    -0.135 SA
HETATM   25  C13 UNL     1       7.834   7.166  24.216  1.00  0.00     0.095 C
ENDBRANCH   7  24
BRANCH   8  26
HETATM   26  C15 UNL     1       8.613  -0.274  24.513  1.00  0.00     0.252 C
HETATM   27  O4  UNL     1       7.406  -0.461  24.102  1.00  0.00    -0.271 OA
HETATM   28  N2  UNL     1       9.156  -1.354  25.234  1.00  0.00    -0.226 N
BRANCH  28  29
HETATM   29  C16 UNL     1      10.475  -1.328  25.770  1.00  0.00     0.155 C
HETATM   30  C17 UNL     1      11.488  -2.172  25.082  1.00  0.00     0.029 C
ENDBRANCH  28  29
BRANCH  28  31
HETATM   31  O5  UNL     1       8.439  -2.501  25.453  1.00  0.00    -0.276 OA
BRANCH  31  32
HETATM   32  C18 UNL     1       8.231  -2.745  26.784  1.00  0.00     0.197 C
HETATM   33  C19 UNL     1       6.919  -2.239  27.298  1.00  0.00     0.036 C
ENDBRANCH  31  32
ENDBRANCH  28  31
ENDBRANCH   8  26
TORSDOF 14
ENDMDL