MODEL 2
REMARK VINA RESULT: -6.067451304      1.085      1.539
REMARK  4 active torsions:
REMARK  status: ('A' for Active; 'I' for Inactive)
REMARK    1  A    between atoms: N1_2  and  C3_5
REMARK    2  A    between atoms: C3_5  and  O1_6
REMARK    3  A    between atoms: C6_11  and  C7_12
REMARK    4  A    between atoms: C10_17  and  N5_18
ROOT
HETATM    1  C1  UNL     1      18.052 -18.772  -1.479  1.00  0.00     0.166 C
HETATM    2  N1  UNL     1      17.844 -17.355  -1.819  1.00  0.00    -0.284 N
HETATM    3  C2  UNL     1      18.485 -16.840  -2.942  1.00  0.00     0.182 C
HETATM    4  N2  UNL     1      19.038 -16.429  -3.897  1.00  0.00    -0.172 NA
ENDROOT
BRANCH   2   5
HETATM    5  C3  UNL     1      16.999 -16.523  -1.022  1.00  0.00     0.216 A
HETATM    6  C4  UNL     1      15.565 -16.872  -1.152  1.00  0.00     0.108 A
HETATM    7  C5  UNL     1      14.856 -16.825  -2.432  1.00  0.00     0.102 C
HETATM    8  C6  UNL     1      15.092 -17.196   0.003  1.00  0.00     0.068 A
HETATM    9  N3  UNL     1      14.305 -16.769  -3.456  1.00  0.00    -0.191 NA
HETATM   10  N7  UNL     1      16.048 -17.122   1.020  1.00  0.00    -0.367 N
HETATM   11  C13 UNL     1      17.299 -16.704   0.428  1.00  0.00     0.252 A
ATOM     12  H7  UNL     1      15.891 -17.329   2.007  1.00  0.00     0.161 HD
HETATM   13  C14 UNL     1      17.651 -15.388   1.011  1.00  0.00     0.090 C
HETATM   14  N8  UNL     1      17.924 -14.347   1.463  1.00  0.00    -0.195 NA
BRANCH   5  15
HETATM   15  O1  UNL     1      17.132 -15.166  -1.371  1.00  0.00    -0.363 OA
ATOM     16  H1  UNL     1      17.970 -14.814  -1.091  1.00  0.00     0.213 HD
ENDBRANCH   5  15
BRANCH   8  17
HETATM   17  C7  UNL     1      13.690 -17.606   0.267  1.00  0.00     0.035 A
HETATM   18  C8  UNL     1      13.213 -18.872   0.380  1.00  0.00     0.052 A
HETATM   19  C9  UNL     1      11.880 -19.009   0.622  1.00  0.00     0.069 A
HETATM   20  N4  UNL     1      11.162 -20.176   0.777  1.00  0.00    -0.191 N
HETATM   21  C12 UNL     1      11.150 -17.866   0.729  1.00  0.00     0.049 A
HETATM   22  C10 UNL     1       9.855 -20.155   1.011  1.00  0.00     0.676 A
ATOM     23  H4  UNL     1      11.644 -21.072   0.709  1.00  0.00     0.184 HD
HETATM   24  N6  UNL     1       9.096 -19.044   1.123  1.00  0.00    -0.201 N
HETATM   25  C11 UNL     1       9.766 -17.881   0.977  1.00  0.00     0.127 A
ATOM     26  H6  UNL     1       8.093 -19.081   1.305  1.00  0.00     0.183 HD
HETATM   27  S1  UNL     1      12.306 -16.635   0.494  1.00  0.00    -0.084 SA
BRANCH  22  28
HETATM   28  N5  UNL     1       9.167 -21.266   1.161  1.00  0.00    -0.234 N
ATOM     29  H52 UNL     1       9.704 -22.013   1.602  1.00  0.00     0.174 HD
ATOM     30  H51 UNL     1       8.196 -21.337   0.854  1.00  0.00     0.174 HD
ENDBRANCH  22  28
ENDBRANCH   8  17
ENDBRANCH   2   5
TORSDOF 4
ENDMDL