MODEL 2
REMARK VINA RESULT: -5.514305988     14.576     16.735
REMARK  0 active torsions:
REMARK  status: ('A' for Active; 'I' for Inactive)
ROOT
HETATM    1  N1  UNL     1       7.844 -24.497 -10.203  1.00  0.00    -0.062 NA
HETATM    2  C1  UNL     1       6.519 -23.939 -10.422  1.00  0.00     0.209 C
HETATM    3  N2  UNL     1       5.787 -23.710  -9.427  1.00  0.00    -0.338 N
ATOM      4  H2  UNL     1       6.236 -23.956  -8.545  1.00  0.00     0.168 HD
HETATM    5  C2  UNL     1       4.492 -23.193  -9.249  1.00  0.00     0.107 C
HETATM    6  C3  UNL     1       4.358 -22.778  -7.817  1.00  0.00     0.100 C
HETATM    7  N3  UNL     1       4.375 -21.581  -7.413  1.00  0.00    -0.396 N
ATOM      8  H3  UNL     1       4.274 -21.414  -6.413  1.00  0.00     0.158 HD
HETATM    9  C4  UNL     1       4.527 -20.441  -8.273  1.00  0.00     0.146 C
HETATM   10  C5  UNL     1       5.050 -19.290  -7.450  1.00  0.00     0.251 C
HETATM   11  N4  UNL     1       5.799 -18.343  -8.270  1.00  0.00    -0.072 N
ATOM     12  H41 UNL     1       6.734 -18.695  -8.475  1.00  0.00     0.277 HD
ATOM     13  H42 UNL     1       6.050 -17.512  -7.735  1.00  0.00     0.277 HD
HETATM   14  C6  UNL     1       5.102 -17.990  -9.479  1.00  0.00     0.259 C
HETATM   15  C7  UNL     1       5.988 -17.060 -10.269  1.00  0.00     0.259 C
HETATM   16  N5  UNL     1       6.605 -17.790 -11.335  1.00  0.00    -0.072 N
ATOM     17  H51 UNL     1       6.493 -18.794 -11.193  1.00  0.00     0.277 HD
ATOM     18  H52 UNL     1       7.621 -17.720 -11.276  1.00  0.00     0.277 HD
HETATM   19  C8  UNL     1       6.149 -17.413 -12.641  1.00  0.00     0.258 C
HETATM   20  C9  UNL     1       5.541 -18.604 -13.337  1.00  0.00     0.195 C
HETATM   21  O1  UNL     1       6.531 -19.494 -13.702  1.00  0.00    -0.384 OA
HETATM   22  C10 UNL     1       6.041 -20.811 -13.712  1.00  0.00     0.214 C
HETATM   23  C11 UNL     1       6.052 -21.382 -12.308  1.00  0.00     0.114 C
HETATM   24  N6  UNL     1       5.487 -22.654 -12.299  1.00  0.00    -0.278 N
HETATM   25  C12 UNL     1       4.246 -22.894 -12.907  1.00  0.00     0.114 C
HETATM   26  C13 UNL     1       4.399 -23.553 -14.263  1.00  0.00     0.214 C
HETATM   27  O2  UNL     1       4.892 -24.839 -14.093  1.00  0.00    -0.384 OA
HETATM   28  C14 UNL     1       6.279 -24.756 -14.019  1.00  0.00     0.190 C
HETATM   29  C15 UNL     1       6.746 -24.807 -12.584  1.00  0.00     0.178 C
HETATM   30  N7  UNL     1       6.188 -23.704 -11.781  1.00  0.00    -0.257 N
ENDROOT
TORSDOF 0
ENDMDL