MODEL 1
REMARK VINA RESULT: -4.925608018      0.000      0.000
REMARK  6 active torsions:
REMARK  status: ('A' for Active; 'I' for Inactive)
REMARK    1  A    between atoms: C3_3  and  O1_4
REMARK    2  A    between atoms: N2_12  and  C8_13
REMARK    3  A    between atoms: C9_16  and  O2_17
REMARK    4  A    between atoms: N5_22  and  O3_23
REMARK    5  A    between atoms: C13_26  and  C14_27
REMARK    6  A    between atoms: C14_27  and  O4_28
ROOT
HETATM    1  C1  UNL     1      20.140 -15.388   0.738  1.00  0.00     0.016 C
HETATM    2  C2  UNL     1      19.887 -15.189  -0.410  1.00  0.00    -0.067 C
HETATM    3  C3  UNL     1      19.585 -14.913  -1.815  1.00  0.00     0.180 C
HETATM    4  S1  UNL     1      20.974 -15.546  -2.797  1.00  0.00    -0.057 SA
HETATM    5  C4  UNL     1      20.775 -17.312  -2.942  1.00  0.00     0.254 C
HETATM    6  C5  UNL     1      21.449 -17.819  -4.142  1.00  0.00    -0.058 C
HETATM    7  C6  UNL     1      22.033 -18.231  -5.127  1.00  0.00     0.016 C
HETATM    8  C7  UNL     1      21.343 -17.931  -1.733  1.00  0.00     0.117 C
HETATM    9  N1  UNL     1      21.801 -18.440  -0.784  1.00  0.00    -0.193 NA
HETATM   10  N2  UNL     1      19.364 -17.619  -3.053  1.00  0.00    -0.167 N
HETATM   11  C12 UNL     1      18.273 -16.733  -3.025  1.00  0.00     0.122 A
HETATM   12  C13 UNL     1      17.442 -16.438  -1.772  1.00  0.00     0.044 A
HETATM   13  C15 UNL     1      18.328 -15.463  -2.324  1.00  0.00     0.076 A
ENDROOT
BRANCH   3  14
HETATM   14  O1  UNL     1      19.706 -13.497  -2.031  1.00  0.00    -0.368 OA
ATOM     15  H1  UNL     1      18.965 -13.211  -2.552  1.00  0.00     0.212 HD
ENDBRANCH   3  14
BRANCH  12  16
HETATM   16  C14 UNL     1      17.575 -17.423  -0.693  1.00  0.00     0.171 C
BRANCH  16  17
HETATM   17  O4  UNL     1      16.670 -18.513  -0.862  1.00  0.00    -0.400 OA
ATOM     18  H4  UNL     1      15.775 -18.258  -0.673  1.00  0.00     0.209 HD
ENDBRANCH  16  17
ENDBRANCH  12  16
BRANCH  10  19
HETATM   19  C8  UNL     1      19.098 -19.008  -3.268  1.00  0.00     0.713 A
HETATM   20  N3  UNL     1      19.163 -20.010  -2.385  1.00  0.00    -0.165 N
HETATM   21  C9  UNL     1      18.818 -21.174  -2.948  1.00  0.00     0.196 A
ATOM     22  H3  UNL     1      19.439 -19.902  -1.409  1.00  0.00     0.186 HD
HETATM   23  C10 UNL     1      18.517 -20.916  -4.248  1.00  0.00     0.211 A
HETATM   24  C11 UNL     1      18.095 -21.888  -5.226  1.00  0.00     0.125 C
HETATM   25  N5  UNL     1      18.694 -19.589  -4.420  1.00  0.00    -0.037 N
HETATM   26  N4  UNL     1      17.741 -22.668  -6.012  1.00  0.00    -0.190 NA
BRANCH  21  27
HETATM   27  O2  UNL     1      18.781 -22.399  -2.313  1.00  0.00    -0.344 OA
ATOM     28  H2  UNL     1      18.291 -23.160  -2.602  1.00  0.00     0.219 HD
ENDBRANCH  21  27
BRANCH  25  29
HETATM   29  O3  UNL     1      18.452 -19.003  -5.647  1.00  0.00    -0.268 OA
ATOM     30  H3  UNL     1      19.072 -18.761  -6.325  1.00  0.00     0.246 HD
ENDBRANCH  25  29
ENDBRANCH  10  19
TORSDOF 6
ENDMDL