MODEL 1
REMARK VINA RESULT: -5.103234510      0.000      0.000
REMARK  3 active torsions:
REMARK  status: ('A' for Active; 'I' for Inactive)
REMARK    1  A    between atoms: S1_2  and  C2_3
REMARK    2  A    between atoms: C5_10  and  N2_11
REMARK    3  A    between atoms: C6_18  and  O2_19
ROOT
HETATM    1  C2  UNL     1      18.806 -18.231  -2.792  1.00  0.00     0.157 C
HETATM    2  S2  UNL     1      19.978 -17.568  -1.567  1.00  0.00    -0.120 SA
HETATM    3  C3  UNL     1      18.921 -16.140  -1.169  1.00  0.00     0.183 C
HETATM    4  C4  UNL     1      19.064 -15.203  -2.345  1.00  0.00     0.247 C
HETATM    5  O1  UNL     1      18.383 -15.375  -3.368  1.00  0.00    -0.271 OA
HETATM    6  N1  UNL     1      20.005 -14.163  -2.170  1.00  0.00    -0.310 N
ATOM      7  H1  UNL     1      19.971 -13.362  -2.801  1.00  0.00     0.166 HD
HETATM    8  C5  UNL     1      20.999 -14.186  -1.145  1.00  0.00     0.490 C
HETATM    9  N3  UNL     1      20.692 -15.039  -0.034  1.00  0.00     0.019 N
ATOM     10  H31 UNL     1      20.993 -14.613   0.843  1.00  0.00     0.286 HD
ATOM     11  H32 UNL     1      21.290 -15.865  -0.034  1.00  0.00     0.286 HD
HETATM   12  C6  UNL     1      19.295 -15.416   0.032  1.00  0.00     0.345 C
HETATM   13  C7  UNL     1      18.541 -14.136   0.052  1.00  0.00     0.131 C
HETATM   14  N4  UNL     1      17.951 -13.144   0.051  1.00  0.00    -0.192 NA
HETATM   15  C8  UNL     1      17.589 -16.803  -1.204  1.00  0.00     0.175 C
HETATM   16  C9  UNL     1      17.536 -17.766  -0.079  1.00  0.00     0.072 C
HETATM   17  N5  UNL     1      17.483 -18.534   0.792  1.00  0.00    -0.196 NA
HETATM   18  C10 UNL     1      17.530 -17.597  -2.431  1.00  0.00     0.040 C
HETATM   19  N6  UNL     1      16.455 -17.741  -3.148  1.00  0.00    -0.298 N
ATOM     20  H6  UNL     1      16.500 -18.313  -3.992  1.00  0.00     0.177 HD
HETATM   21  C11 UNL     1      15.240 -17.138  -2.804  1.00  0.00     0.181 C
HETATM   22  N7  UNL     1      14.230 -16.648  -2.508  1.00  0.00    -0.172 NA
ENDROOT
BRANCH  12  23
HETATM   23  O2  UNL     1      19.077 -16.018   1.242  1.00  0.00    -0.352 OA
ATOM     24  H2  UNL     1      19.778 -16.002   1.882  1.00  0.00     0.213 HD
ENDBRANCH  12  23
BRANCH   8  25
HETATM   25  N2  UNL     1      21.308 -12.858  -0.636  1.00  0.00    -0.032 N
ATOM     26  H23 UNL     1      22.056 -12.423  -1.176  1.00  0.00     0.278 HD
ATOM     27  H22 UNL     1      20.554 -12.202  -0.840  1.00  0.00     0.278 HD
ATOM     28  H21 UNL     1      21.530 -12.863   0.360  1.00  0.00     0.278 HD
ENDBRANCH   8  25
BRANCH   1  29
HETATM   29  S1  UNL     1      18.755 -20.018  -2.810  1.00  0.00    -0.152 SA
HETATM   30  C1  UNL     1      18.431 -20.549  -4.516  1.00  0.00     0.091 C
ENDBRANCH   1  29
TORSDOF 3
ENDMDL