MODEL 4
REMARK VINA RESULT: -5.672792653      8.791     11.787
REMARK  3 active torsions:
REMARK  status: ('A' for Active; 'I' for Inactive)
REMARK    1  A    between atoms: C3_4  and  O1_5
REMARK    2  A    between atoms: C6_10  and  N2_11
REMARK    3  A    between atoms: N6_24  and  O5_25
ROOT
HETATM    1  N1  UNL     1       6.252 -23.612  -0.628  1.00  0.00    -0.191 NA
HETATM    2  C1  UNL     1       7.328 -23.242  -0.352  1.00  0.00     0.105 C
HETATM    3  C2  UNL     1       8.616 -22.796   0.009  1.00  0.00     0.119 A
HETATM    4  C3  UNL     1       8.926 -21.453  -0.190  1.00  0.00     0.109 A
HETATM    5  C4  UNL     1      10.164 -20.979   0.141  1.00  0.00     0.076 A
HETATM    6  S1  UNL     1      10.646 -19.348  -0.074  1.00  0.00    -0.062 SA
HETATM    7  C5  UNL     1      12.274 -19.071   0.434  1.00  0.00     0.138 A
HETATM    8  C6  UNL     1      13.117 -17.980   0.460  1.00  0.00     0.183 A
HETATM    9  C7  UNL     1      14.312 -18.427   0.980  1.00  0.00     0.150 A
HETATM   10  N3  UNL     1      15.338 -17.667   1.159  1.00  0.00    -0.382 N
ATOM     11  H31 UNL     1      16.222 -17.998   1.544  1.00  0.00     0.157 HD
ATOM     12  H32 UNL     1      15.465 -16.675   0.962  1.00  0.00     0.157 HD
HETATM   13  N4  UNL     1      14.147 -19.710   1.235  1.00  0.00    -0.273 N
ATOM     14  H4  UNL     1      14.872 -20.310   1.631  1.00  0.00     0.189 HD
HETATM   15  N5  UNL     1      12.934 -20.129   0.918  1.00  0.00    -0.207 N
HETATM   16  C8  UNL     1      12.416 -21.359   1.027  1.00  0.00     0.298 A
HETATM   17  O4  UNL     1      13.186 -22.268   1.517  1.00  0.00    -0.264 OA
HETATM   18  C9  UNL     1      11.164 -21.760   0.680  1.00  0.00     0.153 A
HETATM   19  N6  UNL     1      10.814 -23.077   0.859  1.00  0.00    -0.206 N
HETATM   20  C10 UNL     1       9.614 -23.558   0.541  1.00  0.00     0.166 A
HETATM   21  C11 UNL     1       9.294 -24.966   0.746  1.00  0.00     0.122 C
HETATM   22  N7  UNL     1       9.059 -26.083   0.918  1.00  0.00    -0.190 NA
ENDROOT
BRANCH   4  23
HETATM   23  O1  UNL     1       8.010 -20.596  -0.714  1.00  0.00    -0.358 OA
ATOM     24  H1  UNL     1       7.945 -20.466  -1.652  1.00  0.00     0.217 HD
ENDBRANCH   4  23
BRANCH  19  25
HETATM   25  O5  UNL     1      11.713 -23.986   1.391  1.00  0.00    -0.281 OA
ATOM     26  H5  UNL     1      11.633 -24.915   1.208  1.00  0.00     0.245 HD
ENDBRANCH  19  25
BRANCH   8  27
HETATM   27  N2  UNL     1      12.728 -16.712  -0.015  1.00  0.00    -0.109 N
HETATM   28  O2  UNL     1      13.444 -16.108  -0.833  1.00  0.00    -0.532 OA
HETATM   29  O3  UNL     1      11.546 -16.086   0.389  1.00  0.00    -0.532 OA
ENDBRANCH   8  27
TORSDOF 3
ENDMDL