MODEL 4
REMARK VINA RESULT: -5.729351902      1.497      1.624
REMARK  8 active torsions:
REMARK  status: ('A' for Active; 'I' for Inactive)
REMARK    1  A    between atoms: N1_1  and  N2_4
REMARK    2  A    between atoms: N2_4  and  C1_6
REMARK    3  A    between atoms: C1_6  and  O1_7
REMARK    4  A    between atoms: C1_6  and  N3_9
REMARK    5  A    between atoms: N4_11  and  O2_12
REMARK    6  A    between atoms: C4_15  and  O3_16
REMARK    7  A    between atoms: C10_24  and  S2_25
REMARK    8  A    between atoms: S2_25  and  N5_26
ROOT
HETATM    1  N3  UNL     1       5.531 -18.403 -11.344  1.00  0.00    -0.223 N
HETATM    2  C2  UNL     1       5.658 -19.643 -11.864  1.00  0.00     0.165 A
HETATM    3  N4  UNL     1       5.924 -20.109 -13.081  1.00  0.00    -0.202 N
HETATM    4  C3  UNL     1       6.019 -21.350 -13.534  1.00  0.00     0.115 A
HETATM    5  C4  UNL     1       6.329 -21.551 -14.893  1.00  0.00     0.096 A
HETATM    6  C5  UNL     1       6.455 -22.785 -15.467  1.00  0.00     0.039 A
HETATM    7  C6  UNL     1       6.281 -23.916 -14.726  1.00  0.00     0.004 A
HETATM    8  C7  UNL     1       5.974 -23.765 -13.387  1.00  0.00     0.021 A
HETATM    9  C8  UNL     1       5.851 -22.516 -12.824  1.00  0.00     0.037 A
HETATM   10  S1  UNL     1       5.480 -22.253 -11.185  1.00  0.00    -0.082 SA
HETATM   11  C9  UNL     1       5.397 -20.608 -10.768  1.00  0.00     0.079 A
HETATM   12  C10 UNL     1       5.120 -19.860  -9.651  1.00  0.00     0.141 A
HETATM   13  C11 UNL     1       5.198 -18.544  -9.996  1.00  0.00     0.279 A
HETATM   14  O5  UNL     1       4.991 -17.632  -9.171  1.00  0.00    -0.266 OA
ENDROOT
BRANCH   1  15
HETATM   15  C1  UNL     1       5.849 -17.135 -11.836  1.00  0.00     0.247 C
BRANCH  15  16
HETATM   16  N2  UNL     1       6.860 -16.215 -11.674  1.00  0.00    -0.271 N
ATOM     17  H2  UNL     1       6.690 -15.236 -11.902  1.00  0.00     0.190 HD
BRANCH  16  18
HETATM   18  N1  UNL     1       8.163 -16.619 -11.184  1.00  0.00    -0.342 N
ATOM     19  H12 UNL     1       8.352 -16.545 -10.184  1.00  0.00     0.176 HD
ATOM     20  H11 UNL     1       8.877 -16.970 -11.821  1.00  0.00     0.176 HD
ENDBRANCH  16  18
ENDBRANCH  15  16
BRANCH  15  21
HETATM   21  O1  UNL     1       4.932 -16.656 -12.691  1.00  0.00    -0.331 OA
ATOM     22  H1  UNL     1       4.880 -17.218 -13.455  1.00  0.00     0.221 HD
ENDBRANCH  15  21
ENDBRANCH   1  15
BRANCH   3  23
HETATM   23  O2  UNL     1       6.007 -19.134 -14.084  1.00  0.00    -0.281 OA
ATOM     24  H2  UNL     1       5.489 -18.354 -13.930  1.00  0.00     0.245 HD
ENDBRANCH   3  23
BRANCH  12  25
HETATM   25  S2  UNL     1       4.744 -20.569  -8.098  1.00  0.00     0.151 S
HETATM   26  O4  UNL     1       3.150 -21.063  -8.102  1.00  0.00    -0.230 OA
BRANCH  25  27
HETATM   27  N5  UNL     1       5.053 -19.430  -6.821  1.00  0.00    -0.345 NA
ATOM     28  H52 UNL     1       5.924 -18.923  -6.976  1.00  0.00     0.166 HD
ATOM     29  H51 UNL     1       5.107 -19.910  -5.922  1.00  0.00     0.166 HD
ENDBRANCH  25  27
ENDBRANCH  12  25
BRANCH   5  30
HETATM   30  O3  UNL     1       6.526 -20.445 -15.733  1.00  0.00    -0.358 OA
ATOM     31  H3  UNL     1       6.481 -20.555 -16.675  1.00  0.00     0.217 HD
ENDBRANCH   5  30
TORSDOF 8
ENDMDL