MODEL 2
REMARK VINA RESULT: -5.959423552      4.751      8.165
REMARK  4 active torsions:
REMARK  status: ('A' for Active; 'I' for Inactive)
REMARK    1  A    between atoms: C3_3  and  C4_4
REMARK    2  A    between atoms: C5_5  and  C6_6
REMARK    3  A    between atoms: C9_20  and  N8_21
REMARK    4  A    between atoms: C10_26  and  N10_27
ROOT
HETATM    1  C1  UNL     1      18.965 -20.934   0.069  1.00  0.00     0.112 C
HETATM    2  C2  UNL     1      17.681 -20.242   0.202  1.00  0.00    -0.105 C
HETATM    3  C3  UNL     1      16.626 -19.664   0.326  1.00  0.00    -0.061 C
ENDROOT
BRANCH   3   4
HETATM    4  C4  UNL     1      15.369 -18.948   0.490  1.00  0.00     0.096 A
HETATM    5  C5  UNL     1      15.224 -17.572   0.586  1.00  0.00     0.118 A
HETATM    6  N5  UNL     1      13.920 -17.349   0.724  1.00  0.00    -0.285 N
HETATM    7  N6  UNL     1      13.273 -18.502   0.716  1.00  0.00    -0.220 N
ATOM      8  H5  UNL     1      13.487 -16.431   0.821  1.00  0.00     0.188 HD
HETATM    9  C8  UNL     1      11.940 -18.732   0.831  1.00  0.00     0.164 A
HETATM   10  C14 UNL     1      14.130 -19.538   0.572  1.00  0.00     0.155 A
HETATM   11  N7  UNL     1      11.071 -17.704   0.975  1.00  0.00    -0.174 N
HETATM   12  C11 UNL     1      11.462 -20.021   0.798  1.00  0.00     0.122 A
HETATM   13  C9  UNL     1       9.746 -17.970   1.086  1.00  0.00     0.679 A
ATOM     14  H7  UNL     1      11.408 -16.742   1.000  1.00  0.00     0.186 HD
HETATM   15  N9  UNL     1       9.287 -19.237   1.053  1.00  0.00    -0.176 N
HETATM   16  C10 UNL     1      10.101 -20.282   0.912  1.00  0.00     0.134 A
ATOM     17  H9  UNL     1       8.283 -19.400   1.138  1.00  0.00     0.186 HD
HETATM   18  C12 UNL     1      12.377 -21.039   0.649  1.00  0.00     0.266 A
HETATM   19  O1  UNL     1      11.995 -22.234   0.613  1.00  0.00    -0.267 OA
HETATM   20  N11 UNL     1      13.698 -20.812   0.537  1.00  0.00    -0.301 N
HETATM   21  C13 UNL     1      14.621 -21.908   0.382  1.00  0.00     0.161 C
BRANCH   5  22
HETATM   22  C6  UNL     1      16.342 -16.652   0.535  1.00  0.00     0.166 A
HETATM   23  N1  UNL     1      17.200 -16.323   1.516  1.00  0.00    -0.265 N
HETATM   24  N2  UNL     1      18.079 -15.447   1.064  1.00  0.00    -0.005 NA
ATOM     25  H1  UNL     1      17.175 -16.693   2.466  1.00  0.00     0.186 HD
HETATM   26  N3  UNL     1      17.766 -15.233  -0.201  1.00  0.00    -0.223 N
HETATM   27  N4  UNL     1      16.716 -15.952  -0.548  1.00  0.00    -0.265 N
ATOM     28  H3  UNL     1      18.266 -14.599  -0.824  1.00  0.00     0.206 HD
HETATM   29  C7  UNL     1      16.118 -15.956  -1.839  1.00  0.00     0.181 C
ENDBRANCH   5  22
BRANCH  13  30
HETATM   30  N8  UNL     1       8.900 -17.005   1.224  1.00  0.00    -0.234 N
ATOM     31  H82 UNL     1       8.853 -16.518   2.119  1.00  0.00     0.174 HD
ATOM     32  H81 UNL     1       8.293 -16.741   0.448  1.00  0.00     0.174 HD
ENDBRANCH  13  30
BRANCH  16  33
HETATM   33  N10 UNL     1       9.707 -21.494   0.877  1.00  0.00    -0.384 N
ATOM     34 2H10 UNL     1       8.714 -21.689   1.008  1.00  0.00     0.157 HD
ATOM     35 1H10 UNL     1      10.325 -22.292   0.724  1.00  0.00     0.157 HD
ENDBRANCH  16  33
ENDBRANCH   3   4
TORSDOF 4
ENDMDL