MODEL 2
REMARK VINA RESULT: -5.888062309      2.480      5.216
REMARK  2 active torsions:
REMARK  status: ('A' for Active; 'I' for Inactive)
REMARK    1  A    between atoms: O1_2  and  C2_3
REMARK       I    between atoms: C2_3  and  N1_5
REMARK    2  A    between atoms: N1_5  and  C3_7
REMARK       I    between atoms: N5_20  and  C11_21
ROOT
HETATM    1  C3  UNL     1       5.422 -19.346 -12.012  1.00  0.00     0.131 A
HETATM    2  C4  UNL     1       5.919 -19.884 -13.163  1.00  0.00     0.098 A
HETATM    3  N2  UNL     1       6.254 -19.030 -14.241  1.00  0.00    -0.099 NA
HETATM    4  C5  UNL     1       6.075 -21.270 -13.226  1.00  0.00     0.104 A
HETATM    5  C6  UNL     1       6.579 -21.774 -14.398  1.00  0.00     0.267 A
HETATM    6  O3  UNL     1       6.870 -20.986 -15.344  1.00  0.00    -0.267 OA
HETATM    7  N3  UNL     1       6.738 -23.095 -14.480  1.00  0.00    -0.270 N
HETATM    8  C7  UNL     1       7.276 -23.630 -15.730  1.00  0.00     0.164 C
HETATM    9  C8  UNL     1       6.420 -23.900 -13.458  1.00  0.00     0.332 A
HETATM   10  O4  UNL     1       6.600 -25.156 -13.607  1.00  0.00    -0.246 OA
HETATM   11  N4  UNL     1       5.913 -23.467 -12.258  1.00  0.00    -0.288 N
HETATM   12  C9  UNL     1       5.603 -24.399 -11.222  1.00  0.00     0.163 C
HETATM   13  C10 UNL     1       5.755 -22.126 -12.185  1.00  0.00     0.141 A
HETATM   14  N5  UNL     1       5.272 -21.586 -11.073  1.00  0.00    -0.234 N
HETATM   15  C11 UNL     1       4.875 -22.215  -9.894  1.00  0.00     0.197 C
HETATM   16  N6  UNL     1       5.688 -22.403  -8.957  1.00  0.00    -0.373 N
ATOM     17  H61 UNL     1       5.398 -22.863  -8.094  1.00  0.00     0.158 HD
ATOM     18  H62 UNL     1       6.671 -22.175  -9.103  1.00  0.00     0.158 HD
HETATM   19  N7  UNL     1       3.532 -22.527  -9.694  1.00  0.00    -0.063 NA
HETATM   20  C12 UNL     1       5.115 -20.206 -11.007  1.00  0.00     0.284 A
HETATM   21  O5  UNL     1       4.652 -19.668  -9.943  1.00  0.00    -0.265 OA
ENDROOT
BRANCH   1  22
HETATM   22  N1  UNL     1       5.236 -17.927 -11.879  1.00  0.00    -0.296 N
HETATM   23  C2  UNL     1       6.215 -17.157 -11.244  1.00  0.00     0.364 C
HETATM   24  O2  UNL     1       7.263 -17.669 -10.781  1.00  0.00    -0.238 OA
ATOM     25  H1  UNL     1       4.393 -17.485 -12.245  1.00  0.00     0.171 HD
BRANCH  23  26
HETATM   26  O1  UNL     1       6.037 -15.795 -11.115  1.00  0.00    -0.309 OA
HETATM   27  C1  UNL     1       5.704 -15.000 -12.250  1.00  0.00     0.215 C
ENDBRANCH  23  26
ENDBRANCH   1  22
TORSDOF 2
ENDMDL