MODEL 2
REMARK VINA RESULT: -4.958523932      3.318      5.313
REMARK  4 active torsions:
REMARK  status: ('A' for Active; 'I' for Inactive)
REMARK    1  A    between atoms: O1_2  and  C2_3
REMARK    2  A    between atoms: C4_5  and  O2_6
REMARK    3  A    between atoms: C5_8  and  O3_9
REMARK    4  A    between atoms: S2_21  and  N4_22
ROOT
HETATM    1  C2  UNL     1      19.659 -20.601  -3.094  1.00  0.00     0.195 C
HETATM    2  C3  UNL     1      19.594 -21.693  -4.082  1.00  0.00     0.104 C
HETATM    3  C4  UNL     1      18.364 -21.849  -4.891  1.00  0.00     0.153 C
HETATM    4  C5  UNL     1      17.936 -20.734  -5.746  1.00  0.00     0.175 C
HETATM    5  C6  UNL     1      17.851 -19.373  -5.238  1.00  0.00     0.310 C
HETATM    6  N1  UNL     1      18.464 -18.983  -4.056  1.00  0.00     0.135 N
HETATM    7  C7  UNL     1      18.378 -19.822  -2.927  1.00  0.00     0.344 C
HETATM    8  C8  UNL     1      19.828 -18.563  -4.066  1.00  0.00     0.299 C
HETATM    9  C9  UNL     1      20.373 -18.322  -5.453  1.00  0.00     0.149 C
HETATM   10  S1  UNL     1      22.158 -17.920  -5.291  1.00  0.00    -0.147 SA
HETATM   11  C10 UNL     1      22.220 -16.083  -5.265  1.00  0.00     0.202 C
HETATM   12  N2  UNL     1      21.116 -15.730  -4.357  1.00  0.00    -0.153 NA
HETATM   13  N3  UNL     1      21.122 -16.591  -3.249  1.00  0.00    -0.204 NA
HETATM   14  C11 UNL     1      20.451 -15.799  -2.188  1.00  0.00     0.197 C
HETATM   15  S2  UNL     1      18.990 -16.005  -3.270  1.00  0.00    -0.095 SA
HETATM   16  C12 UNL     1      20.006 -17.452  -3.130  1.00  0.00     0.215 C
HETATM   17  O4  UNL     1      20.566 -19.651  -3.554  1.00  0.00    -0.311 OA
ENDROOT
BRANCH  15  18
HETATM   18  N4  UNL     1      17.688 -15.972  -2.440  1.00  0.00    -0.381 NA
ATOM     19  H42 UNL     1      16.988 -15.276  -2.697  1.00  0.00     0.163 HD
ATOM     20  H41 UNL     1      16.906 -16.341  -2.981  1.00  0.00     0.163 HD
ENDBRANCH  15  18
BRANCH   1  21
HETATM   21  O1  UNL     1      20.078 -21.016  -1.809  1.00  0.00    -0.358 OA
HETATM   22  C1  UNL     1      18.993 -21.230  -0.965  1.00  0.00     0.205 C
ENDBRANCH   1  21
BRANCH   4  23
HETATM   23  O3  UNL     1      16.687 -21.142  -6.302  1.00  0.00    -0.391 OA
ATOM     24  H3  UNL     1      16.229 -21.582  -5.595  1.00  0.00     0.210 HD
ENDBRANCH   4  23
BRANCH   3  25
HETATM   25  O2  UNL     1      17.296 -22.440  -4.163  1.00  0.00    -0.393 OA
ATOM     26  H2  UNL     1      16.587 -21.833  -3.989  1.00  0.00     0.210 HD
ENDBRANCH   3  25
TORSDOF 4
ENDMDL