MODEL 1
REMARK VINA RESULT: -6.152852465      0.000      0.000
REMARK  5 active torsions:
REMARK  status: ('A' for Active; 'I' for Inactive)
REMARK    1  A    between atoms: O1_2  and  C2_3
REMARK    2  A    between atoms: C3_4  and  N1_5
REMARK    3  A    between atoms: C5_10  and  O5_11
REMARK    4  A    between atoms: C10_18  and  O7_19
REMARK    5  A    between atoms: C14_27  and  O9_28
ROOT
HETATM    1  C2  UNL     1      20.139 -15.774  -1.335  1.00  0.00     0.131 C
HETATM    2  C3  UNL     1      19.049 -15.027  -1.414  1.00  0.00     0.185 C
HETATM    3  C4  UNL     1      18.045 -15.708  -2.238  1.00  0.00     0.231 C
HETATM    4  O4  UNL     1      16.817 -15.534  -2.146  1.00  0.00    -0.286 OA
HETATM    5  C5  UNL     1      18.880 -16.569  -3.110  1.00  0.00     0.236 C
HETATM    6  C6  UNL     1      18.142 -17.688  -3.707  1.00  0.00     0.208 C
HETATM    7  O6  UNL     1      16.907 -17.751  -3.670  1.00  0.00    -0.288 OA
HETATM    8  C7  UNL     1      18.768 -18.825  -4.394  1.00  0.00     0.040 A
HETATM    9  C8  UNL     1      17.864 -19.513  -5.173  1.00  0.00     0.020 A
HETATM   10  C9  UNL     1      18.302 -20.609  -5.883  1.00  0.00     0.037 A
HETATM   11  C10 UNL     1      19.617 -21.027  -5.828  1.00  0.00     0.067 A
HETATM   12  C11 UNL     1      20.524 -20.342  -5.051  1.00  0.00     0.067 A
HETATM   13  C12 UNL     1      20.103 -19.242  -4.333  1.00  0.00     0.051 A
HETATM   14  N2  UNL     1      21.181 -18.674  -3.596  1.00  0.00    -0.323 N
ATOM     15  H2  UNL     1      22.091 -19.120  -3.706  1.00  0.00     0.169 HD
HETATM   16  C13 UNL     1      21.126 -17.556  -2.726  1.00  0.00     0.268 C
HETATM   17  O8  UNL     1      22.205 -16.979  -2.473  1.00  0.00    -0.269 OA
HETATM   18  C14 UNL     1      19.909 -17.019  -2.097  1.00  0.00     0.236 C
ENDROOT
BRANCH   2  19
HETATM   19  N1  UNL     1      18.937 -13.746  -0.777  1.00  0.00    -0.109 N
HETATM   20  O2  UNL     1      18.155 -13.566   0.201  1.00  0.00    -0.532 OA
HETATM   21  O3  UNL     1      19.662 -12.650  -1.182  1.00  0.00    -0.532 OA
ENDBRANCH   2  19
BRANCH   1  22
HETATM   22  O1  UNL     1      21.313 -15.478  -0.662  1.00  0.00    -0.354 OA
HETATM   23  C1  UNL     1      21.540 -15.640   0.702  1.00  0.00     0.209 C
ENDBRANCH   1  22
BRANCH  18  24
HETATM   24  O9  UNL     1      19.334 -17.916  -1.199  1.00  0.00    -0.371 OA
ATOM     25  H9  UNL     1      18.569 -18.270  -1.637  1.00  0.00     0.211 HD
ENDBRANCH  18  24
BRANCH   5  26
HETATM   26  O5  UNL     1      19.501 -15.765  -4.059  1.00  0.00    -0.371 OA
ATOM     27  H5  UNL     1      19.842 -16.322  -4.749  1.00  0.00     0.211 HD
ENDBRANCH   5  26
BRANCH  11  28
HETATM   28  O7  UNL     1      20.041 -22.153  -6.565  1.00  0.00    -0.361 OA
ATOM     29  H7  UNL     1      20.004 -23.021  -6.181  1.00  0.00     0.217 HD
ENDBRANCH  11  28
TORSDOF 5
ENDMDL