MODEL 4
REMARK VINA RESULT: -5.743210523      2.047      6.019
REMARK  5 active torsions:
REMARK  status: ('A' for Active; 'I' for Inactive)
REMARK    1  A    between atoms: C2_2  and  N1_3
REMARK    2  A    between atoms: C6_8  and  C7_9
REMARK    3  A    between atoms: C7_9  and  O2_10
REMARK    4  A    between atoms: C7_9  and  C8_12
REMARK    5  A    between atoms: C15_21  and  O5_22
ROOT
HETATM    1  C7  UNL     1     -16.169 -10.026  22.918  1.00  0.00     0.188 C
ENDROOT
BRANCH   1   2
HETATM    2  C6  UNL     1     -15.304 -10.113  24.082  1.00  0.00     0.074 A
HETATM    3  C5  UNL     1     -15.708 -11.078  25.053  1.00  0.00     0.186 A
HETATM    4  C4  UNL     1     -14.953 -11.244  26.181  1.00  0.00     0.073 A
HETATM    5  O1  UNL     1     -16.743 -11.767  24.880  1.00  0.00    -0.288 OA
HETATM    6  C3  UNL     1     -13.808 -10.519  26.435  1.00  0.00     0.097 A
HETATM    7  N1  UNL     1     -13.437  -9.618  25.522  1.00  0.00    -0.338 N
HETATM    8  C15 UNL     1     -14.173  -9.440  24.394  1.00  0.00     0.155 A
BRANCH   7   9
HETATM    9  C2  UNL     1     -12.242  -8.801  25.692  1.00  0.00     0.126 C
HETATM   10  C1  UNL     1     -12.128  -8.143  27.021  1.00  0.00     0.027 C
ENDBRANCH   7   9
BRANCH   8  11
HETATM   11  O5  UNL     1     -13.693  -8.480  23.509  1.00  0.00    -0.345 OA
ATOM     12  H5  UNL     1     -14.165  -7.656  23.499  1.00  0.00     0.219 HD
ENDBRANCH   8  11
ENDBRANCH   1   2
BRANCH   1  13
HETATM   13  O2  UNL     1     -16.578 -11.386  22.595  1.00  0.00    -0.388 OA
ATOM     14  H2  UNL     1     -16.093 -11.641  21.819  1.00  0.00     0.210 HD
ENDBRANCH   1  13
BRANCH   1  15
HETATM   15  C8  UNL     1     -17.379  -9.243  22.815  1.00  0.00     0.161 C
HETATM   16  C9  UNL     1     -17.451  -8.829  21.315  1.00  0.00     0.066 C
HETATM   17  C10 UNL     1     -18.748  -8.169  21.064  1.00  0.00     0.123 C
HETATM   18  C11 UNL     1     -18.649  -7.334  19.767  1.00  0.00     0.040 C
HETATM   19  O3  UNL     1     -19.142  -7.277  22.029  1.00  0.00    -0.351 OA
HETATM   20  C12 UNL     1     -18.923  -7.695  23.315  1.00  0.00     0.157 C
HETATM   21  C13 UNL     1     -19.232  -6.504  24.231  1.00  0.00     0.078 C
HETATM   22  C14 UNL     1     -19.889  -8.775  23.747  1.00  0.00     0.078 C
HETATM   23  O4  UNL     1     -17.584  -8.104  23.514  1.00  0.00    -0.348 OA
ENDBRANCH   1  15
TORSDOF 5
ENDMDL