MODEL 5
REMARK VINA RESULT: -6.161959805      3.060      7.917
REMARK  4 active torsions:
REMARK  status: ('A' for Active; 'I' for Inactive)
REMARK    1  A    between atoms: O1_1  and  C1_3
REMARK    2  A    between atoms: N2_7  and  C3_9
REMARK    3  A    between atoms: C9_16  and  C10_17
REMARK    4  A    between atoms: N3_18  and  N4_20
ROOT
HETATM    1  C1  UNL     1     -16.693  -7.261  22.339  1.00  0.00     0.179 A
HETATM    2  N1  UNL     1     -15.615  -6.942  23.113  1.00  0.00    -0.300 N
ATOM      3  H1  UNL     1     -15.272  -5.999  23.296  1.00  0.00     0.171 HD
HETATM    4  C2  UNL     1     -15.086  -8.068  23.589  1.00  0.00     0.227 A
HETATM    5  N2  UNL     1     -14.063  -8.161  24.354  1.00  0.00    -0.351 N
ATOM      6  H2  UNL     1     -13.574  -7.318  24.653  1.00  0.00     0.163 HD
HETATM    7  O2  UNL     1     -15.789  -9.055  23.142  1.00  0.00    -0.274 OA
HETATM    8  C9  UNL     1     -16.775  -8.640  22.380  1.00  0.00     0.146 A
ENDROOT
BRANCH   8   9
HETATM    9  C10 UNL     1     -17.778  -9.444  21.699  1.00  0.00     0.148 C
HETATM   10  N3  UNL     1     -18.162  -9.128  20.523  1.00  0.00    -0.311 N
ATOM     11  H3  UNL     1     -17.743  -8.304  20.093  1.00  0.00     0.185 HD
BRANCH  10  12
HETATM   12  N4  UNL     1     -19.109  -9.828  19.790  1.00  0.00    -0.324 N
HETATM   13  C11 UNL     1     -18.962 -11.251  19.606  1.00  0.00     0.168 C
HETATM   14  C12 UNL     1     -20.138 -11.933  20.265  1.00  0.00     0.189 C
HETATM   15  O3  UNL     1     -21.147 -11.025  20.460  1.00  0.00    -0.388 OA
HETATM   16  C13 UNL     1     -21.400 -10.209  19.359  1.00  0.00     0.189 C
HETATM   17  C14 UNL     1     -20.260  -9.191  19.190  1.00  0.00     0.168 C
ENDBRANCH  10  12
ENDBRANCH   8   9
BRANCH   1  18
HETATM   18  O1  UNL     1     -17.519  -6.365  21.660  1.00  0.00    -0.344 OA
ATOM     19  H1  UNL     1     -17.692  -6.355  20.725  1.00  0.00     0.219 HD
ENDBRANCH   1  18
BRANCH   5  20
HETATM   20  C3  UNL     1     -13.596  -9.460  24.797  1.00  0.00     0.085 C
HETATM   21  C4  UNL     1     -14.217  -9.825  26.120  1.00  0.00     0.025 C
HETATM   22  C5  UNL     1     -13.239  -9.864  27.244  1.00  0.00     0.002 C
HETATM   23  C6  UNL     1     -12.388  -8.632  27.348  1.00  0.00     0.000 C
HETATM   24  C7  UNL     1     -11.931  -8.158  26.001  1.00  0.00     0.002 C
HETATM   25  C8  UNL     1     -12.089  -9.309  25.028  1.00  0.00     0.025 C
ENDBRANCH   5  20
TORSDOF 4
ENDMDL