MODEL 4
REMARK VINA RESULT: -6.633292788      1.348      3.564
REMARK  3 active torsions:
REMARK  status: ('A' for Active; 'I' for Inactive)
REMARK    1  A    between atoms: C2_3  and  C3_4
REMARK    2  A    between atoms: N2_10  and  C9_11
REMARK    3  A    between atoms: C11_20  and  N6_21
ROOT
HETATM    1  N1  UNL     1     -15.186 -10.736  28.917  1.00  0.00    -0.197 NA
HETATM    2  C1  UNL     1     -14.885 -10.701  27.800  1.00  0.00     0.061 C
HETATM    3  C2  UNL     1     -14.489 -10.680  26.379  1.00  0.00     0.149 C
ENDROOT
BRANCH   3   4
HETATM    4  C3  UNL     1     -13.792  -9.342  26.048  1.00  0.00     0.116 C
HETATM    5  C4  UNL     1     -12.563  -9.318  26.838  1.00  0.00     0.027 C
HETATM    6  C5  UNL     1     -11.753  -8.075  27.068  1.00  0.00     0.013 C
HETATM    7  C6  UNL     1     -10.965  -7.653  25.780  1.00  0.00     0.081 C
HETATM    8  C7  UNL     1     -11.703  -8.106  24.666  1.00  0.00    -0.163 C
HETATM    9  C8  UNL     1     -12.658  -8.702  23.796  1.00  0.00     0.221 C
HETATM   10  N2  UNL     1     -13.767  -9.246  24.615  1.00  0.00    -0.201 N
BRANCH  10  11
HETATM   11  C9  UNL     1     -14.883  -9.666  23.900  1.00  0.00     0.710 A
HETATM   12  N3  UNL     1     -15.757  -8.764  23.393  1.00  0.00    -0.021 N
HETATM   13  C10 UNL     1     -16.840  -9.098  22.682  1.00  0.00     0.705 A
ATOM     14  H3  UNL     1     -15.579  -7.774  23.562  1.00  0.00     0.203 HD
HETATM   15  N4  UNL     1     -17.678  -8.279  22.180  1.00  0.00    -0.234 N
HETATM   16  N5  UNL     1     -17.058 -10.435  22.472  1.00  0.00    -0.022 N
ATOM     17  H42 UNL     1     -17.516  -7.285  22.336  1.00  0.00     0.174 HD
ATOM     18  H41 UNL     1     -18.504  -8.534  21.639  1.00  0.00     0.174 HD
HETATM   19  C11 UNL     1     -16.229 -11.352  22.952  1.00  0.00     0.709 A
ATOM     20  H5  UNL     1     -17.874 -10.731  21.937  1.00  0.00     0.203 HD
HETATM   21  N7  UNL     1     -15.147 -10.950  23.663  1.00  0.00    -0.021 N
ATOM     22  H7  UNL     1     -14.510 -11.658  24.029  1.00  0.00     0.203 HD
BRANCH  19  23
HETATM   23  N6  UNL     1     -16.450 -12.758  22.754  1.00  0.00    -0.217 N
HETATM   24  C12 UNL     1     -15.974 -13.835  23.620  1.00  0.00     0.141 C
HETATM   25  C13 UNL     1     -17.063 -14.846  23.526  1.00  0.00     0.022 C
HETATM   26  C14 UNL     1     -17.968 -14.444  22.403  1.00  0.00     0.022 C
HETATM   27  C15 UNL     1     -17.172 -13.386  21.682  1.00  0.00     0.141 C
ENDBRANCH  19  23
ENDBRANCH  10  11
ENDBRANCH   3   4
TORSDOF 3
ENDMDL