MODEL 1
REMARK VINA RESULT: -5.191118296      0.000      0.000
REMARK  5 active torsions:
REMARK  status: ('A' for Active; 'I' for Inactive)
REMARK    1  A    between atoms: C2_2  and  O2_4
REMARK    2  A    between atoms: O2_4  and  C3_5
REMARK    3  A    between atoms: C12_15  and  C13_16
REMARK    4  A    between atoms: N1_17  and  O4_19
REMARK    5  A    between atoms: C15_22  and  O5_23
ROOT
HETATM    1  C3  UNL     1     -20.040  -9.058  21.312  1.00  0.00     0.120 C
HETATM    2  C4  UNL     1     -20.739 -10.127  20.559  1.00  0.00     0.049 C
HETATM    3  C5  UNL     1     -20.243 -10.403  19.193  1.00  0.00     0.042 C
HETATM    4  C6  UNL     1     -20.074  -9.214  18.308  1.00  0.00     0.066 C
HETATM    5  C7  UNL     1     -21.244  -8.948  17.368  1.00  0.00     0.064 C
HETATM    6  C8  UNL     1     -20.169  -8.881  16.287  1.00  0.00     0.171 C
HETATM    7  O3  UNL     1     -19.338  -9.583  17.180  1.00  0.00    -0.380 OA
HETATM    8  C9  UNL     1     -19.483  -8.014  18.952  1.00  0.00     0.075 C
HETATM    9  C10 UNL     1     -19.362  -8.064  20.404  1.00  0.00    -0.043 C
HETATM   10  C11 UNL     1     -18.597  -7.176  21.029  1.00  0.00    -0.011 C
HETATM   11  C12 UNL     1     -18.441  -7.188  22.524  1.00  0.00     0.051 C
HETATM   12  C14 UNL     1     -18.349  -8.587  23.077  1.00  0.00     0.049 C
HETATM   13  C15 UNL     1     -18.870  -9.626  22.129  1.00  0.00     0.158 C
ENDROOT
BRANCH  11  14
HETATM   14  C13 UNL     1     -17.144  -6.522  22.802  1.00  0.00     0.095 C
HETATM   15  N1  UNL     1     -16.173  -6.572  21.957  1.00  0.00    -0.284 N
ATOM     16  H1  UNL     1     -16.311  -7.082  21.086  1.00  0.00     0.192 HD
BRANCH  15  17
HETATM   17  O4  UNL     1     -14.968  -5.973  22.178  1.00  0.00    -0.291 OA
ATOM     18  H4  UNL     1     -14.200  -6.450  22.470  1.00  0.00     0.244 HD
ENDBRANCH  15  17
ENDBRANCH  11  14
BRANCH  13  19
HETATM   19  O5  UNL     1     -17.855  -9.866  21.190  1.00  0.00    -0.392 OA
ATOM     20  H5  UNL     1     -17.259  -9.131  21.278  1.00  0.00     0.210 HD
ENDBRANCH  13  19
BRANCH   1  21
HETATM   21  O2  UNL     1     -20.859  -8.284  22.129  1.00  0.00    -0.303 OA
BRANCH  21  22
HETATM   22  C2  UNL     1     -22.158  -8.051  21.807  1.00  0.00     0.256 C
HETATM   23  C1  UNL     1     -22.614  -7.026  20.813  1.00  0.00     0.126 C
HETATM   24  O1  UNL     1     -23.035  -8.724  22.367  1.00  0.00    -0.266 OA
ENDBRANCH  21  22
ENDBRANCH   1  21
TORSDOF 5
ENDMDL