MODEL 1
REMARK VINA RESULT: -4.993051188      0.000      0.000
REMARK  5 active torsions:
REMARK  status: ('A' for Active; 'I' for Inactive)
REMARK    1  A    between atoms: O1_1  and  C1_3
REMARK    2  A    between atoms: C1_3  and  C2_4
REMARK    3  A    between atoms: C2_4  and  C3_5
REMARK    4  A    between atoms: C3_5  and  N1_6
REMARK    5  A    between atoms: C13_18  and  O4_19
ROOT
HETATM    1  C2  UNL     1     -18.761  -7.410  22.564  1.00  0.00     0.061 C
HETATM    2  C8  UNL     1     -18.641  -8.865  22.821  1.00  0.00     0.033 C
HETATM    3  C9  UNL     1     -17.414  -9.496  22.148  1.00  0.00     0.046 C
HETATM    4  C10 UNL     1     -16.249  -9.265  23.070  1.00  0.00     0.009 A
HETATM    5  C11 UNL     1     -15.588  -8.079  23.283  1.00  0.00    -0.015 A
HETATM    6  C12 UNL     1     -14.603  -8.340  24.199  1.00  0.00     0.153 A
HETATM    7  O3  UNL     1     -14.668  -9.608  24.517  1.00  0.00    -0.299 OA
HETATM    8  C13 UNL     1     -15.637 -10.200  23.866  1.00  0.00     0.189 A
HETATM    9  C14 UNL     1     -15.867  -6.770  22.666  1.00  0.00     0.116 C
HETATM   10  S1  UNL     1     -17.337  -6.840  21.598  1.00  0.00    -0.147 SA
ENDROOT
BRANCH   1  11
HETATM   11  C1  UNL     1     -18.643  -6.724  23.948  1.00  0.00     0.190 C
BRANCH  11  12
HETATM   12  O1  UNL     1     -18.809  -5.368  23.844  1.00  0.00    -0.399 OA
ATOM     13  H1  UNL     1     -18.579  -4.930  24.656  1.00  0.00     0.209 HD
ENDBRANCH  11  12
ENDBRANCH   1  11
BRANCH   1  14
HETATM   14  C3  UNL     1     -20.042  -6.909  21.994  1.00  0.00     0.081 C
BRANCH  14  15
HETATM   15  N1  UNL     1     -20.633  -7.592  20.927  1.00  0.00    -0.388 N
HETATM   16  C4  UNL     1     -19.964  -7.793  19.717  1.00  0.00     0.148 C
HETATM   17  C5  UNL     1     -20.411  -9.064  18.987  1.00  0.00     0.187 C
HETATM   18  O2  UNL     1     -20.390 -10.062  19.992  1.00  0.00    -0.388 OA
HETATM   19  C6  UNL     1     -21.565  -9.859  20.714  1.00  0.00     0.187 C
HETATM   20  C7  UNL     1     -21.725  -8.447  21.221  1.00  0.00     0.148 C
ENDBRANCH  14  15
ENDBRANCH   1  14
BRANCH   8  21
HETATM   21  O4  UNL     1     -16.016 -11.546  23.940  1.00  0.00    -0.340 OA
ATOM     22  H4  UNL     1     -15.420 -12.263  24.124  1.00  0.00     0.220 HD
ENDBRANCH   8  21
TORSDOF 5
ENDMDL