MODEL 1
REMARK VINA RESULT: -5.740039216      0.000      0.000
REMARK  4 active torsions:
REMARK  status: ('A' for Active; 'I' for Inactive)
REMARK    1  A    between atoms: C2_2  and  C3_3
REMARK    2  A    between atoms: C3_3  and  C4_4
REMARK    3  A    between atoms: C4_4  and  C5_5
REMARK    4  A    between atoms: C13_15  and  O3_16
ROOT
HETATM    1  C5  UNL     1     -16.370  -7.705  23.552  1.00  0.00     0.114 A
HETATM    2  C6  UNL     1     -16.081  -6.575  22.708  1.00  0.00     0.054 A
HETATM    3  C7  UNL     1     -17.350  -6.456  22.370  1.00  0.00     0.139 A
HETATM    4  O1  UNL     1     -18.494  -5.939  21.739  1.00  0.00    -0.328 OA
HETATM    5  C8  UNL     1     -19.674  -6.496  22.297  1.00  0.00     0.156 C
HETATM    6  C9  UNL     1     -20.610  -7.009  21.253  1.00  0.00     0.044 C
HETATM    7  C10 UNL     1     -20.957  -8.394  21.703  1.00  0.00     0.051 C
HETATM    8  C11 UNL     1     -21.184  -9.342  20.546  1.00  0.00     0.159 C
HETATM    9  O2  UNL     1     -21.801  -8.656  19.538  1.00  0.00    -0.380 OA
HETATM   10  C12 UNL     1     -21.108  -8.824  18.370  1.00  0.00     0.202 C
HETATM   11  C13 UNL     1     -19.704  -9.232  18.694  1.00  0.00     0.173 C
HETATM   12  C14 UNL     1     -19.778  -9.663  20.120  1.00  0.00     0.182 C
HETATM   13  O4  UNL     1     -18.918  -8.936  20.960  1.00  0.00    -0.373 OA
HETATM   14  C15 UNL     1     -19.576  -8.894  22.184  1.00  0.00     0.154 C
HETATM   15  C16 UNL     1     -19.165  -7.712  23.035  1.00  0.00     0.146 C
HETATM   16  N1  UNL     1     -17.744  -7.526  23.150  1.00  0.00    -0.344 N
ENDROOT
BRANCH   1  17
HETATM   17  C4  UNL     1     -15.871  -9.038  23.151  1.00  0.00     0.029 C
BRANCH  17  18
HETATM   18  C3  UNL     1     -14.782  -9.676  23.906  1.00  0.00     0.002 C
BRANCH  18  19
HETATM   19  C2  UNL     1     -13.499  -8.959  24.079  1.00  0.00    -0.004 C
HETATM   20  C1  UNL     1     -13.310  -8.825  25.614  1.00  0.00     0.005 C
ENDBRANCH  18  19
ENDBRANCH  17  18
ENDBRANCH   1  17
BRANCH  11  21
HETATM   21  O3  UNL     1     -19.311 -10.321  17.883  1.00  0.00    -0.391 OA
ATOM     22  H3  UNL     1     -18.860 -10.008  17.107  1.00  0.00     0.210 HD
ENDBRANCH  11  21
TORSDOF 4
ENDMDL