MODEL 4
REMARK VINA RESULT: -6.711653159      1.383      1.874
REMARK  5 active torsions:
REMARK  status: ('A' for Active; 'I' for Inactive)
REMARK    1  A    between atoms: N2_5  and  C3_6
REMARK    2  A    between atoms: C4_8  and  C5_9
REMARK    3  A    between atoms: C5_9  and  O2_10
REMARK    4  A    between atoms: C9_16  and  C10_17
REMARK    5  A    between atoms: C10_17  and  C11_18
ROOT
HETATM    1  C1  UNL     1     -16.026 -12.184  24.273  1.00  0.00     0.070 C
HETATM    2  C2  UNL     1     -16.154 -10.766  23.853  1.00  0.00     0.034 A
HETATM    3  N1  UNL     1     -17.344 -10.221  23.533  1.00  0.00    -0.300 N
ATOM      4  H1  UNL     1     -18.229 -10.729  23.534  1.00  0.00     0.187 HD
HETATM    5  N2  UNL     1     -17.217  -8.948  23.218  1.00  0.00    -0.270 N
HETATM    6  C8  UNL     1     -15.914  -8.655  23.337  1.00  0.00     0.126 A
HETATM    7  C9  UNL     1     -15.220  -9.795  23.739  1.00  0.00     0.006 A
ENDROOT
BRANCH   5   8
HETATM    8  C3  UNL     1     -18.301  -8.043  22.811  1.00  0.00     0.275 C
HETATM    9  O1  UNL     1     -17.798  -7.200  21.809  1.00  0.00    -0.330 OA
HETATM   10  C4  UNL     1     -18.652  -7.290  20.736  1.00  0.00     0.286 C
HETATM   11  O3  UNL     1     -19.313  -8.505  20.827  1.00  0.00    -0.350 OA
HETATM   12  C6  UNL     1     -19.419  -8.811  22.186  1.00  0.00     0.171 C
HETATM   13  C7  UNL     1     -20.776  -8.376  22.673  1.00  0.00     0.044 C
BRANCH  10  14
HETATM   14  C5  UNL     1     -17.930  -7.147  19.407  1.00  0.00     0.224 C
BRANCH  14  15
HETATM   15  O2  UNL     1     -16.610  -6.781  19.542  1.00  0.00    -0.396 OA
ATOM     16  H2  UNL     1     -16.455  -5.861  19.364  1.00  0.00     0.209 HD
ENDBRANCH  14  15
ENDBRANCH  10  14
ENDBRANCH   5   8
BRANCH   7  17
HETATM   17  C10 UNL     1     -13.795  -9.875  23.937  1.00  0.00     0.039 C
BRANCH  17  18
HETATM   18  C11 UNL     1     -12.973  -8.900  24.219  1.00  0.00     0.005 C
HETATM   19  C12 UNL     1     -12.945  -8.373  25.625  1.00  0.00     0.057 C
HETATM   20  C13 UNL     1     -11.464  -8.292  25.981  1.00  0.00     0.007 C
HETATM   21  C14 UNL     1     -10.791  -7.320  25.069  1.00  0.00     0.020 C
HETATM   22  C15 UNL     1     -10.842  -7.699  23.613  1.00  0.00     0.119 C
HETATM   23  N3  UNL     1     -12.114  -8.278  23.251  1.00  0.00    -0.393 N
ATOM     24  H3  UNL     1     -12.412  -8.245  22.276  1.00  0.00     0.159 HD
ENDBRANCH  17  18
ENDBRANCH   7  17
TORSDOF 5
ENDMDL