MODEL 4
REMARK VINA RESULT: -5.351867002      4.399      5.686
REMARK  4 active torsions:
REMARK  status: ('A' for Active; 'I' for Inactive)
REMARK    1  A    between atoms: S1_2  and  C2_3
REMARK    2  A    between atoms: N1_5  and  C4_6
REMARK    3  A    between atoms: C10_12  and  C11_13
REMARK    4  A    between atoms: C11_13  and  O1_14
ROOT
HETATM    1  C2  UNL     1     -16.598 -10.606  23.057  1.00  0.00     0.084 A
HETATM    2  C3  UNL     1     -15.405 -10.246  23.656  1.00  0.00     0.122 A
HETATM    3  N1  UNL     1     -15.019  -8.957  23.714  1.00  0.00    -0.281 N
HETATM    4  C12 UNL     1     -15.844  -8.046  23.167  1.00  0.00     0.331 A
HETATM    5  O3  UNL     1     -15.511  -6.837  23.207  1.00  0.00    -0.246 OA
HETATM    6  N2  UNL     1     -17.007  -8.373  22.581  1.00  0.00    -0.274 N
ATOM      7  H2  UNL     1     -17.587  -7.634  22.185  1.00  0.00     0.173 HD
HETATM    8  C13 UNL     1     -17.430  -9.655  22.502  1.00  0.00     0.267 A
HETATM    9  O4  UNL     1     -18.517  -9.953  21.954  1.00  0.00    -0.267 OA
ENDROOT
BRANCH   3  10
HETATM   10  C4  UNL     1     -13.752  -8.558  24.347  1.00  0.00     0.232 C
HETATM   11  C5  UNL     1     -13.682  -9.317  25.675  1.00  0.00     0.054 C
HETATM   12  C6  UNL     1     -12.199  -9.326  26.070  1.00  0.00     0.004 C
HETATM   13  C7  UNL     1     -11.772  -7.916  26.254  1.00  0.00     0.000 C
HETATM   14  C8  UNL     1     -10.695  -7.435  25.371  1.00  0.00     0.002 C
HETATM   15  C9  UNL     1     -10.530  -8.161  24.078  1.00  0.00     0.034 C
HETATM   16  C10 UNL     1     -11.759  -8.118  23.199  1.00  0.00     0.147 C
HETATM   17  O2  UNL     1     -12.739  -8.974  23.567  1.00  0.00    -0.359 OA
BRANCH  16  18
HETATM   18  C11 UNL     1     -12.143  -6.687  23.002  1.00  0.00     0.196 C
BRANCH  18  19
HETATM   19  O1  UNL     1     -11.747  -6.355  21.683  1.00  0.00    -0.398 OA
ATOM     20  H1  UNL     1     -12.009  -5.452  21.551  1.00  0.00     0.209 HD
ENDBRANCH  18  19
ENDBRANCH  16  18
ENDBRANCH   3  10
BRANCH   1  21
HETATM   21  S1  UNL     1     -17.058 -12.331  23.010  1.00  0.00    -0.128 SA
HETATM   22  C1  UNL     1     -17.079 -12.919  21.296  1.00  0.00     0.096 C
ENDBRANCH   1  21
TORSDOF 4
ENDMDL