MODEL 1
REMARK VINA RESULT: -5.513493941      0.000      0.000
REMARK  3 active torsions:
REMARK  status: ('A' for Active; 'I' for Inactive)
REMARK    1  A    between atoms: C2_2  and  C4_4
REMARK    2  A    between atoms: N1_8  and  C8_9
REMARK    3  A    between atoms: C8_9  and  C9_10
ROOT
HETATM    1  C9  UNL     1     -12.170 -12.911  31.716  1.00  0.00     0.154 C
HETATM    2  C10 UNL     1     -10.823 -13.144  31.127  1.00  0.00     0.060 C
HETATM    3  N2  UNL     1      -9.779 -13.313  30.659  1.00  0.00    -0.197 NA
ENDROOT
BRANCH   1   4
HETATM    4  C8  UNL     1     -12.987 -12.184  30.708  1.00  0.00     0.289 C
BRANCH   4   5
HETATM    5  N1  UNL     1     -13.717 -12.909  29.757  1.00  0.00     0.118 N
HETATM    6  C7  UNL     1     -15.139 -12.675  30.096  1.00  0.00     0.276 C
HETATM    7  C6  UNL     1     -15.581 -11.291  29.773  1.00  0.00     0.031 C
HETATM    8  C5  UNL     1     -15.232 -10.771  28.425  1.00  0.00     0.011 C
HETATM    9  C4  UNL     1     -13.774 -11.114  28.133  1.00  0.00     0.049 C
HETATM   10  C11 UNL     1     -13.627 -12.585  28.369  1.00  0.00     0.238 C
HETATM   11  C12 UNL     1     -12.484 -13.177  27.637  1.00  0.00     0.072 C
HETATM   12  N6  UNL     1     -14.841 -13.170  27.762  1.00  0.00    -0.329 N
HETATM   13  C13 UNL     1     -12.145 -14.580  28.067  1.00  0.00     0.077 C
HETATM   14  C14 UNL     1     -12.963 -15.542  27.283  1.00  0.00     0.095 C
HETATM   15  N3  UNL     1     -12.330 -16.746  26.884  1.00  0.00    -0.087 NA
HETATM   16  N4  UNL     1     -14.186 -15.337  26.958  1.00  0.00    -0.323 N
HETATM   17  C15 UNL     1     -15.067 -14.288  27.190  1.00  0.00     0.191 C
ATOM     18  H4  UNL     1     -14.597 -16.101  26.421  1.00  0.00     0.169 HD
HETATM   19  N5  UNL     1     -16.400 -14.496  26.721  1.00  0.00    -0.063 NA
ATOM     20  H6  UNL     1     -15.657 -12.561  27.810  1.00  0.00     0.164 HD
BRANCH   9  21
HETATM   21  C2  UNL     1     -13.300 -10.572  26.842  1.00  0.00    -0.014 C
HETATM   22  C1  UNL     1     -14.300 -10.330  25.779  1.00  0.00     0.010 C
HETATM   23  C3  UNL     1     -12.648  -9.213  27.163  1.00  0.00     0.010 C
ENDBRANCH   9  21
ENDBRANCH   4   5
ENDBRANCH   1   4
TORSDOF 3
ENDMDL