MODEL 1
REMARK VINA RESULT: -7.373528680      0.000      0.000
REMARK  3 active torsions:
REMARK  status: ('A' for Active; 'I' for Inactive)
REMARK    1  A    between atoms: C3_3  and  C4_4
REMARK    2  A    between atoms: C9_10  and  N1_11
REMARK    3  A    between atoms: C11_13  and  C12_14
ROOT
HETATM    1  C4  UNL     1     -15.462 -10.703  25.252  1.00  0.00     0.016 C
HETATM    2  C5  UNL     1     -15.347 -11.729  26.349  1.00  0.00     0.009 C
HETATM    3  C6  UNL     1     -14.837 -11.050  27.589  1.00  0.00     0.003 C
HETATM    4  C7  UNL     1     -13.859  -9.964  27.349  1.00  0.00     0.032 C
HETATM    5  C8  UNL     1     -13.173  -9.998  26.027  1.00  0.00     0.133 C
HETATM    6  O1  UNL     1     -12.618  -8.714  25.818  1.00  0.00    -0.337 OA
HETATM    7  C9  UNL     1     -11.885  -8.804  24.638  1.00  0.00     0.393 C
HETATM    8  O4  UNL     1     -12.697  -8.949  23.530  1.00  0.00    -0.342 OA
HETATM    9  C13 UNL     1     -14.041  -9.107  23.936  1.00  0.00     0.180 C
HETATM   10  C14 UNL     1     -14.075 -10.280  24.870  1.00  0.00     0.046 C
ENDROOT
BRANCH   7  11
HETATM   11  N1  UNL     1     -11.011  -7.677  24.484  1.00  0.00    -0.233 N
HETATM   12  C10 UNL     1     -10.817  -6.933  23.385  1.00  0.00     0.155 A
HETATM   13  C11 UNL     1      -9.894  -5.975  23.721  1.00  0.00     0.143 A
HETATM   14  N2  UNL     1      -9.558  -6.176  25.031  1.00  0.00    -0.279 N
HETATM   15  N3  UNL     1     -10.246  -7.210  25.468  1.00  0.00    -0.236 N
ATOM     16  H2  UNL     1      -8.893  -5.624  25.572  1.00  0.00     0.189 HD
ATOM     17  H3  UNL     1     -10.200  -7.592  26.413  1.00  0.00     0.208 HD
BRANCH  13  18
HETATM   18  C12 UNL     1      -9.365  -4.934  22.856  1.00  0.00     0.229 C
HETATM   19  O2  UNL     1      -9.409  -5.084  21.616  1.00  0.00    -0.643 OA
HETATM   20  O3  UNL     1      -8.816  -3.783  23.385  1.00  0.00    -0.643 OA
ENDBRANCH  13  18
ENDBRANCH   7  11
BRANCH   1  21
HETATM   21  C3  UNL     1     -16.133 -11.225  24.048  1.00  0.00    -0.026 C
HETATM   22  C2  UNL     1     -15.877 -12.418  23.567  1.00  0.00    -0.035 C
HETATM   23  C1  UNL     1     -16.580 -12.894  22.355  1.00  0.00     0.036 C
ENDBRANCH   1  21
TORSDOF 3
ENDMDL