MODEL 5
REMARK VINA RESULT: -7.438982519      1.312      1.638
REMARK  15 active torsions:
REMARK  status: ('A' for Active; 'I' for Inactive)
REMARK    1  A    between atoms: C4_4  and  O1_5
REMARK    2  A    between atoms: C5_7  and  C6_8
REMARK    3  A    between atoms: C6_8  and  C7_9
REMARK    4  A    between atoms: C7_9  and  C8_11
REMARK    5  A    between atoms: C8_11  and  C9_12
REMARK    6  A    between atoms: C9_12  and  N1_13
REMARK    7  A    between atoms: N1_13  and  O3_15
REMARK    8  A    between atoms: C11_19  and  O5_20
REMARK    9  A    between atoms: O5_20  and  C12_21
REMARK   10  A    between atoms: C12_21  and  C13_23
REMARK   11  A    between atoms: C13_23  and  N2_24
REMARK   12  A    between atoms: C13_23  and  C14_28
REMARK   13  A    between atoms: C14_28  and  C15_29
REMARK   14  A    between atoms: C15_29  and  C16_30
REMARK   15  A    between atoms: C18_32  and  O7_34
ROOT
HETATM    1  C1  UNL     1      15.221  64.568  30.480  1.00  0.00     0.015 C
HETATM    2  C2  UNL     1      15.860  64.543  31.658  1.00  0.00    -0.073 C
HETATM    3  C3  UNL     1      15.933  65.799  32.420  1.00  0.00     0.077 C
HETATM    4  C4  UNL     1      16.860  66.781  31.709  1.00  0.00     0.158 C
HETATM    5  C5  UNL     1      18.163  66.586  32.437  1.00  0.00     0.158 C
HETATM    6  O4  UNL     1      17.945  65.836  33.560  1.00  0.00    -0.374 OA
HETATM    7  C10 UNL     1      16.605  65.666  33.738  1.00  0.00     0.165 C
HETATM    8  C11 UNL     1      16.220  64.408  34.451  1.00  0.00     0.196 C
HETATM    9  C18 UNL     1      16.442  63.156  33.659  1.00  0.00     0.090 C
HETATM   10  C19 UNL     1      15.420  62.106  34.042  1.00  0.00     0.049 C
HETATM   11  C20 UNL     1      16.470  63.314  32.182  1.00  0.00     0.047 C
HETATM   12  C21 UNL     1      17.878  63.094  31.609  1.00  0.00     0.018 C
ENDROOT
BRANCH   8  13
HETATM   13  O5  UNL     1      16.887  64.326  35.698  1.00  0.00    -0.309 OA
BRANCH  13  14
HETATM   14  C12 UNL     1      16.554  65.082  36.799  1.00  0.00     0.290 C
HETATM   15  O6  UNL     1      15.358  65.478  36.907  1.00  0.00    -0.263 OA
BRANCH  14  16
HETATM   16  C13 UNL     1      17.538  65.451  37.862  1.00  0.00     0.282 C
BRANCH  16  17
HETATM   17  N2  UNL     1      16.854  65.383  39.134  1.00  0.00    -0.066 N
ATOM     18  H23 UNL     1      17.087  66.161  39.752  1.00  0.00     0.275 HD
ATOM     19  H22 UNL     1      15.854  65.568  39.057  1.00  0.00     0.275 HD
ATOM     20  H21 UNL     1      17.060  64.474  39.546  1.00  0.00     0.275 HD
ENDBRANCH  16  17
BRANCH  16  21
HETATM   21  C14 UNL     1      18.031  66.837  37.542  1.00  0.00     0.043 C
BRANCH  21  22
HETATM   22  C15 UNL     1      19.136  67.294  38.451  1.00  0.00     0.002 C
BRANCH  22  23
HETATM   23  C16 UNL     1      20.168  68.139  37.741  1.00  0.00    -0.004 C
HETATM   24  C17 UNL     1      20.112  67.920  36.245  1.00  0.00     0.005 C
ENDBRANCH  22  23
ENDBRANCH  21  22
ENDBRANCH  16  21
ENDBRANCH  14  16
ENDBRANCH  13  14
ENDBRANCH   8  13
BRANCH   9  25
HETATM   25  O7  UNL     1      17.691  62.605  34.037  1.00  0.00    -0.387 OA
ATOM     26  H7  UNL     1      18.378  63.190  33.744  1.00  0.00     0.210 HD
ENDBRANCH   9  25
BRANCH   4  27
HETATM   27  O1  UNL     1      16.942  66.547  30.358  1.00  0.00    -0.392 OA
ATOM     28  H1  UNL     1      17.214  65.659  30.156  1.00  0.00     0.210 HD
ENDBRANCH   4  27
BRANCH   5  29
HETATM   29  C6  UNL     1      18.754  67.946  32.738  1.00  0.00     0.118 C
BRANCH  29  30
HETATM   30  C7  UNL     1      19.743  68.280  31.687  1.00  0.00     0.160 C
HETATM   31  O2  UNL     1      20.011  67.511  30.727  1.00  0.00    -0.293 OA
BRANCH  30  32
HETATM   32  C8  UNL     1      20.451  69.538  31.739  1.00  0.00     0.126 C
BRANCH  32  33
HETATM   33  C9  UNL     1      21.279  69.772  32.731  1.00  0.00    -0.016 C
BRANCH  33  34
HETATM   34  N1  UNL     1      22.016  70.364  33.608  1.00  0.00    -0.233 N
ATOM     35  H1  UNL     1      22.084  71.382  33.621  1.00  0.00     0.204 HD
BRANCH  34  36
HETATM   36  O3  UNL     1      22.716  69.606  34.534  1.00  0.00    -0.282 OA
ATOM     37  H3  UNL     1      22.951  69.990  35.371  1.00  0.00     0.245 HD
ENDBRANCH  34  36
ENDBRANCH  33  34
ENDBRANCH  32  33
ENDBRANCH  30  32
ENDBRANCH  29  30
ENDBRANCH   5  29
TORSDOF 15
ENDMDL