MODEL 3
REMARK VINA RESULT: -7.510853544      3.655      7.527
REMARK  14 active torsions:
REMARK  status: ('A' for Active; 'I' for Inactive)
REMARK    1  A    between atoms: C2_2  and  C4_4
REMARK    2  A    between atoms: C4_4  and  O2_6
REMARK    3  A    between atoms: O2_6  and  C5_7
REMARK    4  A    between atoms: C10_14  and  C11_15
REMARK    5  A    between atoms: C11_15  and  C13_17
REMARK    6  A    between atoms: C13_17  and  O5_18
REMARK    7  A    between atoms: C13_17  and  C14_20
REMARK    8  A    between atoms: C14_20  and  C15_21
REMARK    9  A    between atoms: C15_21  and  O6_22
REMARK   10  A    between atoms: C15_21  and  C16_24
REMARK   11  A    between atoms: C16_24  and  C17_25
REMARK   12  A    between atoms: C17_25  and  C18_26
REMARK   13  A    between atoms: C20_28  and  O7_29
REMARK   14  A    between atoms: C21_31  and  O8_32
ROOT
HETATM    1  C5  UNL     1      18.584  66.315  30.733  1.00  0.00     0.338 C
HETATM    2  O3  UNL     1      17.739  66.112  29.646  1.00  0.00    -0.204 OA
HETATM    3  O4  UNL     1      17.555  64.866  29.345  1.00  0.00    -0.224 OA
HETATM    4  C6  UNL     1      17.378  64.100  30.458  1.00  0.00     0.126 C
HETATM    5  C7  UNL     1      18.567  63.322  30.913  1.00  0.00     0.052 C
HETATM    6  C8  UNL     1      16.237  63.082  30.320  1.00  0.00     0.044 C
HETATM    7  C9  UNL     1      15.847  62.806  31.783  1.00  0.00     0.011 C
HETATM    8  C10 UNL     1      16.481  63.910  32.594  1.00  0.00     0.032 C
HETATM    9  C20 UNL     1      16.759  64.957  31.576  1.00  0.00     0.126 C
HETATM   10  C21 UNL     1      17.843  65.931  31.994  1.00  0.00     0.214 C
ENDROOT
BRANCH   8  11
HETATM   11  C11 UNL     1      15.763  64.312  33.818  1.00  0.00     0.017 C
HETATM   12  C12 UNL     1      14.426  63.742  34.075  1.00  0.00     0.013 C
BRANCH  11  13
HETATM   13  C13 UNL     1      16.704  64.226  35.019  1.00  0.00     0.124 C
BRANCH  13  14
HETATM   14  O5  UNL     1      16.936  62.884  35.287  1.00  0.00    -0.395 OA
ATOM     15  H5  UNL     1      17.738  62.820  35.792  1.00  0.00     0.210 HD
ENDBRANCH  13  14
BRANCH  13  16
HETATM   16  C14 UNL     1      16.126  64.885  36.216  1.00  0.00     0.063 C
BRANCH  16  17
HETATM   17  C15 UNL     1      16.564  66.301  36.346  1.00  0.00     0.120 C
BRANCH  17  18
HETATM   18  O6  UNL     1      17.579  66.628  35.437  1.00  0.00    -0.395 OA
ATOM     19  H6  UNL     1      17.234  66.894  34.593  1.00  0.00     0.210 HD
ENDBRANCH  17  18
BRANCH  17  20
HETATM   20  C16 UNL     1      16.971  66.769  37.706  1.00  0.00     0.032 C
BRANCH  20  21
HETATM   21  C17 UNL     1      17.503  65.659  38.596  1.00  0.00     0.002 C
BRANCH  21  22
HETATM   22  C18 UNL     1      18.700  66.227  39.349  1.00  0.00    -0.004 C
HETATM   23  C19 UNL     1      19.458  67.195  38.478  1.00  0.00     0.005 C
ENDBRANCH  21  22
ENDBRANCH  20  21
ENDBRANCH  17  20
ENDBRANCH  16  17
ENDBRANCH  13  16
ENDBRANCH  11  13
ENDBRANCH   8  11
BRANCH   9  24
HETATM   24  O7  UNL     1      15.665  65.597  31.070  1.00  0.00    -0.383 OA
ATOM     25  H7  UNL     1      15.951  66.171  30.370  1.00  0.00     0.210 HD
ENDBRANCH   9  24
BRANCH  10  26
HETATM   26  O8  UNL     1      17.162  67.084  32.444  1.00  0.00    -0.387 OA
ATOM     27  H8  UNL     1      16.405  67.199  31.881  1.00  0.00     0.210 HD
ENDBRANCH  10  26
BRANCH   1  28
HETATM   28  O2  UNL     1      18.902  67.724  30.716  1.00  0.00    -0.280 OA
BRANCH  28  29
HETATM   29  C4  UNL     1      20.185  68.158  30.963  1.00  0.00     0.290 C
HETATM   30  O1  UNL     1      21.112  67.648  30.268  1.00  0.00    -0.260 OA
BRANCH  29  31
HETATM   31  C2  UNL     1      20.542  69.170  31.974  1.00  0.00     0.004 C
HETATM   32  C1  UNL     1      21.353  70.163  31.686  1.00  0.00     0.024 C
HETATM   33  C3  UNL     1      19.970  69.064  33.334  1.00  0.00     0.054 C
ENDBRANCH  29  31
ENDBRANCH  28  29
ENDBRANCH   1  28
TORSDOF 14
ENDMDL