MODEL 1
REMARK VINA RESULT: -7.097587969      0.000      0.000
REMARK  13 active torsions:
REMARK  status: ('A' for Active; 'I' for Inactive)
REMARK    1  A    between atoms: O1_2  and  C2_3
REMARK    2  A    between atoms: C2_3  and  C3_4
REMARK    3  A    between atoms: C3_4  and  C4_5
REMARK    4  A    between atoms: C4_5  and  O3_7
REMARK    5  A    between atoms: O3_7  and  C5_8
REMARK    6  A    between atoms: C5_8  and  C6_9
REMARK    7  A    between atoms: C10_14  and  C11_15
REMARK    8  A    between atoms: C12_16  and  C13_17
REMARK    9  A    between atoms: C13_17  and  O5_18
REMARK   10  A    between atoms: C13_17  and  C14_20
REMARK   11  A    between atoms: C19_25  and  O6_26
REMARK   12  A    between atoms: C20_28  and  O7_29
REMARK   13  A    between atoms: C22_32  and  O8_33
ROOT
HETATM    1  C5  UNL     1      16.252  63.690  32.231  1.00  0.00     0.207 C
HETATM    2  O4  UNL     1      16.705  64.917  31.608  1.00  0.00    -0.315 OA
HETATM    3  C9  UNL     1      17.599  65.461  32.518  1.00  0.00     0.053 C
HETATM    4  C10 UNL     1      17.816  66.753  32.765  1.00  0.00     0.032 C
HETATM    5  C21 UNL     1      18.299  64.337  33.195  1.00  0.00     0.102 C
HETATM    6  C22 UNL     1      17.631  63.122  32.604  1.00  0.00     0.188 C
ENDROOT
BRANCH   4   7
HETATM    7  C11 UNL     1      18.800  67.162  33.762  1.00  0.00     0.001 C
HETATM    8  C12 UNL     1      18.459  67.616  34.950  1.00  0.00     0.005 C
BRANCH   8   9
HETATM    9  C13 UNL     1      19.489  68.012  35.912  1.00  0.00     0.147 C
BRANCH   9  10
HETATM   10  O5  UNL     1      20.652  67.269  35.810  1.00  0.00    -0.391 OA
ATOM     11  H5  UNL     1      21.341  67.564  36.393  1.00  0.00     0.210 HD
ENDBRANCH   9  10
BRANCH   9  12
HETATM   12  C14 UNL     1      18.893  67.943  37.320  1.00  0.00     0.053 C
HETATM   13  C15 UNL     1      19.857  67.196  38.192  1.00  0.00     0.037 C
HETATM   14  C16 UNL     1      19.175  66.557  39.328  1.00  0.00    -0.021 C
HETATM   15  C17 UNL     1      18.053  65.882  39.102  1.00  0.00    -0.057 C
HETATM   16  C18 UNL     1      17.355  65.236  40.223  1.00  0.00     0.046 C
HETATM   17  C19 UNL     1      17.581  65.837  37.685  1.00  0.00     0.175 C
HETATM   18  C20 UNL     1      17.554  67.260  37.188  1.00  0.00     0.158 C
BRANCH  17  19
HETATM   19  O6  UNL     1      16.290  65.343  37.650  1.00  0.00    -0.389 OA
ATOM     20  H6  UNL     1      15.781  65.749  38.341  1.00  0.00     0.210 HD
ENDBRANCH  17  19
BRANCH  18  21
HETATM   21  O7  UNL     1      16.604  67.947  37.943  1.00  0.00    -0.392 OA
ATOM     22  H7  UNL     1      15.761  67.905  37.507  1.00  0.00     0.210 HD
ENDBRANCH  18  21
ENDBRANCH   9  12
ENDBRANCH   8   9
ENDBRANCH   4   7
BRANCH   1  23
HETATM   23  O3  UNL     1      15.650  62.970  31.246  1.00  0.00    -0.280 OA
BRANCH  23  24
HETATM   24  C4  UNL     1      15.440  61.666  31.000  1.00  0.00     0.263 C
HETATM   25  O2  UNL     1      15.933  61.162  29.988  1.00  0.00    -0.265 OA
BRANCH  24  26
HETATM   26  C3  UNL     1      14.636  60.757  31.880  1.00  0.00     0.137 C
BRANCH  26  27
HETATM   27  C2  UNL     1      15.594  59.908  32.697  1.00  0.00     0.176 C
BRANCH  27  28
HETATM   28  O1  UNL     1      14.884  59.084  33.545  1.00  0.00    -0.395 OA
HETATM   29  C1  UNL     1      15.174  59.411  34.869  1.00  0.00     0.201 C
ENDBRANCH  27  28
ENDBRANCH  26  27
ENDBRANCH  24  26
ENDBRANCH  23  24
ENDBRANCH   1  23
BRANCH   1  30
HETATM   30  C6  UNL     1      15.500  64.121  33.427  1.00  0.00     0.044 C
HETATM   31  C7  UNL     1      15.294  63.188  34.550  1.00  0.00     0.015 C
HETATM   32  C8  UNL     1      14.191  64.753  32.953  1.00  0.00     0.015 C
ENDBRANCH   1  30
BRANCH   6  33
HETATM   33  O8  UNL     1      18.265  62.840  31.401  1.00  0.00    -0.390 OA
ATOM     34  H8  UNL     1      17.892  62.022  31.095  1.00  0.00     0.210 HD
ENDBRANCH   6  33
TORSDOF 13
ENDMDL