MODEL 3
REMARK VINA RESULT: -8.608153089      1.221      2.898
REMARK  12 active torsions:
REMARK  status: ('A' for Active; 'I' for Inactive)
REMARK    1  A    between atoms: C2_2  and  C4_4
REMARK    2  A    between atoms: C4_4  and  C5_5
REMARK    3  A    between atoms: C5_5  and  C6_6
REMARK    4  A    between atoms: C6_6  and  C7_7
REMARK    5  A    between atoms: C7_7  and  C8_8
REMARK    6  A    between atoms: C13_13  and  O1_14
REMARK    7  A    between atoms: O1_14  and  C14_15
REMARK    8  A    between atoms: C15_16  and  O2_17
REMARK    9  A    between atoms: C16_19  and  C17_20
REMARK   10  A    between atoms: C17_20  and  O3_21
REMARK   11  A    between atoms: C19_26  and  O6_28
REMARK   12  A    between atoms: C22_31  and  O7_32
ROOT
HETATM    1  C8  UNL     1      20.491  69.093  34.449  1.00  0.00     0.014 C
HETATM    2  C9  UNL     1      19.664  67.906  34.116  1.00  0.00     0.007 C
HETATM    3  C10 UNL     1      18.576  68.375  33.149  1.00  0.00     0.001 C
HETATM    4  C11 UNL     1      19.007  67.982  31.771  1.00  0.00     0.002 C
HETATM    5  C12 UNL     1      19.411  69.194  30.915  1.00  0.00     0.032 C
HETATM    6  C13 UNL     1      20.889  69.450  31.051  1.00  0.00     0.124 C
HETATM    7  C21 UNL     1      21.210  70.215  32.324  1.00  0.00     0.064 C
HETATM    8  C22 UNL     1      21.619  69.296  33.456  1.00  0.00     0.124 C
ENDROOT
BRANCH   6   9
HETATM    9  O1  UNL     1      21.435  70.005  29.935  1.00  0.00    -0.374 OA
BRANCH   9  10
HETATM   10  C14 UNL     1      20.576  70.575  29.036  1.00  0.00     0.197 C
HETATM   11  C15 UNL     1      20.672  69.715  27.739  1.00  0.00     0.182 C
HETATM   12  C16 UNL     1      22.119  69.407  27.581  1.00  0.00     0.186 C
HETATM   13  O4  UNL     1      22.788  70.601  27.227  1.00  0.00    -0.309 OA
HETATM   14  C18 UNL     1      22.487  71.743  27.980  1.00  0.00     0.296 C
HETATM   15  O5  UNL     1      23.334  72.650  28.155  1.00  0.00    -0.262 OA
HETATM   16  C19 UNL     1      21.129  71.911  28.602  1.00  0.00     0.170 C
HETATM   17  C20 UNL     1      21.245  72.929  29.683  1.00  0.00     0.060 C
BRANCH  11  18
HETATM   18  O2  UNL     1      19.838  68.639  27.791  1.00  0.00    -0.390 OA
ATOM     19  H2  UNL     1      20.256  67.895  28.209  1.00  0.00     0.210 HD
ENDBRANCH  11  18
BRANCH  12  20
HETATM   20  C17 UNL     1      22.387  68.294  26.596  1.00  0.00     0.199 C
BRANCH  20  21
HETATM   21  O3  UNL     1      22.345  67.054  27.234  1.00  0.00    -0.398 OA
ATOM     22  H3  UNL     1      21.649  66.516  26.873  1.00  0.00     0.209 HD
ENDBRANCH  20  21
ENDBRANCH  12  20
BRANCH  16  23
HETATM   23  O6  UNL     1      20.281  72.492  27.617  1.00  0.00    -0.377 OA
ATOM     24  H6  UNL     1      20.573  73.374  27.416  1.00  0.00     0.211 HD
ENDBRANCH  16  23
ENDBRANCH   9  10
ENDBRANCH   6   9
BRANCH   8  25
HETATM   25  O7  UNL     1      22.704  69.808  34.163  1.00  0.00    -0.395 OA
ATOM     26  H7  UNL     1      22.402  70.002  35.043  1.00  0.00     0.210 HD
ENDBRANCH   8  25
BRANCH   1  27
HETATM   27  C7  UNL     1      21.094  68.943  35.815  1.00  0.00     0.007 C
BRANCH  27  28
HETATM   28  C6  UNL     1      20.572  67.741  36.510  1.00  0.00     0.000 C
BRANCH  28  29
HETATM   29  C5  UNL     1      19.886  68.078  37.825  1.00  0.00     0.000 C
BRANCH  29  30
HETATM   30  C4  UNL     1      18.459  67.600  37.847  1.00  0.00     0.004 C
BRANCH  30  31
HETATM   31  C2  UNL     1      18.446  66.237  38.516  1.00  0.00    -0.023 C
HETATM   32  C1  UNL     1      17.064  65.785  38.887  1.00  0.00     0.009 C
HETATM   33  C3  UNL     1      19.317  66.196  39.747  1.00  0.00     0.009 C
ENDBRANCH  30  31
ENDBRANCH  29  30
ENDBRANCH  28  29
ENDBRANCH  27  28
ENDBRANCH   1  27
TORSDOF 12
ENDMDL