MODEL 3
REMARK VINA RESULT: -6.969159779      1.533      1.829
REMARK  14 active torsions:
REMARK  status: ('A' for Active; 'I' for Inactive)
REMARK    1  A    between atoms: C2_2  and  C3_3
REMARK    2  A    between atoms: C3_3  and  C4_4
REMARK    3  A    between atoms: C4_4  and  C5_5
REMARK    4  A    between atoms: C5_5  and  O1_6
REMARK    5  A    between atoms: O1_6  and  C6_7
REMARK    6  A    between atoms: C7_9  and  N1_10
REMARK    7  A    between atoms: C12_15  and  N2_16
REMARK    8  A    between atoms: C13_21  and  C14_22
REMARK    9  A    between atoms: C17_25  and  O4_26
REMARK   10  A    between atoms: C19_29  and  C20_30
REMARK   11  A    between atoms: C19_29  and  N3_33
REMARK   12  A    between atoms: C20_30  and  O5_31
REMARK   13  A    between atoms: N3_33  and  N4_35
REMARK   14  A    between atoms: N4_35  and  N5_36
ROOT
HETATM    1  C6  UNL     1      17.199  64.941  33.637  1.00  0.00     0.294 C
HETATM    2  O2  UNL     1      17.362  66.251  32.998  1.00  0.00    -0.334 OA
HETATM    3  C7  UNL     1      18.423  66.097  32.140  1.00  0.00     0.253 C
HETATM    4  C17 UNL     1      18.023  65.227  30.933  1.00  0.00     0.166 C
HETATM    5  C18 UNL     1      17.730  63.862  31.533  1.00  0.00     0.076 C
HETATM    6  C19 UNL     1      16.597  64.121  32.553  1.00  0.00     0.132 C
ENDROOT
BRANCH   3   7
HETATM    7  N1  UNL     1      18.907  67.334  31.592  1.00  0.00    -0.162 NA
HETATM    8  C8  UNL     1      18.633  68.486  32.391  1.00  0.00     0.125 C
HETATM    9  C9  UNL     1      19.830  69.361  32.405  1.00  0.00     0.027 C
HETATM   10  C10 UNL     1      20.283  69.966  31.128  1.00  0.00    -0.021 A
HETATM   11  C11 UNL     1      19.480  69.322  30.073  1.00  0.00     0.081 C
HETATM   12  C13 UNL     1      21.426  69.244  30.378  1.00  0.00     0.028 A
HETATM   13  C16 UNL     1      21.649  70.336  31.268  1.00  0.00     0.026 A
HETATM   14  C12 UNL     1      20.431  68.172  30.270  1.00  0.00     0.252 C
HETATM   15  O3  UNL     1      20.220  67.324  31.277  1.00  0.00    -0.260 OA
BRANCH  14  16
HETATM   16  N2  UNL     1      20.483  67.405  29.014  1.00  0.00    -0.044 N
ATOM     17  H23 UNL     1      19.585  66.987  28.769  1.00  0.00     0.278 HD
ATOM     18  H22 UNL     1      20.586  68.000  28.191  1.00  0.00     0.278 HD
ATOM     19  H21 UNL     1      21.229  66.714  29.097  1.00  0.00     0.278 HD
ENDBRANCH  14  16
BRANCH  12  20
HETATM   20  C14 UNL     1      21.865  69.668  28.999  1.00  0.00     0.011 C
HETATM   21  C15 UNL     1      22.835  70.804  28.928  1.00  0.00     0.006 C
ENDBRANCH  12  20
ENDBRANCH   3   7
BRANCH   4  22
HETATM   22  O4  UNL     1      19.037  65.218  30.014  1.00  0.00    -0.392 OA
ATOM     23  H4  UNL     1      19.747  65.774  30.314  1.00  0.00     0.210 HD
ENDBRANCH   4  22
BRANCH   1  24
HETATM   24  O1  UNL     1      16.302  65.131  34.680  1.00  0.00    -0.358 OA
BRANCH  24  25
HETATM   25  C5  UNL     1      16.728  65.906  35.707  1.00  0.00     0.171 C
BRANCH  25  26
HETATM   26  C4  UNL     1      16.161  65.766  37.057  1.00  0.00     0.026 C
BRANCH  26  27
HETATM   27  C3  UNL     1      16.688  66.668  38.121  1.00  0.00     0.002 C
BRANCH  27  28
HETATM   28  C2  UNL     1      17.615  65.837  39.026  1.00  0.00    -0.004 C
HETATM   29  C1  UNL     1      18.965  66.491  39.075  1.00  0.00     0.005 C
ENDBRANCH  27  28
ENDBRANCH  26  27
ENDBRANCH  25  26
ENDBRANCH  24  25
ENDBRANCH   1  24
BRANCH   6  30
HETATM   30  C20 UNL     1      15.987  62.823  32.937  1.00  0.00     0.202 C
BRANCH  30  31
HETATM   31  O5  UNL     1      14.757  63.035  33.506  1.00  0.00    -0.398 OA
ATOM     32  H5  UNL     1      14.323  63.764  33.079  1.00  0.00     0.209 HD
ENDBRANCH  30  31
ENDBRANCH   6  30
BRANCH   6  33
HETATM   33  N3  UNL     1      15.590  64.989  31.910  1.00  0.00    -0.235 N
ATOM     34  H3  UNL     1      15.438  65.953  32.210  1.00  0.00     0.198 HD
BRANCH  33  35
HETATM   35  N4  UNL     1      14.949  64.489  31.000  1.00  0.00    -0.248 NA
BRANCH  35  36
HETATM   36  N5  UNL     1      14.632  64.065  29.892  1.00  0.00    -0.261 N
ATOM     37  H52 UNL     1      14.465  63.106  30.198  1.00  0.00     0.193 HD
ATOM     38  H51 UNL     1      14.426  64.020  28.894  1.00  0.00     0.193 HD
ENDBRANCH  35  36
ENDBRANCH  33  35
ENDBRANCH   6  33
TORSDOF 14
ENDMDL