MODEL 2
REMARK VINA RESULT: -7.727196396      2.949      7.294
REMARK  12 active torsions:
REMARK  status: ('A' for Active; 'I' for Inactive)
REMARK    1  A    between atoms: O1_1  and  N1_3
REMARK    2  A    between atoms: C1_5  and  O2_6
REMARK    3  A    between atoms: C1_5  and  C2_8
REMARK    4  A    between atoms: C2_8  and  S1_9
REMARK    5  A    between atoms: S1_9  and  C3_10
REMARK    6  A    between atoms: C5_12  and  N2_13
REMARK    7  A    between atoms: N2_13  and  C6_15
REMARK    8  A    between atoms: C12_23  and  N4_24
REMARK    9  A    between atoms: N4_24  and  C13_26
REMARK   10  A    between atoms: C13_26  and  C14_27
REMARK   11  A    between atoms: C14_27  and  C15_28
REMARK   12  A    between atoms: C15_28  and  N5_29
ROOT
HETATM    1  C3  UNL     1      15.178  63.804  33.849  1.00  0.00     0.090 A
HETATM    2  C4  UNL     1      15.831  64.243  34.977  1.00  0.00     0.086 A
HETATM    3  C5  UNL     1      16.593  65.404  34.946  1.00  0.00     0.119 A
HETATM    4  N3  UNL     1      16.683  66.090  33.797  1.00  0.00    -0.177 N
ATOM      5  H3  UNL     1      17.241  66.944  33.769  1.00  0.00     0.185 HD
HETATM    6  C12 UNL     1      16.045  65.674  32.664  1.00  0.00     0.680 A
HETATM    7  N6  UNL     1      15.319  64.551  32.728  1.00  0.00    -0.186 N
ATOM      8  H6  UNL     1      14.842  64.239  31.882  1.00  0.00     0.185 HD
ENDROOT
BRANCH   6   9
HETATM    9  N4  UNL     1      16.168  66.378  31.589  1.00  0.00    -0.226 N
ATOM     10  H4  UNL     1      15.358  66.888  31.235  1.00  0.00     0.177 HD
BRANCH   9  11
HETATM   11  C13 UNL     1      17.411  66.465  30.877  1.00  0.00     0.140 C
BRANCH  11  12
HETATM   12  C14 UNL     1      18.018  67.847  31.124  1.00  0.00     0.050 C
BRANCH  12  13
HETATM   13  C15 UNL     1      19.333  67.613  31.816  1.00  0.00     0.274 C
BRANCH  13  14
HETATM   14  N5  UNL     1      19.534  68.595  32.864  1.00  0.00     0.092 N
HETATM   15  C16 UNL     1      20.482  69.550  32.445  1.00  0.00     0.298 C
HETATM   16  C17 UNL     1      21.577  69.933  33.365  1.00  0.00     0.198 C
HETATM   17  O3  UNL     1      21.723  69.198  34.512  1.00  0.00    -0.388 OA
HETATM   18  C18 UNL     1      20.518  68.768  35.047  1.00  0.00     0.198 C
HETATM   19  C19 UNL     1      19.744  67.918  34.090  1.00  0.00     0.298 C
ENDBRANCH  13  14
ENDBRANCH  12  13
ENDBRANCH  11  12
ENDBRANCH   9  11
ENDBRANCH   6   9
BRANCH   3  20
HETATM   20  N2  UNL     1      17.211  65.842  35.975  1.00  0.00    -0.371 N
ATOM     21  H2  UNL     1      18.231  65.867  35.963  1.00  0.00     0.161 HD
BRANCH  20  22
HETATM   22  C6  UNL     1      16.522  66.299  37.143  1.00  0.00     0.083 C
HETATM   23  C7  UNL     1      16.665  65.381  38.335  1.00  0.00     0.025 C
HETATM   24  C8  UNL     1      18.067  65.372  38.897  1.00  0.00     0.002 C
HETATM   25  C9  UNL     1      18.665  66.728  39.056  1.00  0.00     0.000 C
HETATM   26  C10 UNL     1      18.567  67.481  37.738  1.00  0.00     0.002 C
HETATM   27  C11 UNL     1      17.092  67.688  37.466  1.00  0.00     0.025 C
ENDBRANCH  20  22
ENDBRANCH   3  20
BRANCH   1  28
HETATM   28  S1  UNL     1      14.168  62.355  33.774  1.00  0.00    -0.103 SA
BRANCH  28  29
HETATM   29  C2  UNL     1      14.978  60.902  33.138  1.00  0.00     0.166 C
BRANCH  29  30
HETATM   30  C1  UNL     1      15.017  59.847  34.167  1.00  0.00     0.145 C
HETATM   31  N1  UNL     1      15.694  60.011  35.236  1.00  0.00    -0.250 N
ATOM     32  H1  UNL     1      16.194  60.894  35.339  1.00  0.00     0.196 HD
BRANCH  31  33
HETATM   33  O1  UNL     1      15.807  59.117  36.244  1.00  0.00    -0.288 OA
ATOM     34  H1  UNL     1      15.932  59.328  37.162  1.00  0.00     0.244 HD
ENDBRANCH  31  33
BRANCH  30  35
HETATM   35  O2  UNL     1      14.316  58.677  33.962  1.00  0.00    -0.348 OA
ATOM     36  H2  UNL     1      13.456  58.700  33.559  1.00  0.00     0.219 HD
ENDBRANCH  30  35
ENDBRANCH  29  30
ENDBRANCH  28  29
ENDBRANCH   1  28
TORSDOF 12
ENDMDL