MODEL 4
REMARK VINA RESULT: -6.730395616      2.533      3.055
REMARK  13 active torsions:
REMARK  status: ('A' for Active; 'I' for Inactive)
REMARK    1  A    between atoms: C3_3  and  C4_4
REMARK    2  A    between atoms: C4_4  and  C5_5
REMARK    3  A    between atoms: C5_5  and  S2_7
REMARK    4  A    between atoms: S2_7  and  S3_8
REMARK    5  A    between atoms: S3_8  and  C6_9
REMARK    6  A    between atoms: C6_9  and  N4_21
REMARK    7  A    between atoms: N1_10  and  N2_12
REMARK       I    between atoms: N2_12  and  C7_14
REMARK    8  A    between atoms: C7_14  and  C8_16
REMARK    9  A    between atoms: C8_16  and  N3_17
REMARK   10  A    between atoms: N4_21  and  C9_23
REMARK   11  A    between atoms: C9_23  and  C10_24
REMARK   12  A    between atoms: C10_24  and  C11_25
REMARK       I    between atoms: C11_25  and  N5_27
REMARK   13  A    between atoms: N5_27  and  C12_29
ROOT
HETATM    1  C6  UNL     1      20.521  69.222  32.198  1.00  0.00     0.166 C
HETATM    2  N1  UNL     1      21.318  70.208  32.296  1.00  0.00    -0.277 N
ATOM      3  H1  UNL     1      21.242  70.839  33.094  1.00  0.00     0.189 HD
ENDROOT
BRANCH   1   4
HETATM    4  S3  UNL     1      19.281  68.959  33.461  1.00  0.00    -0.014 SA
BRANCH   4   5
HETATM    5  S2  UNL     1      19.970  67.703  34.993  1.00  0.00    -0.042 SA
BRANCH   5   6
HETATM    6  C5  UNL     1      20.924  68.536  36.221  1.00  0.00     0.060 C
HETATM    7  S1  UNL     1      22.123  69.218  35.764  1.00  0.00    -0.076 SA
BRANCH   6   8
HETATM    8  C4  UNL     1      20.598  68.593  37.665  1.00  0.00     0.085 C
BRANCH   8   9
HETATM    9  C3  UNL     1      19.426  67.715  38.001  1.00  0.00    -0.025 C
HETATM   10  C2  UNL     1      19.497  66.877  39.007  1.00  0.00    -0.035 C
HETATM   11  C1  UNL     1      18.351  65.997  39.360  1.00  0.00     0.036 C
ENDBRANCH   8   9
ENDBRANCH   6   8
ENDBRANCH   5   6
ENDBRANCH   4   5
ENDBRANCH   1   4
BRANCH   1  12
HETATM   12  N4  UNL     1      20.607  68.339  31.105  1.00  0.00    -0.369 N
ATOM     13  H4  UNL     1      21.519  68.140  30.695  1.00  0.00     0.161 HD
BRANCH  12  14
HETATM   14  C9  UNL     1      19.429  67.704  30.551  1.00  0.00     0.131 C
BRANCH  14  15
HETATM   15  C10 UNL     1      19.822  66.374  29.920  1.00  0.00     0.122 C
BRANCH  15  16
HETATM   16  C11 UNL     1      18.885  65.295  30.370  1.00  0.00     0.219 C
HETATM   17  O2  UNL     1      18.715  64.268  29.669  1.00  0.00    -0.274 OA
HETATM   18  N5  UNL     1      18.180  65.411  31.584  1.00  0.00    -0.355 N
ATOM     19  H5  UNL     1      18.302  66.238  32.168  1.00  0.00     0.162 HD
BRANCH  18  20
HETATM   20  C12 UNL     1      17.286  64.362  31.997  1.00  0.00     0.103 C
HETATM   21  C13 UNL     1      15.958  64.991  32.439  1.00  0.00     0.100 C
HETATM   22  S4  UNL     1      16.801  65.494  33.967  1.00  0.00    -0.165 SA
HETATM   23  C14 UNL     1      17.475  63.904  33.427  1.00  0.00     0.100 C
ENDBRANCH  18  20
ENDBRANCH  15  16
ENDBRANCH  14  15
ENDBRANCH  12  14
ENDBRANCH   1  12
BRANCH   2  24
HETATM   24  N2  UNL     1      22.294  70.437  31.326  1.00  0.00    -0.267 N
HETATM   25  C7  UNL     1      22.195  71.540  30.465  1.00  0.00     0.261 C
HETATM   26  O1  UNL     1      21.233  72.336  30.551  1.00  0.00    -0.270 OA
ATOM     27  H2  UNL     1      23.084  69.797  31.242  1.00  0.00     0.190 HD
BRANCH  25  28
HETATM   28  C8  UNL     1      23.214  71.814  29.421  1.00  0.00     0.333 C
BRANCH  28  29
HETATM   29  N3  UNL     1      23.144  70.843  28.363  1.00  0.00    -0.071 N
ATOM     30  H33 UNL     1      22.191  70.736  28.014  1.00  0.00     0.274 HD
ATOM     31  H32 UNL     1      23.584  71.186  27.509  1.00  0.00     0.274 HD
ATOM     32  H31 UNL     1      23.538  69.951  28.657  1.00  0.00     0.274 HD
ENDBRANCH  28  29
ENDBRANCH  25  28
ENDBRANCH   2  24
TORSDOF 13
ENDMDL