MODEL 4
REMARK VINA RESULT: -7.028608224      2.364      3.835
REMARK  13 active torsions:
REMARK  status: ('A' for Active; 'I' for Inactive)
REMARK    1  A    between atoms: O1_2  and  C2_3
REMARK    2  A    between atoms: C2_3  and  C3_4
REMARK    3  A    between atoms: C4_5  and  C5_6
REMARK    4  A    between atoms: C5_6  and  O2_12
REMARK    5  A    between atoms: N1_7  and  N2_9
REMARK    6  A    between atoms: O2_12  and  C6_13
REMARK    7  A    between atoms: C6_13  and  C7_14
REMARK    8  A    between atoms: C7_14  and  C8_15
REMARK    9  A    between atoms: C10_18  and  C11_19
REMARK   10  A    between atoms: C11_19  and  O4_20
REMARK   11  A    between atoms: C15_25  and  O5_26
REMARK   12  A    between atoms: C16_28  and  C17_29
REMARK   13  A    between atoms: C21_34  and  O7_35
ROOT
HETATM    1  C6  UNL     1      21.345  69.972  31.475  1.00  0.00     0.180 C
ENDROOT
BRANCH   1   2
HETATM    2  O2  UNL     1      21.183  70.813  30.372  1.00  0.00    -0.334 OA
BRANCH   2   3
HETATM    3  C5  UNL     1      21.320  70.255  29.083  1.00  0.00     0.169 C
HETATM    4  N1  UNL     1      22.304  69.512  28.833  1.00  0.00    -0.286 N
ATOM      5  H1  UNL     1      22.932  69.383  29.626  1.00  0.00     0.188 HD
BRANCH   3   6
HETATM    6  C4  UNL     1      20.289  70.590  28.115  1.00  0.00     0.052 A
HETATM    7  C3  UNL     1      19.183  69.814  27.761  1.00  0.00     0.040 A
HETATM    8  C21 UNL     1      18.484  70.517  26.818  1.00  0.00     0.192 A
HETATM    9  O6  UNL     1      19.096  71.648  26.590  1.00  0.00    -0.299 OA
HETATM   10  C20 UNL     1      20.191  71.727  27.356  1.00  0.00     0.161 A
BRANCH   7  11
HETATM   11  C2  UNL     1      18.897  68.493  28.345  1.00  0.00     0.211 C
BRANCH  11  12
HETATM   12  O1  UNL     1      19.873  67.598  27.867  1.00  0.00    -0.391 OA
HETATM   13  C1  UNL     1      20.040  66.605  28.835  1.00  0.00     0.201 C
ENDBRANCH  11  12
ENDBRANCH   7  11
BRANCH   8  14
HETATM   14  O7  UNL     1      17.302  70.041  26.226  1.00  0.00    -0.340 OA
ATOM     15  H7  UNL     1      17.053  70.241  25.332  1.00  0.00     0.220 HD
ENDBRANCH   8  14
ENDBRANCH   3   6
BRANCH   4  16
HETATM   16  N2  UNL     1      22.690  68.852  27.719  1.00  0.00    -0.343 N
ATOM     17  H22 UNL     1      22.052  68.096  27.473  1.00  0.00     0.176 HD
ATOM     18  H21 UNL     1      23.485  68.967  27.091  1.00  0.00     0.176 HD
ENDBRANCH   4  16
ENDBRANCH   2   3
ENDBRANCH   1   2
BRANCH   1  19
HETATM   19  C7  UNL     1      20.131  69.102  31.689  1.00  0.00     0.059 C
BRANCH  19  20
HETATM   20  C8  UNL     1      19.622  69.240  33.108  1.00  0.00     0.135 C
HETATM   21  O3  UNL     1      20.614  69.026  34.064  1.00  0.00    -0.349 OA
HETATM   22  C9  UNL     1      20.077  68.430  35.192  1.00  0.00     0.050 C
HETATM   23  C10 UNL     1      20.775  68.090  36.257  1.00  0.00     0.031 C
HETATM   24  C12 UNL     1      18.594  68.247  34.986  1.00  0.00     0.056 C
HETATM   25  C13 UNL     1      18.572  68.245  33.448  1.00  0.00     0.028 C
HETATM   26  C16 UNL     1      18.125  66.881  35.362  1.00  0.00     0.028 C
HETATM   27  C14 UNL     1      19.050  66.804  33.222  1.00  0.00     0.040 C
HETATM   28  C15 UNL     1      18.009  66.094  34.105  1.00  0.00     0.123 C
BRANCH  23  29
HETATM   29  C11 UNL     1      22.230  68.346  36.287  1.00  0.00     0.194 C
BRANCH  29  30
HETATM   30  O4  UNL     1      22.528  69.694  36.297  1.00  0.00    -0.397 OA
ATOM     31  H4  UNL     1      22.276  70.126  35.489  1.00  0.00     0.209 HD
ENDBRANCH  29  30
ENDBRANCH  23  29
BRANCH  28  32
HETATM   32  O5  UNL     1      16.816  66.261  33.419  1.00  0.00    -0.395 OA
ATOM     33  H5  UNL     1      16.294  66.808  33.994  1.00  0.00     0.210 HD
ENDBRANCH  28  32
BRANCH  26  34
HETATM   34  C17 UNL     1      16.923  66.857  36.242  1.00  0.00    -0.015 C
HETATM   35  C18 UNL     1      17.033  67.662  37.492  1.00  0.00     0.010 C
HETATM   36  C19 UNL     1      16.503  65.456  36.635  1.00  0.00     0.010 C
ENDBRANCH  26  34
ENDBRANCH  19  20
ENDBRANCH   1  19
TORSDOF 13
ENDMDL