MODEL 3
REMARK VINA RESULT: -8.768208036      0.996      1.237
REMARK  12 active torsions:
REMARK  status: ('A' for Active; 'I' for Inactive)
REMARK    1  A    between atoms: C2_2  and  C3_3
REMARK    2  A    between atoms: C2_2  and  C16_24
REMARK    3  A    between atoms: C4_4  and  C5_5
REMARK    4  A    between atoms: C6_6  and  O1_7
REMARK    5  A    between atoms: O1_7  and  C7_8
REMARK    6  A    between atoms: C10_12  and  O3_13
REMARK    7  A    between atoms: C11_15  and  O4_16
REMARK    8  A    between atoms: C12_18  and  O5_19
REMARK    9  A    between atoms: C16_24  and  C17_25
REMARK   10  A    between atoms: C17_25  and  O6_26
REMARK   11  A    between atoms: C17_25  and  C18_28
REMARK   12  A    between atoms: C18_28  and  C19_29
ROOT
HETATM    1  C5  UNL     1      20.155  68.186  36.246  1.00  0.00    -0.021 A
HETATM    2  C6  UNL     1      20.478  68.675  35.068  1.00  0.00     0.078 A
HETATM    3  C13 UNL     1      21.869  69.081  35.043  1.00  0.00     0.034 A
HETATM    4  C14 UNL     1      22.382  68.831  36.228  1.00  0.00    -0.019 A
HETATM    5  C15 UNL     1      21.356  68.242  37.106  1.00  0.00     0.068 A
ENDROOT
BRANCH   1   6
HETATM    6  C4  UNL     1      18.823  67.679  36.625  1.00  0.00     0.006 C
HETATM    7  C3  UNL     1      18.495  67.410  37.863  1.00  0.00    -0.022 C
BRANCH   7   8
HETATM    8  C2  UNL     1      17.172  66.910  38.195  1.00  0.00     0.006 C
HETATM    9  C1  UNL     1      17.298  65.627  39.035  1.00  0.00     0.014 C
BRANCH   8  10
HETATM   10  C16 UNL     1      16.253  66.593  37.083  1.00  0.00     0.040 C
BRANCH  10  11
HETATM   11  C17 UNL     1      16.105  65.177  36.682  1.00  0.00     0.121 C
BRANCH  11  12
HETATM   12  O6  UNL     1      14.791  64.721  36.698  1.00  0.00    -0.395 OA
ATOM     13  H6  UNL     1      14.493  64.376  35.866  1.00  0.00     0.210 HD
ENDBRANCH  11  12
BRANCH  11  14
HETATM   14  C18 UNL     1      16.567  65.071  35.221  1.00  0.00     0.070 C
BRANCH  14  15
HETATM   15  C19 UNL     1      15.972  63.832  34.584  1.00  0.00     0.199 A
HETATM   16  O7  UNL     1      14.869  64.074  33.792  1.00  0.00    -0.231 OA
HETATM   17  O8  UNL     1      15.428  63.845  32.613  1.00  0.00    -0.227 OA
HETATM   18  C20 UNL     1      16.579  63.481  33.272  1.00  0.00     0.118 A
HETATM   19  C21 UNL     1      17.822  64.248  32.892  1.00  0.00     0.052 C
HETATM   20  C22 UNL     1      16.847  61.984  33.106  1.00  0.00     0.052 C
ENDBRANCH  14  15
ENDBRANCH  11  14
ENDBRANCH  10  11
ENDBRANCH   8  10
ENDBRANCH   7   8
ENDBRANCH   1   6
BRANCH   2  21
HETATM   21  O1  UNL     1      19.571  68.780  33.981  1.00  0.00    -0.317 OA
BRANCH  21  22
HETATM   22  C7  UNL     1      20.041  68.397  32.695  1.00  0.00     0.298 C
HETATM   23  O2  UNL     1      20.595  69.460  32.012  1.00  0.00    -0.351 OA
HETATM   24  C8  UNL     1      20.014  69.717  30.785  1.00  0.00     0.152 C
HETATM   25  C9  UNL     1      20.826  70.815  30.127  1.00  0.00     0.042 C
HETATM   26  C10 UNL     1      20.213  68.474  29.946  1.00  0.00     0.178 C
HETATM   27  C11 UNL     1      19.336  67.400  30.490  1.00  0.00     0.183 C
HETATM   28  C12 UNL     1      19.022  67.627  31.923  1.00  0.00     0.205 C
BRANCH  26  29
HETATM   29  O3  UNL     1      19.974  68.735  28.598  1.00  0.00    -0.390 OA
ATOM     30  H3  UNL     1      19.609  67.974  28.162  1.00  0.00     0.210 HD
ENDBRANCH  26  29
BRANCH  27  31
HETATM   31  O4  UNL     1      19.949  66.130  30.371  1.00  0.00    -0.390 OA
ATOM     32  H4  UNL     1      20.039  65.710  31.218  1.00  0.00     0.210 HD
ENDBRANCH  27  31
BRANCH  28  33
HETATM   33  O5  UNL     1      17.758  68.248  31.987  1.00  0.00    -0.388 OA
ATOM     34  H5  UNL     1      17.711  68.856  32.717  1.00  0.00     0.210 HD
ENDBRANCH  28  33
ENDBRANCH  21  22
ENDBRANCH   2  21
TORSDOF 12
ENDMDL