MODEL 5
REMARK VINA RESULT: -7.663566204      2.391      5.906
REMARK  11 active torsions:
REMARK  status: ('A' for Active; 'I' for Inactive)
REMARK    1  A    between atoms: C2_2  and  C3_3
REMARK    2  A    between atoms: C3_3  and  C4_4
REMARK    3  A    between atoms: C4_4  and  N1_5
REMARK    4  A    between atoms: N1_5  and  C5_7
REMARK    5  A    between atoms: C6_10  and  O1_11
REMARK    6  A    between atoms: O1_11  and  C7_12
REMARK    7  A    between atoms: C9_14  and  O2_15
REMARK    8  A    between atoms: O2_15  and  C10_16
REMARK    9  A    between atoms: C10_16  and  C11_17
REMARK   10  A    between atoms: C11_17  and  O3_18
REMARK   11  A    between atoms: C21_32  and  N4_33
ROOT
HETATM    1  O1  UNL     1      17.899  65.261  32.586  1.00  0.00    -0.315 OA
ENDROOT
BRANCH   1   2
HETATM    2  C6  UNL     1      18.384  66.498  32.113  1.00  0.00     0.252 A
HETATM    3  N2  UNL     1      19.034  67.345  32.929  1.00  0.00    -0.154 N
HETATM    4  C5  UNL     1      19.501  68.532  32.480  1.00  0.00     0.695 A
ATOM      5  H2  UNL     1      19.178  67.087  33.905  1.00  0.00     0.188 HD
HETATM    6  N5  UNL     1      19.325  68.897  31.201  1.00  0.00    -0.022 N
HETATM    7  C21 UNL     1      18.677  68.061  30.373  1.00  0.00     0.693 A
ATOM      8  H5  UNL     1      19.677  69.793  30.863  1.00  0.00     0.203 HD
HETATM    9  N3  UNL     1      18.213  66.869  30.837  1.00  0.00    -0.154 N
ATOM     10  H3  UNL     1      17.722  66.242  30.198  1.00  0.00     0.188 HD
BRANCH   4  11
HETATM   11  N1  UNL     1      20.131  69.347  33.283  1.00  0.00    -0.225 N
ATOM     12  H1  UNL     1      20.334  70.300  32.981  1.00  0.00     0.177 HD
BRANCH  11  13
HETATM   13  C4  UNL     1      20.541  68.905  34.599  1.00  0.00     0.138 C
BRANCH  13  14
HETATM   14  C3  UNL     1      21.938  69.318  34.932  1.00  0.00     0.020 C
BRANCH  14  15
HETATM   15  C2  UNL     1      22.278  68.944  36.339  1.00  0.00    -0.003 C
HETATM   16  C1  UNL     1      21.081  68.421  37.069  1.00  0.00     0.005 C
ENDBRANCH  14  15
ENDBRANCH  13  14
ENDBRANCH  11  13
ENDBRANCH   4  11
BRANCH   7  17
HETATM   17  N4  UNL     1      18.511  68.414  29.148  1.00  0.00    -0.234 N
ATOM     18  H42 UNL     1      17.665  68.927  28.896  1.00  0.00     0.174 HD
ATOM     19  H41 UNL     1      19.203  68.191  28.432  1.00  0.00     0.174 HD
ENDBRANCH   7  17
ENDBRANCH   1   2
BRANCH   1  20
HETATM   20  C7  UNL     1      16.771  64.645  32.049  1.00  0.00     0.147 C
HETATM   21  C8  UNL     1      15.559  64.835  32.910  1.00  0.00     0.065 C
HETATM   22  C9  UNL     1      15.692  64.065  34.233  1.00  0.00     0.124 C
HETATM   23  C16 UNL     1      15.740  62.605  33.819  1.00  0.00     0.033 C
HETATM   24  C17 UNL     1      16.945  62.305  32.963  1.00  0.00     0.019 C
HETATM   25  C18 UNL     1      16.956  63.179  31.760  1.00  0.00     0.029 C
HETATM   26  C19 UNL     1      16.059  62.748  30.624  1.00  0.00     0.181 C
HETATM   27  C20 UNL     1      17.985  62.834  30.729  1.00  0.00     0.181 C
HETATM   28  O4  UNL     1      17.070  63.147  29.736  1.00  0.00    -0.389 OA
BRANCH  22  29
HETATM   29  O2  UNL     1      16.786  64.488  34.898  1.00  0.00    -0.383 OA
BRANCH  29  30
HETATM   30  C10 UNL     1      16.791  65.662  35.557  1.00  0.00     0.205 C
BRANCH  30  31
HETATM   31  C11 UNL     1      16.188  65.728  36.913  1.00  0.00     0.079 C
HETATM   32  C12 UNL     1      17.170  65.130  37.938  1.00  0.00     0.040 C
HETATM   33  C13 UNL     1      18.013  66.266  38.415  1.00  0.00     0.003 C
HETATM   34  C14 UNL     1      17.499  67.529  37.786  1.00  0.00     0.003 C
HETATM   35  C15 UNL     1      16.079  67.168  37.414  1.00  0.00     0.040 C
BRANCH  31  36
HETATM   36  O3  UNL     1      15.002  65.084  37.105  1.00  0.00    -0.388 OA
ATOM     37  H3  UNL     1      14.898  64.590  37.909  1.00  0.00     0.210 HD
ENDBRANCH  31  36
ENDBRANCH  30  31
ENDBRANCH  29  30
ENDBRANCH  22  29
ENDBRANCH   1  20
TORSDOF 11
ENDMDL