MODEL 5
REMARK VINA RESULT: -8.794696798      1.966      3.491
REMARK  12 active torsions:
REMARK  status: ('A' for Active; 'I' for Inactive)
REMARK    1  A    between atoms: N1_3  and  O2_4
REMARK    2  A    between atoms: C2_6  and  C3_7
REMARK    3  A    between atoms: C3_7  and  C4_8
REMARK    4  A    between atoms: C4_8  and  C5_9
REMARK    5  A    between atoms: C5_9  and  C6_10
REMARK    6  A    between atoms: C6_10  and  C7_11
REMARK    7  A    between atoms: C7_11  and  C8_12
REMARK    8  A    between atoms: C8_12  and  C9_13
REMARK    9  A    between atoms: C9_13  and  C10_14
REMARK   10  A    between atoms: C12_18  and  O3_19
REMARK   11  A    between atoms: N3_24  and  S1_25
REMARK   12  A    between atoms: N4_32  and  O7_33
ROOT
HETATM    1  O1  UNL     1       9.809   0.102  32.360  1.00  0.00    -0.242 OA
HETATM    2  C1  UNL     1      10.170  -0.992  32.827  1.00  0.00     0.368 C
HETATM    3  N1  UNL     1      11.229  -1.724  32.152  1.00  0.00    -0.203 N
HETATM    4  C2  UNL     1      11.134  -3.165  32.210  1.00  0.00     0.127 C
HETATM    5  C14 UNL     1      11.108  -3.449  33.713  1.00  0.00     0.051 C
HETATM    6  C15 UNL     1      11.420  -4.856  34.083  1.00  0.00     0.118 C
HETATM    7  N3  UNL     1      11.620  -4.842  35.537  1.00  0.00    -0.191 NA
HETATM    8  C16 UNL     1      10.372  -4.562  36.166  1.00  0.00     0.112 C
HETATM    9  C17 UNL     1       9.856  -3.181  35.837  1.00  0.00     0.044 C
HETATM   10  C18 UNL     1       9.839  -2.964  34.323  1.00  0.00     0.128 C
HETATM   11  N4  UNL     1       9.602  -1.586  34.008  1.00  0.00    -0.203 N
ENDROOT
BRANCH   4  12
HETATM   12  C3  UNL     1       9.990  -3.733  31.516  1.00  0.00     0.028 C
BRANCH  12  13
HETATM   13  C4  UNL     1      10.157  -4.938  30.668  1.00  0.00     0.002 C
BRANCH  13  14
HETATM   14  C5  UNL     1      11.504  -5.479  30.415  1.00  0.00     0.000 C
BRANCH  14  15
HETATM   15  C6  UNL     1      11.465  -6.468  29.231  1.00  0.00     0.000 C
BRANCH  15  16
HETATM   16  C7  UNL     1      12.466  -6.150  28.172  1.00  0.00     0.000 C
BRANCH  16  17
HETATM   17  C8  UNL     1      11.805  -5.487  26.968  1.00  0.00     0.005 C
BRANCH  17  18
HETATM   18  C9  UNL     1      12.335  -4.099  26.724  1.00  0.00     0.040 C
BRANCH  18  19
HETATM   19  C10 UNL     1      11.408  -3.156  27.415  1.00  0.00    -0.039 A
HETATM   20  C11 UNL     1      10.025  -3.247  27.502  1.00  0.00     0.097 A
HETATM   21  N2  UNL     1       9.572  -2.196  28.210  1.00  0.00    -0.347 N
HETATM   22  C12 UNL     1      10.587  -1.417  28.593  1.00  0.00     0.140 A
ATOM     23  H2  UNL     1       8.590  -2.018  28.423  1.00  0.00     0.167 HD
HETATM   24  C13 UNL     1      11.734  -1.991  28.111  1.00  0.00     0.064 A
BRANCH  22  25
HETATM   25  O3  UNL     1      10.477  -0.262  29.330  1.00  0.00    -0.346 OA
ATOM     26  H3  UNL     1      11.174   0.143  29.831  1.00  0.00     0.219 HD
ENDBRANCH  22  25
ENDBRANCH  18  19
ENDBRANCH  17  18
ENDBRANCH  16  17
ENDBRANCH  15  16
ENDBRANCH  14  15
ENDBRANCH  13  14
ENDBRANCH  12  13
ENDBRANCH   4  12
BRANCH   3  27
HETATM   27  O2  UNL     1      12.236  -1.071  31.589  1.00  0.00    -0.283 OA
ATOM     28  H2  UNL     1      12.085  -0.534  30.820  1.00  0.00     0.245 HD
ENDBRANCH   3  27
BRANCH  11  29
HETATM   29  O7  UNL     1       8.840  -0.796  34.796  1.00  0.00    -0.283 OA
ATOM     30  H7  UNL     1       9.092  -0.717  35.709  1.00  0.00     0.245 HD
ENDBRANCH  11  29
BRANCH   7  31
HETATM   31  S1  UNL     1      12.395  -6.242  36.098  1.00  0.00     0.185 S
HETATM   32  O4  UNL     1      11.735  -6.814  37.335  1.00  0.00    -0.582 OA
HETATM   33  O5  UNL     1      13.835  -5.963  36.312  1.00  0.00    -0.582 OA
HETATM   34  O6  UNL     1      12.262  -7.435  34.907  1.00  0.00    -0.582 OA
ENDBRANCH   7  31
TORSDOF 12
ENDMDL