MODEL 5
REMARK VINA RESULT: -7.088945475      1.828      4.172
REMARK  12 active torsions:
REMARK  status: ('A' for Active; 'I' for Inactive)
REMARK    1  A    between atoms: C2_2  and  O1_3
REMARK    2  A    between atoms: O1_3  and  C3_4
REMARK    3  A    between atoms: C3_4  and  C4_6
REMARK    4  A    between atoms: C4_6  and  C5_7
REMARK    5  A    between atoms: C4_6  and  C20_29
REMARK    6  A    between atoms: C5_7  and  C6_8
REMARK    7  A    between atoms: C7_10  and  C8_11
REMARK    8  A    between atoms: C15_18  and  C16_19
REMARK    9  A    between atoms: C18_23  and  O6_24
REMARK   10  A    between atoms: C18_23  and  C19_26
REMARK   11  A    between atoms: C20_29  and  O9_30
REMARK   12  A    between atoms: C20_29  and  C21_32
ROOT
HETATM    1  C6  UNL     1      10.830  -5.149  30.935  1.00  0.00     0.127 C
HETATM    2  O3  UNL     1      10.937  -4.748  29.636  1.00  0.00    -0.379 OA
HETATM    3  C7  UNL     1      11.024  -3.323  29.784  1.00  0.00     0.137 C
HETATM    4  C12 UNL     1      10.107  -2.963  30.906  1.00  0.00     0.067 C
HETATM    5  C13 UNL     1       9.615  -4.331  31.339  1.00  0.00     0.025 C
HETATM    6  C14 UNL     1       9.228  -4.473  32.744  1.00  0.00     0.023 C
HETATM    7  C15 UNL     1      10.326  -3.914  33.651  1.00  0.00     0.090 C
HETATM    8  C17 UNL     1      10.294  -2.431  33.381  1.00  0.00     0.065 C
HETATM    9  C18 UNL     1      10.792  -2.196  31.968  1.00  0.00     0.152 C
ENDROOT
BRANCH   1  10
HETATM   10  C5  UNL     1      10.790  -6.546  31.305  1.00  0.00     0.049 C
BRANCH  10  11
HETATM   11  C4  UNL     1      10.698  -7.646  30.338  1.00  0.00     0.116 C
BRANCH  11  12
HETATM   12  C3  UNL     1      10.406  -8.935  31.114  1.00  0.00     0.265 C
HETATM   13  O2  UNL     1       9.713  -9.790  30.536  1.00  0.00    -0.265 OA
BRANCH  12  14
HETATM   14  O1  UNL     1      10.886  -9.137  32.381  1.00  0.00    -0.321 OA
BRANCH  14  15
HETATM   15  C2  UNL     1      10.090  -9.654  33.439  1.00  0.00     0.174 C
HETATM   16  C1  UNL     1       9.522  -8.457  34.182  1.00  0.00     0.034 C
ENDBRANCH  14  15
ENDBRANCH  12  14
ENDBRANCH  11  12
BRANCH  11  17
HETATM   17  C20 UNL     1      11.877  -7.982  29.502  1.00  0.00     0.131 C
BRANCH  17  18
HETATM   18  O9  UNL     1      12.291  -9.270  29.616  1.00  0.00    -0.395 OA
ATOM     19  H9  UNL     1      12.770  -9.593  28.862  1.00  0.00     0.210 HD
ENDBRANCH  17  18
BRANCH  17  20
HETATM   20  C21 UNL     1      11.693  -7.587  28.044  1.00  0.00     0.028 C
HETATM   21  C22 UNL     1      12.929  -6.811  27.613  1.00  0.00     0.007 C
ENDBRANCH  17  20
ENDBRANCH  11  17
ENDBRANCH  10  11
ENDBRANCH   1  10
BRANCH   3  22
HETATM   22  C8  UNL     1      10.750  -2.733  28.451  1.00  0.00    -0.025 C
HETATM   23  C9  UNL     1      11.514  -1.466  28.174  1.00  0.00     0.017 C
HETATM   24  C10 UNL     1       9.293  -2.475  28.167  1.00  0.00     0.017 C
HETATM   25  C11 UNL     1      11.218  -3.743  27.400  1.00  0.00     0.017 C
ENDBRANCH   3  22
BRANCH   9  26
HETATM   26  O6  UNL     1      12.181  -2.357  32.020  1.00  0.00    -0.378 OA
ATOM     27  H6  UNL     1      12.580  -2.696  31.227  1.00  0.00     0.211 HD
ENDBRANCH   9  26
BRANCH   9  28
HETATM   28  C19 UNL     1      10.578  -0.707  31.792  1.00  0.00     0.209 C
HETATM   29  O7  UNL     1       9.893  -0.238  30.851  1.00  0.00    -0.646 OA
HETATM   30  O8  UNL     1      11.147   0.188  32.685  1.00  0.00    -0.646 OA
ENDBRANCH   9  28
BRANCH   7  31
HETATM   31  C16 UNL     1       9.995  -4.161  35.065  1.00  0.00     0.177 C
HETATM   32  O4  UNL     1      10.250  -5.276  35.566  1.00  0.00    -0.648 OA
HETATM   33  O5  UNL     1       9.412  -3.184  35.839  1.00  0.00    -0.648 OA
ENDBRANCH   7  31
TORSDOF 12
ENDMDL