MODEL 3
REMARK VINA RESULT: -7.634462811      1.703      2.486
REMARK  15 active torsions:
REMARK  status: ('A' for Active; 'I' for Inactive)
REMARK    1  A    between atoms: C6_7  and  C7_8
REMARK    2  A    between atoms: C7_8  and  O2_9
REMARK    3  A    between atoms: C8_12  and  C9_13
REMARK    4  A    between atoms: C10_14  and  C11_15
REMARK    5  A    between atoms: C12_16  and  C13_17
REMARK    6  A    between atoms: C13_17  and  C14_18
REMARK    7  A    between atoms: C14_18  and  C15_19
REMARK    8  A    between atoms: C15_19  and  O4_20
REMARK    9  A    between atoms: C15_19  and  N1_22
REMARK   10  A    between atoms: N1_22  and  C16_24
REMARK   11  A    between atoms: C16_24  and  C17_25
REMARK   12  A    between atoms: C17_25  and  N2_26
REMARK   13  A    between atoms: C19_28  and  O5_29
REMARK   14  A    between atoms: C23_33  and  O6_34
REMARK   15  A    between atoms: O6_34  and  O7_35
ROOT
HETATM    1  C14 UNL     1      12.294  -6.536  28.193  1.00  0.00     0.055 C
ENDROOT
BRANCH   1   2
HETATM    2  C13 UNL     1      11.656  -5.646  27.520  1.00  0.00     0.004 C
BRANCH   2   3
HETATM    3  C12 UNL     1      11.493  -4.253  27.847  1.00  0.00     0.000 C
HETATM    4  C11 UNL     1      10.840  -3.810  28.897  1.00  0.00    -0.000 C
BRANCH   4   5
HETATM    5  C10 UNL     1      10.201  -4.626  29.859  1.00  0.00    -0.001 C
HETATM    6  C9  UNL     1      10.415  -4.650  31.146  1.00  0.00     0.009 C
BRANCH   6   7
HETATM    7  C8  UNL     1      11.365  -3.843  31.929  1.00  0.00     0.176 C
HETATM    8  C2  UNL     1      10.898  -2.482  32.262  1.00  0.00    -0.057 C
HETATM    9  C1  UNL     1      11.774  -1.518  32.238  1.00  0.00     0.017 C
HETATM   10  C3  UNL     1       9.535  -2.094  32.639  1.00  0.00     0.039 C
HETATM   11  C4  UNL     1       8.831  -3.218  33.389  1.00  0.00     0.042 C
HETATM   12  C5  UNL     1       9.699  -3.898  34.368  1.00  0.00     0.190 A
HETATM   13  O1  UNL     1       9.720  -5.364  34.064  1.00  0.00    -0.340 OA
HETATM   14  C6  UNL     1      10.864  -4.575  34.121  1.00  0.00     0.213 A
HETATM   15  O3  UNL     1      11.732  -4.425  33.116  1.00  0.00    -0.337 OA
BRANCH  14  16
HETATM   16  C7  UNL     1      11.670  -5.014  35.389  1.00  0.00     0.235 C
BRANCH  16  17
HETATM   17  O2  UNL     1      12.218  -6.278  35.185  1.00  0.00    -0.395 OA
ATOM     18  H2  UNL     1      12.341  -6.714  36.020  1.00  0.00     0.209 HD
ENDBRANCH  16  17
ENDBRANCH  14  16
ENDBRANCH   6   7
ENDBRANCH   4   5
ENDBRANCH   2   3
ENDBRANCH   1   2
BRANCH   1  19
HETATM   19  C15 UNL     1      12.152  -7.914  28.461  1.00  0.00     0.135 C
BRANCH  19  20
HETATM   20  O4  UNL     1      12.347  -8.682  27.403  1.00  0.00    -0.346 OA
ATOM     21  H4  UNL     1      11.541  -8.990  27.003  1.00  0.00     0.219 HD
ENDBRANCH  19  20
BRANCH  19  22
HETATM   22  N1  UNL     1      11.849  -8.652  29.597  1.00  0.00    -0.369 N
ATOM     23  H1  UNL     1      12.379  -9.506  29.772  1.00  0.00     0.161 HD
BRANCH  22  24
HETATM   24  C16 UNL     1      10.814  -8.273  30.557  1.00  0.00     0.152 C
BRANCH  24  25
HETATM   25  C17 UNL     1      10.140  -9.459  31.170  1.00  0.00     0.295 C
BRANCH  25  26
HETATM   26  N2  UNL     1      11.013 -10.072  32.160  1.00  0.00     0.124 N
HETATM   27  C18 UNL     1      11.199  -9.285  33.333  1.00  0.00     0.307 C
HETATM   28  C19 UNL     1       9.899  -8.864  33.983  1.00  0.00     0.149 C
HETATM   29  C21 UNL     1       8.964 -10.039  34.168  1.00  0.00     0.038 C
HETATM   30  C22 UNL     1       9.049 -11.067  33.089  1.00  0.00     0.070 C
HETATM   31  C23 UNL     1      10.421 -11.322  32.557  1.00  0.00     0.395 C
BRANCH  28  32
HETATM   32  O5  UNL     1      10.176  -8.399  35.269  1.00  0.00    -0.389 OA
HETATM   33  C20 UNL     1      10.713  -9.381  36.095  1.00  0.00     0.202 C
ENDBRANCH  28  32
BRANCH  31  34
HETATM   34  O6  UNL     1      11.212 -12.048  33.437  1.00  0.00    -0.206 OA
BRANCH  34  35
HETATM   35  O7  UNL     1      10.872 -13.325  33.475  1.00  0.00    -0.248 OA
ATOM     36  H7  UNL     1      10.552 -13.584  34.331  1.00  0.00     0.253 HD
ENDBRANCH  34  35
ENDBRANCH  31  34
ENDBRANCH  25  26
ENDBRANCH  24  25
ENDBRANCH  22  24
ENDBRANCH  19  22
ENDBRANCH   1  19
TORSDOF 15
ENDMDL