MODEL 4
REMARK VINA RESULT: -8.071928813      5.644      9.359
REMARK  11 active torsions:
REMARK  status: ('A' for Active; 'I' for Inactive)
REMARK    1  A    between atoms: C2_2  and  C3_3
REMARK    2  A    between atoms: C2_2  and  N1_6
REMARK    3  A    between atoms: C3_3  and  O1_4
REMARK       I    between atoms: N1_6  and  C4_8
REMARK    4  A    between atoms: C4_8  and  C5_10
REMARK    5  A    between atoms: C5_10  and  C6_11
REMARK    6  A    between atoms: C5_10  and  N4_27
REMARK    7  A    between atoms: C6_11  and  N2_12
REMARK    8  A    between atoms: C7_13  and  O3_14
REMARK    9  A    between atoms: N4_27  and  C17_29
REMARK   10  A    between atoms: C17_29  and  C18_30
REMARK   11  A    between atoms: C18_30  and  N5_31
ROOT
HETATM    1  C5  UNL     1      10.447  -0.510  32.799  1.00  0.00     0.188 C
ENDROOT
BRANCH   1   2
HETATM    2  C4  UNL     1      11.513  -0.839  33.811  1.00  0.00     0.242 C
HETATM    3  N1  UNL     1      11.220  -1.762  34.845  1.00  0.00    -0.353 N
ATOM      4  H1  UNL     1      10.303  -2.204  34.910  1.00  0.00     0.163 HD
HETATM    5  O2  UNL     1      12.616  -0.316  33.734  1.00  0.00    -0.271 OA
BRANCH   3   6
HETATM    6  C2  UNL     1      12.280  -2.067  35.824  1.00  0.00     0.104 C
HETATM    7  C1  UNL     1      11.931  -1.404  37.126  1.00  0.00     0.034 C
BRANCH   6   8
HETATM    8  C3  UNL     1      12.310  -3.574  36.004  1.00  0.00     0.189 C
BRANCH   8   9
HETATM    9  O1  UNL     1      13.387  -4.110  35.331  1.00  0.00    -0.399 OA
ATOM     10  H1  UNL     1      13.162  -4.255  34.419  1.00  0.00     0.209 HD
ENDBRANCH   8   9
ENDBRANCH   6   8
ENDBRANCH   3   6
ENDBRANCH   1   2
BRANCH   1  11
HETATM   11  C6  UNL     1       9.592   0.543  33.375  1.00  0.00     0.170 C
BRANCH  11  12
HETATM   12  N2  UNL     1      10.113   1.874  33.118  1.00  0.00    -0.276 N
HETATM   13  C7  UNL     1       9.875   2.583  31.962  1.00  0.00     0.169 A
HETATM   14  C8  UNL     1      10.439   3.842  32.043  1.00  0.00     0.067 A
HETATM   15  N3  UNL     1      11.015   3.927  33.211  1.00  0.00    -0.299 N
HETATM   16  C16 UNL     1      10.361   4.858  30.959  1.00  0.00     0.062 C
HETATM   17  C9  UNL     1      10.810   2.733  33.851  1.00  0.00     0.331 A
HETATM   18  C10 UNL     1      11.741   5.058  33.763  1.00  0.00     0.134 C
HETATM   19  O4  UNL     1      11.229   2.450  35.027  1.00  0.00    -0.246 OA
HETATM   20  C11 UNL     1      12.911   5.515  32.958  1.00  0.00     0.020 C
HETATM   21  C12 UNL     1      12.971   7.027  32.873  1.00  0.00     0.002 C
HETATM   22  C13 UNL     1      11.688   7.683  32.479  1.00  0.00     0.000 C
HETATM   23  C14 UNL     1      11.119   7.160  31.196  1.00  0.00     0.000 C
HETATM   24  C15 UNL     1       9.942   6.221  31.387  1.00  0.00     0.006 C
BRANCH  13  25
HETATM   25  O3  UNL     1       9.143   2.005  30.904  1.00  0.00    -0.344 OA
ATOM     26  H3  UNL     1       8.306   1.587  31.068  1.00  0.00     0.219 HD
ENDBRANCH  13  25
ENDBRANCH  11  12
ENDBRANCH   1  11
BRANCH   1  27
HETATM   27  N4  UNL     1      10.936  -0.406  31.503  1.00  0.00    -0.406 N
ATOM     28  H4  UNL     1      10.896   0.510  31.055  1.00  0.00     0.154 HD
BRANCH  27  29
HETATM   29  C17 UNL     1      11.478  -1.460  30.769  1.00  0.00     0.134 C
BRANCH  29  30
HETATM   30  C18 UNL     1      10.353  -2.272  30.086  1.00  0.00     0.136 C
BRANCH  30  31
HETATM   31  N5  UNL     1      10.272  -1.926  28.724  1.00  0.00    -0.411 N
HETATM   32  C19 UNL     1      11.307  -1.120  28.176  1.00  0.00     0.117 C
HETATM   33  C20 UNL     1      11.790  -1.638  26.826  1.00  0.00     0.019 C
HETATM   34  C21 UNL     1      12.171  -3.087  27.013  1.00  0.00     0.003 C
HETATM   35  C22 UNL     1      10.952  -3.881  27.412  1.00  0.00     0.019 C
HETATM   36  C23 UNL     1       9.817  -2.998  27.862  1.00  0.00     0.117 C
ENDBRANCH  30  31
ENDBRANCH  29  30
ENDBRANCH  27  29
ENDBRANCH   1  27
TORSDOF 11
ENDMDL