MODEL 3
REMARK VINA RESULT: -7.568678686      2.356      3.729
REMARK  12 active torsions:
REMARK  status: ('A' for Active; 'I' for Inactive)
REMARK    1  A    between atoms: C2_2  and  C3_3
REMARK    2  A    between atoms: C3_3  and  C4_4
REMARK    3  A    between atoms: C3_3  and  C6_6
REMARK       I    between atoms: C6_6  and  N1_8
REMARK       I    between atoms: N1_8  and  C7_10
REMARK    4  A    between atoms: C7_10  and  C8_12
REMARK    5  A    between atoms: C10_14  and  O3_15
REMARK    6  A    between atoms: C12_18  and  S1_19
REMARK    7  A    between atoms: S1_19  and  C13_20
REMARK    8  A    between atoms: C15_22  and  O4_23
REMARK    9  A    between atoms: O4_23  and  C16_24
REMARK   10  A    between atoms: C19_27  and  O5_28
REMARK   11  A    between atoms: C20_30  and  C21_31
REMARK   12  A    between atoms: C21_31  and  O6_32
ROOT
HETATM    1  C8  UNL     1       9.878  -5.761  31.824  1.00  0.00     0.094 C
HETATM    2  C9  UNL     1      10.370  -7.157  31.908  1.00  0.00     0.047 C
HETATM    3  C10 UNL     1      10.935  -7.348  33.274  1.00  0.00     0.120 C
HETATM    4  C11 UNL     1      10.514  -6.122  34.065  1.00  0.00     0.048 C
HETATM    5  C12 UNL     1      10.355  -5.038  33.053  1.00  0.00     0.065 C
ENDROOT
BRANCH   5   6
HETATM    6  S1  UNL     1       9.044  -3.846  33.463  1.00  0.00    -0.132 SA
BRANCH   6   7
HETATM    7  C13 UNL     1       9.481  -2.709  34.795  1.00  0.00     0.186 C
HETATM    8  C14 UNL     1       8.940  -1.331  34.615  1.00  0.00     0.077 C
HETATM    9  C15 UNL     1       9.660  -0.556  33.541  1.00  0.00     0.156 C
HETATM   10  C19 UNL     1      11.090  -1.018  33.395  1.00  0.00     0.178 C
HETATM   11  C20 UNL     1      11.582  -1.705  34.644  1.00  0.00     0.177 C
HETATM   12  O7  UNL     1      10.835  -2.783  34.954  1.00  0.00    -0.365 OA
BRANCH   9  13
HETATM   13  O4  UNL     1       9.662   0.784  33.902  1.00  0.00    -0.379 OA
BRANCH  13  14
HETATM   14  C16 UNL     1      10.340   1.578  32.986  1.00  0.00     0.114 C
HETATM   15  C17 UNL     1       9.363   1.970  31.903  1.00  0.00     0.039 C
HETATM   16  C18 UNL     1      10.820   2.875  33.634  1.00  0.00     0.039 C
ENDBRANCH  13  14
ENDBRANCH   9  13
BRANCH  10  17
HETATM   17  O5  UNL     1      11.240  -1.905  32.334  1.00  0.00    -0.390 OA
ATOM     18  H5  UNL     1      11.376  -2.796  32.635  1.00  0.00     0.210 HD
ENDBRANCH  10  17
BRANCH  11  19
HETATM   19  C21 UNL     1      13.002  -2.196  34.324  1.00  0.00     0.198 C
BRANCH  19  20
HETATM   20  O6  UNL     1      13.764  -1.184  33.783  1.00  0.00    -0.398 OA
ATOM     21  H6  UNL     1      13.500  -0.338  34.125  1.00  0.00     0.209 HD
ENDBRANCH  19  20
ENDBRANCH  11  19
ENDBRANCH   6   7
ENDBRANCH   5   6
BRANCH   1  22
HETATM   22  C7  UNL     1      10.396  -5.083  30.582  1.00  0.00     0.229 C
HETATM   23  N1  UNL     1      10.855  -5.947  29.549  1.00  0.00    -0.297 N
HETATM   24  C6  UNL     1      11.380  -5.550  28.307  1.00  0.00     0.228 C
ATOM     25  H1  UNL     1      10.797  -6.949  29.726  1.00  0.00     0.171 HD
HETATM   26  O1  UNL     1      11.784  -6.492  27.527  1.00  0.00    -0.273 OA
HETATM   27  O2  UNL     1      10.417  -3.850  30.471  1.00  0.00    -0.273 OA
BRANCH  24  28
HETATM   28  C3  UNL     1      11.514  -4.174  27.800  1.00  0.00     0.077 C
BRANCH  28  29
HETATM   29  C2  UNL     1      12.437  -4.196  26.564  1.00  0.00     0.009 C
HETATM   30  C1  UNL     1      12.842  -2.797  26.182  1.00  0.00     0.006 C
ENDBRANCH  28  29
BRANCH  28  31
HETATM   31  C4  UNL     1      10.207  -3.626  27.261  1.00  0.00     0.009 C
HETATM   32  C5  UNL     1       9.966  -2.284  27.936  1.00  0.00     0.006 C
ENDBRANCH  28  31
ENDBRANCH  24  28
ENDBRANCH   1  22
BRANCH   3  33
HETATM   33  O3  UNL     1      10.533  -8.532  33.890  1.00  0.00    -0.396 OA
ATOM     34  H3  UNL     1      11.111  -8.818  34.588  1.00  0.00     0.210 HD
ENDBRANCH   3  33
TORSDOF 12
ENDMDL