MODEL 2
REMARK VINA RESULT: -8.217436578      1.490      1.831
REMARK  13 active torsions:
REMARK  status: ('A' for Active; 'I' for Inactive)
REMARK    1  A    between atoms: O1_2  and  C2_3
REMARK    2  A    between atoms: C2_3  and  C3_5
REMARK    3  A    between atoms: C3_5  and  C4_6
REMARK    4  A    between atoms: C4_6  and  C5_7
REMARK    5  A    between atoms: C5_7  and  C6_8
REMARK    6  A    between atoms: C7_9  and  C8_10
REMARK    7  A    between atoms: C8_10  and  C9_11
REMARK    8  A    between atoms: C11_16  and  C12_17
REMARK    9  A    between atoms: C12_17  and  N2_18
REMARK       I    between atoms: N3_21  and  C15_22
REMARK   10  A    between atoms: C18_27  and  N4_28
REMARK   11  A    between atoms: N4_28  and  C19_30
REMARK   12  A    between atoms: C19_30  and  O6_31
REMARK   13  A    between atoms: N5_33  and  O7_35
ROOT
HETATM    1  C9  UNL     1      10.217  -0.393  32.185  1.00  0.00     0.110 C
HETATM    2  C10 UNL     1       9.075  -0.160  33.117  1.00  0.00     0.228 C
HETATM    3  O3  UNL     1       8.098  -0.853  33.452  1.00  0.00    -0.273 OA
HETATM    4  N1  UNL     1       9.348   1.177  33.619  1.00  0.00    -0.330 N
ATOM      5  H1  UNL     1       8.635   1.813  33.978  1.00  0.00     0.168 HD
HETATM    6  C11 UNL     1      10.593   1.455  33.555  1.00  0.00     0.030 C
HETATM    7  C18 UNL     1      11.313   0.271  33.000  1.00  0.00     0.146 C
ENDROOT
BRANCH   1   8
HETATM    8  C8  UNL     1      10.441  -1.801  31.826  1.00  0.00     0.043 C
BRANCH   8   9
HETATM    9  C7  UNL     1      11.079  -1.867  30.460  1.00  0.00    -0.030 C
HETATM   10  C6  UNL     1      10.550  -1.125  29.509  1.00  0.00    -0.031 C
BRANCH  10  11
HETATM   11  C5  UNL     1      11.126  -1.140  28.142  1.00  0.00     0.027 C
BRANCH  11  12
HETATM   12  C4  UNL     1      10.685  -2.371  27.422  1.00  0.00     0.013 C
BRANCH  12  13
HETATM   13  C3  UNL     1      11.863  -3.203  27.039  1.00  0.00     0.111 C
BRANCH  13  14
HETATM   14  C2  UNL     1      11.793  -4.618  27.386  1.00  0.00     0.258 C
HETATM   15  O2  UNL     1      12.201  -5.592  26.730  1.00  0.00    -0.265 OA
BRANCH  14  16
HETATM   16  O1  UNL     1      11.187  -4.950  28.620  1.00  0.00    -0.326 OA
HETATM   17  C1  UNL     1      11.493  -6.161  29.277  1.00  0.00     0.213 C
ENDBRANCH  14  16
ENDBRANCH  13  14
ENDBRANCH  12  13
ENDBRANCH  11  12
ENDBRANCH  10  11
ENDBRANCH   8   9
ENDBRANCH   1   8
BRANCH   7  18
HETATM   18  N4  UNL     1      11.675  -0.539  34.131  1.00  0.00    -0.344 N
ATOM     19  H4  UNL     1      10.985  -0.680  34.869  1.00  0.00     0.163 HD
BRANCH  18  20
HETATM   20  C19 UNL     1      12.954  -1.154  34.267  1.00  0.00     0.237 C
HETATM   21  N5  UNL     1      14.034  -0.506  34.411  1.00  0.00    -0.233 N
ATOM     22  H5  UNL     1      14.900  -1.038  34.500  1.00  0.00     0.198 HD
BRANCH  20  23
HETATM   23  O6  UNL     1      12.993  -2.539  34.236  1.00  0.00    -0.331 OA
ATOM     24  H6  UNL     1      13.425  -2.975  34.961  1.00  0.00     0.221 HD
ENDBRANCH  20  23
BRANCH  21  25
HETATM   25  O7  UNL     1      14.115   0.865  34.455  1.00  0.00    -0.287 OA
ATOM     26  H7  UNL     1      14.397   1.409  33.729  1.00  0.00     0.244 HD
ENDBRANCH  21  25
ENDBRANCH  18  20
ENDBRANCH   7  18
BRANCH   6  27
HETATM   27  C12 UNL     1      11.217   2.753  33.989  1.00  0.00     0.171 C
BRANCH  27  28
HETATM   28  N2  UNL     1      11.691   3.417  32.822  1.00  0.00    -0.404 N
HETATM   29  C13 UNL     1      12.988   3.985  32.938  1.00  0.00     0.137 C
HETATM   30  C14 UNL     1      13.021   5.349  32.267  1.00  0.00     0.148 C
HETATM   31  N3  UNL     1      11.914   6.180  32.666  1.00  0.00    -0.323 N
HETATM   32  C15 UNL     1      12.091   7.537  32.993  1.00  0.00     0.285 C
HETATM   33  C16 UNL     1      10.595   5.598  32.729  1.00  0.00     0.148 C
HETATM   34  O4  UNL     1      11.113   8.235  33.338  1.00  0.00    -0.630 OA
HETATM   35  O5  UNL     1      13.357   8.087  32.928  1.00  0.00    -0.630 OA
HETATM   36  C17 UNL     1      10.706   4.207  32.147  1.00  0.00     0.137 C
ENDBRANCH  27  28
ENDBRANCH   6  27
TORSDOF 13
ENDMDL