MODEL 2
REMARK VINA RESULT: -9.361937100      4.505      9.740
REMARK  13 active torsions:
REMARK  status: ('A' for Active; 'I' for Inactive)
REMARK    1  A    between atoms: C2_2  and  C3_3
REMARK    2  A    between atoms: C3_3  and  C4_4
REMARK    3  A    between atoms: C4_4  and  C5_5
REMARK    4  A    between atoms: C5_5  and  C6_6
REMARK    5  A    between atoms: C6_6  and  C8_8
REMARK    6  A    between atoms: C9_9  and  C10_10
REMARK    7  A    between atoms: C10_10  and  O2_12
REMARK    8  A    between atoms: O2_12  and  C11_13
REMARK    9  A    between atoms: C13_16  and  C14_17
REMARK   10  A    between atoms: C14_17  and  O4_18
REMARK   11  A    between atoms: C15_20  and  C16_21
REMARK   12  A    between atoms: C21_26  and  O5_27
REMARK   13  A    between atoms: C22_29  and  O6_30
ROOT
HETATM    1  C14 UNL     1      10.531  -5.991  34.168  1.00  0.00     0.074 C
HETATM    2  C15 UNL     1      10.329  -7.254  34.159  1.00  0.00     0.035 C
ENDROOT
BRANCH   1   3
HETATM    3  C13 UNL     1      10.736  -5.176  32.962  1.00  0.00     0.209 C
HETATM    4  C11 UNL     1      10.595  -3.684  33.253  1.00  0.00     0.191 C
HETATM    5  C12 UNL     1       9.141  -3.875  32.977  1.00  0.00     0.204 C
HETATM    6  O3  UNL     1       9.496  -5.050  32.274  1.00  0.00    -0.374 OA
BRANCH   4   7
HETATM    7  O2  UNL     1      11.312  -2.848  32.405  1.00  0.00    -0.307 OA
BRANCH   7   8
HETATM    8  C10 UNL     1      10.772  -1.821  31.679  1.00  0.00     0.283 C
HETATM    9  O1  UNL     1      10.376  -0.807  32.298  1.00  0.00    -0.260 OA
BRANCH   8  10
HETATM   10  C9  UNL     1      10.640  -1.865  30.197  1.00  0.00     0.079 C
HETATM   11  C8  UNL     1      10.601  -3.021  29.603  1.00  0.00    -0.012 C
BRANCH  11  12
HETATM   12  C6  UNL     1      10.485  -3.372  28.184  1.00  0.00     0.026 C
HETATM   13  C7  UNL     1       9.414  -2.349  27.628  1.00  0.00     0.018 C
BRANCH  12  14
HETATM   14  C5  UNL     1      11.602  -3.345  27.268  1.00  0.00    -0.023 C
BRANCH  14  15
HETATM   15  C4  UNL     1      12.284  -4.552  26.784  1.00  0.00    -0.030 C
BRANCH  15  16
HETATM   16  C3  UNL     1      11.775  -5.911  26.973  1.00  0.00     0.026 C
BRANCH  16  17
HETATM   17  C2  UNL     1      12.500  -6.532  28.197  1.00  0.00    -0.001 C
HETATM   18  C1  UNL     1      11.504  -6.722  29.315  1.00  0.00     0.005 C
ENDBRANCH  16  17
ENDBRANCH  15  16
ENDBRANCH  14  15
ENDBRANCH  12  14
ENDBRANCH  11  12
ENDBRANCH   8  10
ENDBRANCH   7   8
ENDBRANCH   4   7
ENDBRANCH   1   3
BRANCH   1  19
HETATM   19  O4  UNL     1      10.572  -5.305  35.400  1.00  0.00    -0.362 OA
ATOM     20  H4  UNL     1      10.490  -5.839  36.181  1.00  0.00     0.217 HD
ENDBRANCH   1  19
BRANCH   2  21
HETATM   21  C16 UNL     1      10.274  -8.074  32.976  1.00  0.00     0.016 C
HETATM   22  C17 UNL     1       9.930  -9.347  33.008  1.00  0.00     0.020 C
HETATM   23  C18 UNL     1       9.583  -9.976  34.297  1.00  0.00     0.067 C
HETATM   24  C23 UNL     1       9.877 -10.172  31.817  1.00  0.00     0.306 C
HETATM   25  C19 UNL     1       9.004 -11.337  33.989  1.00  0.00     0.097 C
HETATM   26  C20 UNL     1       8.813 -12.172  35.225  1.00  0.00     0.058 C
HETATM   27  N1  UNL     1       9.911 -12.148  33.201  1.00  0.00    -0.151 NA
HETATM   28  C21 UNL     1       8.896 -13.581  34.678  1.00  0.00     0.165 C
HETATM   29  C22 UNL     1       9.240 -13.433  33.210  1.00  0.00     0.247 C
HETATM   30  O7  UNL     1       9.907 -11.586  31.929  1.00  0.00    -0.218 OA
HETATM   31  O8  UNL     1       9.806  -9.603  30.699  1.00  0.00    -0.258 OA
BRANCH  28  32
HETATM   32  O5  UNL     1       7.675 -14.229  34.860  1.00  0.00    -0.392 OA
ATOM     33  H5  UNL     1       7.694 -14.730  35.666  1.00  0.00     0.210 HD
ENDBRANCH  28  32
BRANCH  29  34
HETATM   34  O6  UNL     1       8.089 -13.344  32.427  1.00  0.00    -0.377 OA
ATOM     35  H6  UNL     1       8.301 -13.131  31.525  1.00  0.00     0.211 HD
ENDBRANCH  29  34
ENDBRANCH   2  21
TORSDOF 13
ENDMDL