MODEL 5
REMARK VINA RESULT: -7.748109461      2.717      4.751
REMARK  13 active torsions:
REMARK  status: ('A' for Active; 'I' for Inactive)
REMARK    1  A    between atoms: N1_1  and  C1_5
REMARK    2  A    between atoms: C1_5  and  C2_6
REMARK    3  A    between atoms: C2_6  and  C3_7
REMARK    4  A    between atoms: C3_7  and  N2_8
REMARK    5  A    between atoms: N2_8  and  C4_10
REMARK    6  A    between atoms: C5_13  and  N4_14
REMARK    7  A    between atoms: N4_14  and  C6_16
REMARK    8  A    between atoms: C6_16  and  C7_17
REMARK    9  A    between atoms: C6_16  and  C8_20
REMARK   10  A    between atoms: C7_17  and  O1_18
REMARK   11  A    between atoms: C8_20  and  C9_21
REMARK   12  A    between atoms: C15_29  and  N6_30
REMARK   13  A    between atoms: N7_33  and  C18_34
ROOT
HETATM    1  C4  UNL     1      10.220  -2.939  31.332  1.00  0.00     0.148 A
HETATM    2  N3  UNL     1      10.385  -3.455  30.064  1.00  0.00    -0.174 N
ATOM      3  H3  UNL     1      10.244  -4.457  29.940  1.00  0.00     0.186 HD
HETATM    4  C5  UNL     1      10.716  -2.739  28.986  1.00  0.00     0.680 A
HETATM    5  N5  UNL     1      10.900  -1.442  29.147  1.00  0.00    -0.200 N
ATOM      6  H5  UNL     1      11.153  -0.881  28.334  1.00  0.00     0.183 HD
HETATM    7  C14 UNL     1      10.767  -0.828  30.334  1.00  0.00     0.139 A
HETATM    8  C15 UNL     1      10.418  -1.589  31.462  1.00  0.00     0.091 A
ENDROOT
BRANCH   4   9
HETATM    9  N4  UNL     1      10.841  -3.307  27.839  1.00  0.00    -0.219 N
ATOM     10  H4  UNL     1      10.058  -3.287  27.186  1.00  0.00     0.178 HD
BRANCH   9  11
HETATM   11  C6  UNL     1      12.119  -4.003  27.437  1.00  0.00     0.123 C
BRANCH  11  12
HETATM   12  C7  UNL     1      12.556  -3.200  26.236  1.00  0.00     0.189 C
BRANCH  12  13
HETATM   13  O1  UNL     1      12.573  -1.872  26.478  1.00  0.00    -0.399 OA
ATOM     14  H1  UNL     1      12.419  -1.356  25.696  1.00  0.00     0.209 HD
ENDBRANCH  12  13
ENDBRANCH  11  12
BRANCH  11  15
HETATM   15  C8  UNL     1      11.642  -5.353  27.053  1.00  0.00     0.032 C
BRANCH  15  16
HETATM   16  C9  UNL     1      11.760  -6.555  27.799  1.00  0.00    -0.013 C
HETATM   17  C10 UNL     1      12.874  -7.522  27.761  1.00  0.00     0.005 C
HETATM   18  C11 UNL     1      12.171  -8.676  28.563  1.00  0.00     0.000 C
HETATM   19  C12 UNL     1      11.526  -7.891  29.717  1.00  0.00     0.000 C
HETATM   20  C13 UNL     1      11.565  -6.428  29.314  1.00  0.00     0.005 C
ENDBRANCH  15  16
ENDBRANCH  11  15
ENDBRANCH   9  11
ENDBRANCH   4   9
BRANCH   1  21
HETATM   21  N2  UNL     1       9.902  -3.670  32.261  1.00  0.00    -0.354 N
ATOM     22  H2  UNL     1      10.426  -3.274  33.041  1.00  0.00     0.166 HD
BRANCH  21  23
HETATM   23  C3  UNL     1       9.257  -4.697  32.839  1.00  0.00     0.064 C
BRANCH  23  24
HETATM   24  C2  UNL     1       9.724  -6.101  32.488  1.00  0.00     0.072 C
BRANCH  24  25
HETATM   25  C1  UNL     1       9.637  -7.020  33.677  1.00  0.00     0.234 C
BRANCH  25  26
HETATM   26  N1  UNL     1       9.356  -6.295  34.885  1.00  0.00    -0.079 N
ATOM     27  H13 UNL     1       8.383  -5.991  34.919  1.00  0.00     0.274 HD
ATOM     28  H12 UNL     1       9.356  -6.912  35.698  1.00  0.00     0.274 HD
ATOM     29  H11 UNL     1       9.997  -5.512  35.011  1.00  0.00     0.274 HD
ENDBRANCH  25  26
ENDBRANCH  24  25
ENDBRANCH  23  24
ENDBRANCH  21  23
ENDBRANCH   1  21
BRANCH   8  30
HETATM   30  N6  UNL     1      10.318  -0.847  32.658  1.00  0.00    -0.374 N
HETATM   31  C16 UNL     1      11.314  -0.885  33.675  1.00  0.00     0.143 C
HETATM   32  C17 UNL     1      10.775  -0.115  34.902  1.00  0.00     0.145 C
HETATM   33  N7  UNL     1      10.407   1.228  34.499  1.00  0.00    -0.358 N
HETATM   34  C21 UNL     1       9.628   1.408  33.304  1.00  0.00     0.145 C
HETATM   35  C22 UNL     1       9.150   0.019  32.845  1.00  0.00     0.143 C
BRANCH  33  36
HETATM   36  C18 UNL     1      10.830   2.338  35.280  1.00  0.00     0.146 A
HETATM   37  N8  UNL     1      10.196   2.999  36.230  1.00  0.00    -0.346 N
HETATM   38  C19 UNL     1      10.752   4.002  36.822  1.00  0.00     0.097 A
ATOM     39  H8  UNL     1       9.254   2.713  36.499  1.00  0.00     0.167 HD
HETATM   40  C20 UNL     1      12.013   4.357  36.434  1.00  0.00     0.070 A
HETATM   41  S1  UNL     1      12.333   3.188  35.207  1.00  0.00    -0.065 SA
ENDBRANCH  33  36
ENDBRANCH   8  30
TORSDOF 13
ENDMDL