MODEL 2
REMARK VINA RESULT: -7.359666715      3.399      5.084
REMARK  13 active torsions:
REMARK  status: ('A' for Active; 'I' for Inactive)
REMARK    1  A    between atoms: O1_2  and  C2_3
REMARK    2  A    between atoms: C4_5  and  N1_6
REMARK       I    between atoms: N1_6  and  C5_8
REMARK    3  A    between atoms: C5_8  and  C6_10
REMARK    4  A    between atoms: C6_10  and  C7_11
REMARK    5  A    between atoms: C7_11  and  C8_12
REMARK    6  A    between atoms: C12_16  and  O3_17
REMARK    7  A    between atoms: C12_16  and  C13_19
REMARK    8  A    between atoms: C13_19  and  O4_20
REMARK    9  A    between atoms: C14_22  and  O5_23
REMARK   10  A    between atoms: C15_25  and  O6_26
REMARK   11  A    between atoms: O6_26  and  C16_27
REMARK   12  A    between atoms: C20_32  and  N2_33
REMARK   13  A    between atoms: N2_33  and  N3_35
ROOT
HETATM    1  C2  UNL     1      10.642  -2.969  33.330  1.00  0.00     0.105 C
HETATM    2  C3  UNL     1      11.693  -4.071  33.341  1.00  0.00     0.051 C
HETATM    3  C4  UNL     1      11.093  -1.953  32.195  1.00  0.00     0.124 C
HETATM    4  C11 UNL     1      12.487  -1.536  32.435  1.00  0.00     0.071 C
HETATM    5  C12 UNL     1      12.568  -0.735  33.713  1.00  0.00     0.109 C
HETATM    6  C14 UNL     1      11.713  -1.179  34.798  1.00  0.00     0.186 C
HETATM    7  C15 UNL     1      10.574  -2.144  34.533  1.00  0.00     0.192 C
ENDROOT
BRANCH   7   8
HETATM    8  O6  UNL     1      10.403  -2.950  35.664  1.00  0.00    -0.348 OA
BRANCH   8   9
HETATM    9  C16 UNL     1       9.356  -2.607  36.479  1.00  0.00     0.288 C
HETATM   10  O7  UNL     1       9.870  -1.665  37.428  1.00  0.00    -0.346 OA
HETATM   11  C17 UNL     1      10.061  -2.677  38.366  1.00  0.00     0.083 C
HETATM   12  C18 UNL     1      11.398  -3.353  38.343  1.00  0.00     0.048 C
HETATM   13  C19 UNL     1       9.663  -2.232  39.737  1.00  0.00     0.048 C
HETATM   14  C20 UNL     1       8.956  -3.438  37.617  1.00  0.00     0.189 C
BRANCH  14  15
HETATM   15  N2  UNL     1       7.679  -3.102  38.200  1.00  0.00    -0.310 N
ATOM     16  H2  UNL     1       7.449  -2.117  38.330  1.00  0.00     0.182 HD
BRANCH  15  17
HETATM   17  N3  UNL     1       6.847  -3.952  38.551  1.00  0.00    -0.253 N
HETATM   18  N4  UNL     1       5.794  -4.597  38.557  1.00  0.00    -0.331 N
ATOM     19  H42 UNL     1       5.335  -4.115  37.783  1.00  0.00     0.178 HD
ATOM     20  H41 UNL     1       5.109  -5.296  38.845  1.00  0.00     0.178 HD
ATOM     21  H3  UNL     1       7.348  -4.401  39.317  1.00  0.00     0.207 HD
ENDBRANCH  15  17
ENDBRANCH  14  15
ENDBRANCH   8   9
ENDBRANCH   7   8
BRANCH   1  22
HETATM   22  O1  UNL     1       9.456  -3.400  32.841  1.00  0.00    -0.381 OA
HETATM   23  C1  UNL     1       8.943  -4.606  33.047  1.00  0.00     0.202 C
ENDBRANCH   1  22
BRANCH   6  24
HETATM   24  O5  UNL     1      12.540  -1.839  35.747  1.00  0.00    -0.390 OA
ATOM     25  H5  UNL     1      12.032  -1.941  36.544  1.00  0.00     0.210 HD
ENDBRANCH   6  24
BRANCH   3  26
HETATM   26  N1  UNL     1      10.788  -2.566  30.961  1.00  0.00    -0.353 N
HETATM   27  C5  UNL     1      10.443  -1.861  29.762  1.00  0.00     0.217 C
HETATM   28  O2  UNL     1      10.391  -0.611  29.733  1.00  0.00    -0.274 OA
ATOM     29  H1  UNL     1      10.816  -3.585  30.920  1.00  0.00     0.163 HD
BRANCH  27  30
HETATM   30  C6  UNL     1      10.145  -2.619  28.548  1.00  0.00     0.103 C
BRANCH  30  31
HETATM   31  C7  UNL     1      10.768  -3.923  28.307  1.00  0.00     0.013 C
BRANCH  31  32
HETATM   32  C8  UNL     1      11.490  -4.219  27.066  1.00  0.00    -0.022 C
HETATM   33  C9  UNL     1      12.280  -5.458  27.010  1.00  0.00     0.009 C
HETATM   34  C10 UNL     1      12.372  -3.042  26.618  1.00  0.00     0.009 C
ENDBRANCH  31  32
ENDBRANCH  30  31
ENDBRANCH  27  30
ENDBRANCH   3  26
BRANCH   5  35
HETATM   35  O3  UNL     1      13.905  -0.598  34.155  1.00  0.00    -0.385 OA
ATOM     36  H3  UNL     1      13.944  -0.348  35.070  1.00  0.00     0.210 HD
ENDBRANCH   5  35
BRANCH   5  37
HETATM   37  C13 UNL     1      12.172   0.706  33.333  1.00  0.00     0.204 C
BRANCH  37  38
HETATM   38  O4  UNL     1      13.264   1.383  32.800  1.00  0.00    -0.398 OA
ATOM     39  H4  UNL     1      13.053   1.725  31.940  1.00  0.00     0.209 HD
ENDBRANCH  37  38
ENDBRANCH   5  37
TORSDOF 13
ENDMDL