MODEL 3
REMARK VINA RESULT: -8.126853128      1.487      1.613
REMARK  13 active torsions:
REMARK  status: ('A' for Active; 'I' for Inactive)
REMARK    1  A    between atoms: C3_3  and  C4_4
REMARK    2  A    between atoms: C4_4  and  C5_5
REMARK    3  A    between atoms: C6_6  and  C7_7
REMARK    4  A    between atoms: C13_15  and  O3_16
REMARK    5  A    between atoms: C14_18  and  O4_19
REMARK    6  A    between atoms: C17_23  and  O5_24
REMARK    7  A    between atoms: C17_23  and  C18_26
REMARK    8  A    between atoms: C18_26  and  S1_27
REMARK    9  A    between atoms: S1_27  and  C19_28
REMARK   10  A    between atoms: C19_28  and  C20_29
REMARK   11  A    between atoms: C20_29  and  C21_30
REMARK   12  A    between atoms: C21_30  and  N1_31
REMARK   13  A    between atoms: C21_30  and  C22_35
ROOT
HETATM    1  C7  UNL     1      10.580  -2.419  30.169  1.00  0.00    -0.057 A
HETATM    2  C8  UNL     1      10.642  -3.194  31.265  1.00  0.00     0.014 A
HETATM    3  C9  UNL     1      11.450  -2.560  32.323  1.00  0.00     0.178 A
HETATM    4  O1  UNL     1      10.597  -2.314  33.398  1.00  0.00    -0.338 OA
HETATM    5  C10 UNL     1      10.773  -0.982  33.756  1.00  0.00     0.227 C
HETATM    6  O2  UNL     1      11.268  -0.309  32.649  1.00  0.00    -0.342 OA
HETATM    7  C11 UNL     1      11.853  -1.243  31.800  1.00  0.00     0.162 A
HETATM    8  C12 UNL     1      11.349  -1.154  30.399  1.00  0.00     0.073 A
HETATM    9  C13 UNL     1       9.451  -0.465  34.224  1.00  0.00     0.213 C
HETATM   10  C14 UNL     1       9.334  -1.165  35.572  1.00  0.00     0.159 C
HETATM   11  C15 UNL     1      10.756  -1.091  36.122  1.00  0.00     0.054 C
HETATM   12  C16 UNL     1      11.003  -2.487  36.734  1.00  0.00     0.016 C
HETATM   13  C17 UNL     1      11.654  -0.900  34.952  1.00  0.00     0.131 C
ENDROOT
BRANCH  13  14
HETATM   14  O5  UNL     1      12.537  -2.034  34.832  1.00  0.00    -0.383 OA
ATOM     15  H5  UNL     1      12.691  -2.314  35.726  1.00  0.00     0.210 HD
ENDBRANCH  13  14
BRANCH  13  16
HETATM   16  C18 UNL     1      12.553   0.284  34.977  1.00  0.00     0.118 C
BRANCH  16  17
HETATM   17  S1  UNL     1      12.044   1.689  35.931  1.00  0.00    -0.166 SA
BRANCH  17  18
HETATM   18  C19 UNL     1      10.757   2.707  35.255  1.00  0.00     0.076 C
BRANCH  18  19
HETATM   19  C20 UNL     1      11.255   3.997  34.643  1.00  0.00     0.051 C
BRANCH  19  20
HETATM   20  C21 UNL     1      11.275   3.869  33.137  1.00  0.00     0.252 C
BRANCH  20  21
HETATM   21  N1  UNL     1      10.651   2.660  32.684  1.00  0.00    -0.068 N
ATOM     22  H13 UNL     1       9.743   2.526  33.129  1.00  0.00     0.275 HD
ATOM     23  H12 UNL     1      10.345   2.745  31.715  1.00  0.00     0.275 HD
ATOM     24  H11 UNL     1      11.248   1.843  32.813  1.00  0.00     0.275 HD
ENDBRANCH  20  21
BRANCH  20  25
HETATM   25  C22 UNL     1      12.683   3.982  32.647  1.00  0.00     0.153 C
HETATM   26  C23 UNL     1      13.087   5.188  31.876  1.00  0.00     0.093 C
HETATM   27  O6  UNL     1      13.490   3.105  32.873  1.00  0.00    -0.296 OA
ENDBRANCH  20  25
ENDBRANCH  19  20
ENDBRANCH  18  19
ENDBRANCH  17  18
ENDBRANCH  16  17
ENDBRANCH  13  16
BRANCH   9  28
HETATM   28  O3  UNL     1       8.484  -1.019  33.351  1.00  0.00    -0.387 OA
ATOM     29  H3  UNL     1       8.771  -0.805  32.471  1.00  0.00     0.210 HD
ENDBRANCH   9  28
BRANCH  10  30
HETATM   30  O4  UNL     1       8.388  -0.633  36.403  1.00  0.00    -0.392 OA
ATOM     31  H4  UNL     1       7.946  -1.269  36.951  1.00  0.00     0.210 HD
ENDBRANCH  10  30
BRANCH   1  32
HETATM   32  C6  UNL     1       9.846  -2.819  28.987  1.00  0.00     0.003 C
HETATM   33  C5  UNL     1      10.224  -3.136  27.805  1.00  0.00    -0.022 C
BRANCH  33  34
HETATM   34  C4  UNL     1      11.586  -3.191  27.269  1.00  0.00     0.054 C
BRANCH  34  35
HETATM   35  C3  UNL     1      11.924  -4.629  26.926  1.00  0.00    -0.027 C
HETATM   36  C2  UNL     1      11.913  -5.586  27.840  1.00  0.00    -0.035 C
HETATM   37  C1  UNL     1      12.238  -7.000  27.538  1.00  0.00     0.036 C
ENDBRANCH  34  35
ENDBRANCH  33  34
ENDBRANCH   1  32
TORSDOF 13
ENDMDL