MODEL 4
REMARK VINA RESULT: -7.264526463      0.780      1.220
REMARK  14 active torsions:
REMARK  status: ('A' for Active; 'I' for Inactive)
REMARK    1  A    between atoms: N1_1  and  C1_4
REMARK    2  A    between atoms: C2_7  and  S1_8
REMARK    3  A    between atoms: S1_8  and  C3_9
REMARK    4  A    between atoms: C3_9  and  C4_10
REMARK    5  A    between atoms: C4_10  and  N3_11
REMARK    6  A    between atoms: N5_16  and  C6_17
REMARK    7  A    between atoms: C6_17  and  O1_18
REMARK    8  A    between atoms: C6_17  and  C7_20
REMARK    9  A    between atoms: C14_27  and  O2_28
REMARK   10  A    between atoms: O2_28  and  C15_29
REMARK   11  A    between atoms: C15_29  and  C16_31
REMARK   12  A    between atoms: C16_31  and  N6_32
REMARK   13  A    between atoms: C16_31  and  C17_36
REMARK   14  A    between atoms: C18_39  and  O6_40
ROOT
HETATM    1  C6  UNL     1     -16.789   8.486   0.034  1.00  0.00     0.155 C
ENDROOT
BRANCH   1   2
HETATM    2  N5  UNL     1     -17.422   9.698  -0.255  1.00  0.00    -0.216 N
HETATM    3  C5  UNL     1     -17.801  10.353  -1.341  1.00  0.00     0.206 A
HETATM    4  N4  UNL     1     -18.176  11.637  -1.070  1.00  0.00    -0.269 N
HETATM    5 CL1  UNL     1     -18.018   9.627  -2.950  1.00  0.00    -0.043 Cl
HETATM    6  N3  UNL     1     -18.041  11.793   0.199  1.00  0.00    -0.239 N
ATOM      7  H4  UNL     1     -18.501  12.335  -1.740  1.00  0.00     0.190 HD
HETATM    8  C21 UNL     1     -17.598  10.678   0.741  1.00  0.00     0.352 A
HETATM    9  O8  UNL     1     -17.343  10.429   1.945  1.00  0.00    -0.244 OA
BRANCH   6  10
HETATM   10  C4  UNL     1     -18.331  13.019   0.948  1.00  0.00     0.165 C
BRANCH  10  11
HETATM   11  C3  UNL     1     -17.647  14.142   0.212  1.00  0.00     0.104 C
BRANCH  11  12
HETATM   12  S1  UNL     1     -16.876  15.246   1.418  1.00  0.00    -0.091 SA
BRANCH  12  13
HETATM   13  C2  UNL     1     -17.562  14.921   3.012  1.00  0.00     0.163 A
HETATM   14  N2  UNL     1     -18.758  15.402   3.358  1.00  0.00    -0.170 N
HETATM   15  C1  UNL     1     -19.210  15.109   4.593  1.00  0.00     0.681 A
ATOM     16  H2  UNL     1     -19.308  15.969   2.713  1.00  0.00     0.186 HD
HETATM   17  N8  UNL     1     -18.509  14.366   5.467  1.00  0.00    -0.141 N
HETATM   18  C22 UNL     1     -17.310  13.890   5.107  1.00  0.00     0.340 A
ATOM     19  H8  UNL     1     -18.886  14.167   6.393  1.00  0.00     0.189 HD
HETATM   20  N7  UNL     1     -16.856  14.180   3.878  1.00  0.00    -0.288 N
HETATM   21  O9  UNL     1     -16.662  13.198   5.928  1.00  0.00    -0.246 OA
ATOM     22  H7  UNL     1     -15.944  13.824   3.593  1.00  0.00     0.172 HD
BRANCH  15  23
HETATM   23  N1  UNL     1     -20.369  15.577   4.922  1.00  0.00    -0.234 N
ATOM     24  H12 UNL     1     -21.154  15.502   4.276  1.00  0.00     0.174 HD
ATOM     25  H11 UNL     1     -20.450  16.013   5.841  1.00  0.00     0.174 HD
ENDBRANCH  15  23
ENDBRANCH  12  13
ENDBRANCH  11  12
ENDBRANCH  10  11
ENDBRANCH   6  10
ENDBRANCH   1   2
BRANCH   1  26
HETATM   26  O1  UNL     1     -17.638   7.732   0.815  1.00  0.00    -0.345 OA
ATOM     27  H1  UNL     1     -17.442   6.814   0.665  1.00  0.00     0.219 HD
ENDBRANCH   1  26
BRANCH   1  28
HETATM   28  C7  UNL     1     -15.614   7.808  -0.194  1.00  0.00     0.089 C
HETATM   29  C8  UNL     1     -14.343   7.963  -0.153  1.00  0.00     0.058 C
HETATM   30  C9  UNL     1     -13.617   9.178   0.254  1.00  0.00     0.065 C
HETATM   31  O7  UNL     1     -13.578   6.801  -0.558  1.00  0.00    -0.313 OA
HETATM   32  C10 UNL     1     -12.442   8.750   1.123  1.00  0.00     0.011 C
HETATM   33  C11 UNL     1     -11.169   8.659   0.304  1.00  0.00     0.042 C
HETATM   34  C12 UNL     1     -11.257   7.580  -0.706  1.00  0.00    -0.020 A
HETATM   35  C13 UNL     1     -10.043   7.416  -1.332  1.00  0.00     0.050 A
HETATM   36  C20 UNL     1     -12.293   6.760  -1.093  1.00  0.00     0.106 A
HETATM   37  C14 UNL     1      -9.830   6.479  -2.313  1.00  0.00     0.114 A
HETATM   38  C18 UNL     1     -10.898   5.671  -2.676  1.00  0.00     0.124 A
HETATM   39  C19 UNL     1     -12.129   5.790  -2.088  1.00  0.00     0.104 A
HETATM   40 CL2  UNL     1     -13.491   4.797  -2.516  1.00  0.00    -0.078 Cl
BRANCH  37  41
HETATM   41  O2  UNL     1      -8.629   6.278  -2.970  1.00  0.00    -0.274 OA
BRANCH  41  42
HETATM   42  C15 UNL     1      -7.518   5.821  -2.280  1.00  0.00     0.305 C
HETATM   43  O3  UNL     1      -6.801   6.667  -1.698  1.00  0.00    -0.262 OA
BRANCH  42  44
HETATM   44  C16 UNL     1      -7.123   4.401  -2.187  1.00  0.00     0.382 C
BRANCH  44  45
HETATM   45  N6  UNL     1      -7.886   3.533  -3.027  1.00  0.00    -0.056 N
ATOM     46  H63 UNL     1      -8.814   3.922  -3.197  1.00  0.00     0.276 HD
ATOM     47  H62 UNL     1      -7.520   3.542  -3.979  1.00  0.00     0.276 HD
ATOM     48  H61 UNL     1      -7.956   2.577  -2.679  1.00  0.00     0.276 HD
ENDBRANCH  44  45
BRANCH  44  49
HETATM   49  C17 UNL     1      -7.143   3.998  -0.759  1.00  0.00     0.214 C
HETATM   50  O4  UNL     1      -8.184   3.877  -0.091  1.00  0.00    -0.646 OA
HETATM   51  O5  UNL     1      -5.919   3.746  -0.154  1.00  0.00    -0.646 OA
ENDBRANCH  44  49
ENDBRANCH  42  44
ENDBRANCH  41  42
ENDBRANCH  37  41
BRANCH  38  52
HETATM   52  O6  UNL     1     -10.722   4.717  -3.661  1.00  0.00    -0.356 OA
ATOM     53  H6  UNL     1     -11.480   4.378  -4.122  1.00  0.00     0.218 HD
ENDBRANCH  38  52
ENDBRANCH   1  28
TORSDOF 14
ENDMDL