MODEL 1
REMARK VINA RESULT: -6.307459233      0.000      0.000
REMARK  11 active torsions:
REMARK  status: ('A' for Active; 'I' for Inactive)
REMARK    1  A    between atoms: N1_1  and  C1_4
REMARK    2  A    between atoms: C2_7  and  N3_8
REMARK    3  A    between atoms: C3_11  and  C4_12
REMARK    4  A    between atoms: C4_12  and  C5_14
REMARK       I    between atoms: C5_14  and  N4_16
REMARK    5  A    between atoms: N4_16  and  C6_18
REMARK    6  A    between atoms: C8_22  and  C9_23
REMARK    7  A    between atoms: C10_26  and  C11_27
REMARK    8  A    between atoms: C11_27  and  S1_28
REMARK    9  A    between atoms: S1_28  and  C12_29
REMARK   10  A    between atoms: N6_34  and  N7_35
REMARK   11  A    between atoms: C16_38  and  O9_39
ROOT
HETATM    1  C6  UNL     1     -16.872   9.581  -5.493  1.00  0.00     0.211 C
HETATM    2  C7  UNL     1     -16.375   8.245  -5.925  1.00  0.00     0.251 C
HETATM    3  O5  UNL     1     -16.986   7.201  -6.313  1.00  0.00    -0.271 OA
HETATM    4  N5  UNL     1     -15.063   8.713  -5.696  1.00  0.00    -0.293 N
HETATM    5  C8  UNL     1     -13.686   8.328  -5.479  1.00  0.00     0.119 C
HETATM    6  C10 UNL     1     -13.036   8.822  -4.440  1.00  0.00    -0.027 C
HETATM    7  C19 UNL     1     -13.759   9.736  -3.462  1.00  0.00     0.113 C
HETATM    8  S2  UNL     1     -14.664  10.973  -4.413  1.00  0.00    -0.136 SA
HETATM    9  C20 UNL     1     -15.478  10.093  -5.731  1.00  0.00     0.187 C
ENDROOT
BRANCH   6  10
HETATM   10  C11 UNL     1     -11.655   8.505  -4.136  1.00  0.00     0.117 C
BRANCH  10  11
HETATM   11  S1  UNL     1     -11.518   7.101  -2.967  1.00  0.00    -0.120 SA
BRANCH  11  12
HETATM   12  C12 UNL     1     -11.641   7.789  -1.326  1.00  0.00     0.069 A
HETATM   13  C13 UNL     1     -10.583   8.496  -0.795  1.00  0.00     0.078 A
HETATM   14  C14 UNL     1     -10.691   9.030   0.492  1.00  0.00     0.052 A
HETATM   15  C18 UNL     1      -9.231   8.879  -1.270  1.00  0.00     0.387 C
HETATM   16  C15 UNL     1     -11.815   8.874   1.244  1.00  0.00     0.277 A
HETATM   17  C17 UNL     1      -9.384   9.709   0.724  1.00  0.00     0.220 C
HETATM   18  O8  UNL     1     -11.911   9.358   2.411  1.00  0.00    -0.265 OA
HETATM   19  N6  UNL     1     -12.850   8.170   0.698  1.00  0.00    -0.202 N
HETATM   20  C16 UNL     1     -12.764   7.647  -0.543  1.00  0.00     0.182 A
HETATM   21  O10 UNL     1      -8.509   8.960  -0.086  1.00  0.00    -0.317 OA
HETATM   22  F1  UNL     1      -8.704   7.929  -2.126  1.00  0.00    -0.170 F
HETATM   23  F2  UNL     1      -9.229  10.132  -1.856  1.00  0.00    -0.170 F
BRANCH  19  24
HETATM   24  N7  UNL     1     -13.984   8.030   1.494  1.00  0.00    -0.334 N
ATOM     25  H72 UNL     1     -14.067   8.464   2.413  1.00  0.00     0.177 HD
ATOM     26  H71 UNL     1     -14.738   7.462   1.107  1.00  0.00     0.177 HD
ENDBRANCH  19  24
BRANCH  20  27
HETATM   27  O9  UNL     1     -13.865   6.948  -1.014  1.00  0.00    -0.344 OA
ATOM     28  H9  UNL     1     -14.573   6.714  -0.426  1.00  0.00     0.219 HD
ENDBRANCH  20  27
ENDBRANCH  11  12
ENDBRANCH  10  11
ENDBRANCH   6  10
BRANCH   5  29
HETATM   29  C9  UNL     1     -13.130   7.389  -6.439  1.00  0.00     0.227 C
HETATM   30  O6  UNL     1     -12.535   7.732  -7.464  1.00  0.00    -0.643 OA
HETATM   31  O7  UNL     1     -13.265   6.011  -6.207  1.00  0.00    -0.643 OA
ENDBRANCH   5  29
BRANCH   1  32
HETATM   32  N4  UNL     1     -17.413   9.676  -4.183  1.00  0.00    -0.338 N
HETATM   33  C5  UNL     1     -18.753   9.386  -3.861  1.00  0.00     0.294 C
HETATM   34  O4  UNL     1     -19.555   9.026  -4.720  1.00  0.00    -0.264 OA
ATOM     35  H4  UNL     1     -16.793   9.973  -3.429  1.00  0.00     0.163 HD
BRANCH  33  36
HETATM   36  C4  UNL     1     -19.218   9.518  -2.457  1.00  0.00     0.260 C
HETATM   37  O3  UNL     1     -19.451  10.626  -1.996  1.00  0.00    -0.281 OA
BRANCH  36  38
HETATM   38  C3  UNL     1     -19.373   8.286  -1.693  1.00  0.00     0.114 A
HETATM   39  C2  UNL     1     -18.527   7.406  -1.090  1.00  0.00     0.197 A
HETATM   40  N2  UNL     1     -19.067   6.368  -0.471  1.00  0.00    -0.317 N
HETATM   41  C1  UNL     1     -20.382   6.223  -0.460  1.00  0.00     0.144 A
ATOM     42  H2  UNL     1     -18.472   5.683  -0.006  1.00  0.00     0.169 HD
HETATM   43  S3  UNL     1     -20.921   7.559  -1.331  1.00  0.00    -0.046 SA
BRANCH  39  44
HETATM   44  N3  UNL     1     -17.087   7.582  -1.113  1.00  0.00    -0.096 N
HETATM   45  O1  UNL     1     -16.494   7.767  -0.010  1.00  0.00    -0.530 OA
HETATM   46  O2  UNL     1     -16.309   7.566  -2.199  1.00  0.00    -0.530 OA
ENDBRANCH  39  44
BRANCH  41  47
HETATM   47  N1  UNL     1     -21.069   5.245   0.112  1.00  0.00    -0.380 N
ATOM     48  H12 UNL     1     -21.613   4.493  -0.310  1.00  0.00     0.158 HD
ATOM     49  H11 UNL     1     -21.174   5.074   1.112  1.00  0.00     0.158 HD
ENDBRANCH  41  47
ENDBRANCH  36  38
ENDBRANCH  33  36
ENDBRANCH   1  32
TORSDOF 11
ENDMDL