MODEL 2
REMARK VINA RESULT: -7.203578710      1.290      1.997
REMARK  9 active torsions:
REMARK  status: ('A' for Active; 'I' for Inactive)
REMARK    1  A    between atoms: C2_2  and  C5_5
REMARK    2  A    between atoms: C5_5  and  C6_7
REMARK    3  A    between atoms: C10_13  and  N1_14
REMARK       I    between atoms: N1_14  and  C11_16
REMARK    4  A    between atoms: C11_16  and  C12_18
REMARK    5  A    between atoms: C13_21  and  C14_22
REMARK    6  A    between atoms: C15_25  and  N4_26
REMARK    7  A    between atoms: C16_30  and  N5_31
REMARK    8  A    between atoms: C20_42  and  O8_43
REMARK    9  A    between atoms: O8_43  and  S3_44
ROOT
HETATM    1  C12 UNL     1     -10.905   7.775  -1.226  1.00  0.00     0.247 C
HETATM    2  O3  UNL     1      -9.657   7.973  -0.639  1.00  0.00    -0.250 OA
HETATM    3  N2  UNL     1      -9.306   9.297  -0.580  1.00  0.00    -0.077 NA
HETATM    4  C13 UNL     1      -9.738   9.930   0.570  1.00  0.00     0.251 C
HETATM    5  C17 UNL     1     -10.465   9.025   1.510  1.00  0.00     0.246 C
HETATM    6  O6  UNL     1     -10.093   9.062   2.691  1.00  0.00    -0.271 OA
HETATM    7  N6  UNL     1     -11.522   8.151   1.140  1.00  0.00    -0.343 N
ATOM      8  H6  UNL     1     -12.109   7.854   1.920  1.00  0.00     0.163 HD
HETATM    9  C18 UNL     1     -11.918   7.608  -0.131  1.00  0.00     0.223 C
HETATM   10  C19 UNL     1     -13.014   8.451  -0.704  1.00  0.00     0.216 C
HETATM   11  O7  UNL     1     -14.221   8.486  -0.520  1.00  0.00    -0.283 OA
HETATM   12  S2  UNL     1     -11.792   9.289  -1.686  1.00  0.00    -0.037 SA
ENDROOT
BRANCH   1  13
HETATM   13  C11 UNL     1     -10.896   6.742  -2.282  1.00  0.00     0.273 C
HETATM   14  N1  UNL     1     -10.787   5.344  -2.076  1.00  0.00    -0.319 N
ATOM     15  H1  UNL     1     -10.700   5.012  -1.116  1.00  0.00     0.169 HD
HETATM   16  O2  UNL     1     -10.995   7.125  -3.475  1.00  0.00    -0.269 OA
BRANCH  14  17
HETATM   17  C10 UNL     1     -10.788   4.390  -3.097  1.00  0.00     0.110 A
HETATM   18  C9  UNL     1     -11.989   3.790  -3.466  1.00  0.00     0.148 A
HETATM   19  C8  UNL     1     -12.033   2.884  -4.489  1.00  0.00     0.088 A
HETATM   20  F2  UNL     1     -13.147   4.080  -2.830  1.00  0.00    -0.203 F
HETATM   21  C7  UNL     1     -10.891   2.532  -5.194  1.00  0.00     0.136 A
HETATM   22  C6  UNL     1      -9.684   3.098  -4.869  1.00  0.00     0.086 A
HETATM   23  F1  UNL     1     -11.009   1.636  -6.214  1.00  0.00    -0.205 F
HETATM   24  C20 UNL     1      -9.678   4.023  -3.808  1.00  0.00     0.138 A
BRANCH  22  25
HETATM   25  C5  UNL     1      -8.446   2.836  -5.539  1.00  0.00     0.173 C
HETATM   26  O1  UNL     1      -7.779   1.795  -5.146  1.00  0.00    -0.291 OA
BRANCH  25  27
HETATM   27  C2  UNL     1      -7.747   3.529  -6.632  1.00  0.00     0.015 C
HETATM   28  C1  UNL     1      -8.640   4.530  -7.334  1.00  0.00     0.023 C
HETATM   29  C3  UNL     1      -7.435   2.493  -7.772  1.00  0.00     0.023 C
HETATM   30  C4  UNL     1      -6.381   4.058  -6.291  1.00  0.00     0.023 C
ENDBRANCH  25  27
ENDBRANCH  22  25
BRANCH  24  31
HETATM   31  O8  UNL     1      -8.484   4.653  -3.373  1.00  0.00    -0.211 OA
BRANCH  31  32
HETATM   32  S3  UNL     1      -7.557   4.072  -2.077  1.00  0.00     0.257 S
HETATM   33  O9  UNL     1      -7.275   2.620  -2.099  1.00  0.00    -0.572 OA
HETATM   34  O10 UNL     1      -6.244   4.843  -2.069  1.00  0.00    -0.572 OA
HETATM   35  O11 UNL     1      -8.244   4.381  -0.571  1.00  0.00    -0.572 OA
ENDBRANCH  31  32
ENDBRANCH  24  31
ENDBRANCH  14  17
ENDBRANCH   1  13
BRANCH   4  36
HETATM   36  C14 UNL     1      -8.778  10.831   1.307  1.00  0.00     0.083 A
HETATM   37  N3  UNL     1      -9.321  11.840   2.002  1.00  0.00    -0.336 N
HETATM   38  C15 UNL     1      -8.547  12.678   2.641  1.00  0.00     0.144 A
ATOM     39  H3  UNL     1     -10.334  11.954   2.032  1.00  0.00     0.168 HD
HETATM   40  S1  UNL     1      -6.996  12.114   2.314  1.00  0.00    -0.028 SA
HETATM   41  C16 UNL     1      -7.429  10.731   1.303  1.00  0.00     0.171 A
BRANCH  38  42
HETATM   42  N4  UNL     1      -8.924  13.718   3.367  1.00  0.00    -0.380 N
ATOM     43  H42 UNL     1      -9.458  13.739   4.236  1.00  0.00     0.158 HD
ATOM     44  H41 UNL     1      -8.737  14.702   3.174  1.00  0.00     0.158 HD
ENDBRANCH  38  42
BRANCH  41  45
HETATM   45  N5  UNL     1      -6.462   9.857   0.749  1.00  0.00    -0.106 N
HETATM   46  O4  UNL     1      -5.610   9.363   1.565  1.00  0.00    -0.531 OA
HETATM   47  O5  UNL     1      -6.316   9.479  -0.505  1.00  0.00    -0.531 OA
ENDBRANCH  41  45
ENDBRANCH   4  36
TORSDOF 9
ENDMDL