MODEL 2
REMARK VINA RESULT: -7.594942125      2.280      3.055
REMARK  12 active torsions:
REMARK  status: ('A' for Active; 'I' for Inactive)
REMARK    1  A    between atoms: C3_3  and  C4_4
REMARK    2  A    between atoms: N1_5  and  N2_7
REMARK    3  A    between atoms: C6_12  and  N4_13
REMARK    4  A    between atoms: N5_16  and  N6_17
REMARK    5  A    between atoms: N8_24  and  C8_25
REMARK    6  A    between atoms: C13_33  and  C14_34
REMARK    7  A    between atoms: C14_34  and  S1_35
REMARK    8  A    between atoms: S1_35  and  C15_36
REMARK       I    between atoms: N10_41  and  C18_42
REMARK    9  A    between atoms: C18_42  and  C19_44
REMARK   10  A    between atoms: C19_44  and  O4_45
REMARK   11  A    between atoms: C19_44  and  C20_47
REMARK   12  A    between atoms: C20_47  and  O5_50
ROOT
HETATM    1  C1  UNL     1     -14.466   6.093  -4.265  1.00  0.00     0.051 C
HETATM    2  C2  UNL     1     -13.479   6.173  -3.163  1.00  0.00    -0.022 A
HETATM    3  C3  UNL     1     -12.228   5.523  -3.360  1.00  0.00     0.062 A
HETATM    4  N8  UNL     1     -11.285   5.551  -2.430  1.00  0.00    -0.298 N
HETATM    5  C9  UNL     1     -11.536   6.224  -1.257  1.00  0.00     0.260 A
HETATM    6  O2  UNL     1     -10.642   6.256  -0.366  1.00  0.00    -0.267 OA
HETATM    7  C10 UNL     1     -12.739   6.856  -1.052  1.00  0.00     0.045 A
HETATM    8  C11 UNL     1     -12.991   7.538   0.135  1.00  0.00     0.042 A
HETATM    9  C12 UNL     1     -14.174   8.187   0.392  1.00  0.00     0.042 A
HETATM   10 CL2  UNL     1     -14.413   9.029   1.925  1.00  0.00    -0.084 Cl
HETATM   11  C13 UNL     1     -15.180   8.176  -0.565  1.00  0.00    -0.026 A
HETATM   12  C23 UNL     1     -14.948   7.506  -1.741  1.00  0.00     0.022 A
HETATM   13  C24 UNL     1     -13.739   6.846  -2.000  1.00  0.00    -0.012 A
ENDROOT
BRANCH   3  14
HETATM   14  C4  UNL     1     -12.051   4.817  -4.604  1.00  0.00     0.138 C
HETATM   15  N1  UNL     1     -12.197   3.565  -4.759  1.00  0.00    -0.295 N
ATOM     16  H1  UNL     1     -12.460   3.005  -3.948  1.00  0.00     0.186 HD
BRANCH  15  17
HETATM   17  N2  UNL     1     -12.018   2.916  -5.978  1.00  0.00    -0.132 N
HETATM   18  C5  UNL     1     -10.924   2.356  -6.342  1.00  0.00     0.715 A
HETATM   19  N3  UNL     1     -10.855   1.740  -7.567  1.00  0.00    -0.019 N
HETATM   20  N7  UNL     1      -9.792   2.314  -5.622  1.00  0.00    -0.137 N
HETATM   21  C6  UNL     1      -9.755   1.141  -8.028  1.00  0.00     0.715 A
ATOM     22  H3  UNL     1     -11.688   1.741  -8.155  1.00  0.00     0.203 HD
HETATM   23  N5  UNL     1      -8.658   1.137  -7.255  1.00  0.00    -0.037 N
HETATM   24  C7  UNL     1      -8.662   1.723  -6.044  1.00  0.00     0.374 A
HETATM   25  O1  UNL     1      -7.609   1.703  -5.337  1.00  0.00    -0.244 OA
ATOM     26  H7  UNL     1      -9.790   2.757  -4.703  1.00  0.00     0.189 HD
ATOM     27  H2  UNL     1     -12.808   2.885  -6.623  1.00  0.00     0.205 HD
BRANCH  21  28
HETATM   28  N4  UNL     1      -9.705   0.569  -9.179  1.00  0.00    -0.232 N
ATOM     29  H42 UNL     1      -8.793   0.381  -9.595  1.00  0.00     0.174 HD
ATOM     30  H41 UNL     1     -10.540   0.293  -9.695  1.00  0.00     0.174 HD
ENDBRANCH  21  28
BRANCH  23  31
HETATM   31  N6  UNL     1      -7.505   0.514  -7.725  1.00  0.00    -0.320 N
ATOM     32  H62 UNL     1      -6.626   0.619  -7.219  1.00  0.00     0.178 HD
ATOM     33  H61 UNL     1      -7.557  -0.042  -8.578  1.00  0.00     0.178 HD
ENDBRANCH  23  31
ENDBRANCH  15  17
ENDBRANCH   3  14
BRANCH   4  34
HETATM   34  C8  UNL     1      -9.990   4.918  -2.565  1.00  0.00     0.247 C
HETATM   35 CL1  UNL     1      -8.841   6.044  -3.313  1.00  0.00    -0.108 Cl
ENDBRANCH   4  34
BRANCH  11  36
HETATM   36  C14 UNL     1     -16.433   8.846  -0.257  1.00  0.00     0.122 C
BRANCH  36  37
HETATM   37  S1  UNL     1     -17.731   8.762  -1.480  1.00  0.00    -0.089 SA
BRANCH  37  38
HETATM   38  C15 UNL     1     -18.972   7.529  -1.154  1.00  0.00     0.149 A
HETATM   39  N9  UNL     1     -18.852   6.328  -0.572  1.00  0.00    -0.340 N
HETATM   40  C16 UNL     1     -20.029   5.698  -0.515  1.00  0.00     0.275 A
ATOM     41  H9  UNL     1     -17.976   5.944  -0.217  1.00  0.00     0.164 HD
HETATM   42  C17 UNL     1     -20.974   6.565  -1.107  1.00  0.00     0.284 A
HETATM   43  O6  UNL     1     -21.381   5.312  -0.606  1.00  0.00    -0.333 OA
HETATM   44  N10 UNL     1     -20.299   7.675  -1.486  1.00  0.00    -0.264 N
HETATM   45  C18 UNL     1     -20.842   8.832  -2.107  1.00  0.00     0.260 C
HETATM   46  O3  UNL     1     -20.091   9.826  -2.356  1.00  0.00    -0.270 OA
BRANCH  45  47
HETATM   47  C19 UNL     1     -22.251   8.972  -2.493  1.00  0.00     0.244 C
BRANCH  47  48
HETATM   48  O4  UNL     1     -22.695  10.308  -2.213  1.00  0.00    -0.383 OA
ATOM     49  H4  UNL     1     -23.267  10.605  -2.910  1.00  0.00     0.210 HD
ENDBRANCH  47  48
BRANCH  47  50
HETATM   50  C20 UNL     1     -22.417   8.868  -4.020  1.00  0.00     0.085 C
HETATM   51  C21 UNL     1     -23.203  10.108  -4.469  1.00  0.00     0.049 C
HETATM   52  C22 UNL     1     -23.210   7.636  -4.378  1.00  0.00     0.049 C
BRANCH  50  53
HETATM   53  O5  UNL     1     -21.189   8.849  -4.628  1.00  0.00    -0.388 OA
ATOM     54  H5  UNL     1     -20.507   9.023  -3.990  1.00  0.00     0.210 HD
ENDBRANCH  50  53
ENDBRANCH  47  50
ENDBRANCH  45  47
ENDBRANCH  37  38
ENDBRANCH  36  37
ENDBRANCH  11  36
TORSDOF 12
ENDMDL