MODEL 1
REMARK VINA RESULT: -6.891399652      0.000      0.000
REMARK  13 active torsions:
REMARK  status: ('A' for Active; 'I' for Inactive)
REMARK    1  A    between atoms: O1_2  and  C2_3
REMARK    2  A    between atoms: C2_3  and  O2_4
REMARK    3  A    between atoms: C2_3  and  C3_6
REMARK    4  A    between atoms: C4_7  and  C5_8
REMARK    5  A    between atoms: C8_17  and  S1_18
REMARK    6  A    between atoms: S1_18  and  C9_19
REMARK    7  A    between atoms: C9_19  and  C10_20
REMARK    8  A    between atoms: C13_24  and  O5_25
REMARK    9  A    between atoms: C14_27  and  C15_28
REMARK   10  A    between atoms: N3_29  and  N4_31
REMARK   11  A    between atoms: C16_36  and  S2_37
REMARK   12  A    between atoms: C19_44  and  O9_45
REMARK   13  A    between atoms: O9_45  and  C20_46
ROOT
HETATM    1  C3  UNL     1     -10.623   6.363  -1.911  1.00  0.00     0.064 C
HETATM    2  C4  UNL     1     -10.667   7.641  -1.649  1.00  0.00     0.121 C
HETATM    3  N1  UNL     1     -11.780   8.639  -1.788  1.00  0.00    -0.374 N
ATOM      4  H1  UNL     1     -11.765   9.387  -1.094  1.00  0.00     0.160 HD
HETATM    5  C6  UNL     1     -12.851   8.725  -2.715  1.00  0.00     0.143 C
HETATM    6  C7  UNL     1     -13.233  10.162  -3.029  1.00  0.00     0.148 C
HETATM    7  N2  UNL     1     -14.586  10.087  -3.421  1.00  0.00    -0.384 N
ATOM      8  H2  UNL     1     -15.067  10.815  -3.948  1.00  0.00     0.160 HD
HETATM    9  C8  UNL     1     -15.140   9.002  -3.039  1.00  0.00     0.082 C
HETATM   10  C16 UNL     1     -14.159   8.149  -2.285  1.00  0.00     0.200 C
HETATM   11  S3  UNL     1     -14.336   6.443  -2.888  1.00  0.00    -0.127 SA
HETATM   12  C17 UNL     1     -13.199   5.346  -1.999  1.00  0.00     0.117 C
HETATM   13  C18 UNL     1     -11.785   5.514  -2.424  1.00  0.00    -0.009 C
HETATM   14  C19 UNL     1     -11.438   4.811  -3.493  1.00  0.00     0.154 C
ENDROOT
BRANCH   9  15
HETATM   15  S1  UNL     1     -16.851   8.603  -3.380  1.00  0.00    -0.108 SA
BRANCH  15  16
HETATM   16  C9  UNL     1     -17.959   9.153  -2.094  1.00  0.00     0.137 C
BRANCH  16  17
HETATM   17  C10 UNL     1     -19.057   8.205  -1.782  1.00  0.00     0.022 A
HETATM   18  C11 UNL     1     -18.847   7.061  -1.046  1.00  0.00     0.071 A
HETATM   19  C12 UNL     1     -19.865   6.182  -0.750  1.00  0.00     0.153 A
HETATM   20  F1  UNL     1     -19.706   5.062  -0.041  1.00  0.00    -0.203 F
HETATM   21  C13 UNL     1     -21.150   6.470  -1.219  1.00  0.00     0.133 A
HETATM   22  C14 UNL     1     -21.338   7.611  -1.948  1.00  0.00     0.086 A
HETATM   23  N5  UNL     1     -20.303   8.438  -2.208  1.00  0.00    -0.355 N
ATOM     24  H5  UNL     1     -20.480   9.280  -2.755  1.00  0.00     0.166 HD
BRANCH  21  25
HETATM   25  O5  UNL     1     -22.197   5.616  -0.946  1.00  0.00    -0.356 OA
ATOM     26  H5  UNL     1     -22.908   5.895  -0.381  1.00  0.00     0.218 HD
ENDBRANCH  21  25
BRANCH  22  27
HETATM   27  C15 UNL     1     -22.666   7.936  -2.449  1.00  0.00     0.140 C
HETATM   28  N3  UNL     1     -23.675   7.952  -1.662  1.00  0.00    -0.299 N
ATOM     29  H3  UNL     1     -23.518   7.731  -0.679  1.00  0.00     0.187 HD
BRANCH  28  30
HETATM   30  N4  UNL     1     -24.968   8.251  -2.060  1.00  0.00    -0.242 N
HETATM   31 CL1  UNL     1     -26.374   7.514  -1.404  1.00  0.00     0.028 Cl
ATOM     32  H4  UNL     1     -25.093   8.954  -2.789  1.00  0.00     0.202 HD
ENDBRANCH  28  30
ENDBRANCH  22  27
ENDBRANCH  16  17
ENDBRANCH  15  16
ENDBRANCH   9  15
BRANCH  10  33
HETATM   33  S2  UNL     1     -14.516   8.326  -0.578  1.00  0.00     0.130 S
HETATM   34  O6  UNL     1     -14.965   9.756  -0.361  1.00  0.00    -0.594 OA
HETATM   35  O7  UNL     1     -15.652   7.380  -0.251  1.00  0.00    -0.594 OA
HETATM   36  O8  UNL     1     -13.225   8.052   0.426  1.00  0.00    -0.594 OA
ENDBRANCH  10  33
BRANCH   2  37
HETATM   37  C5  UNL     1      -9.504   8.267  -1.167  1.00  0.00     0.227 C
HETATM   38  O3  UNL     1      -9.579   8.603   0.124  1.00  0.00    -0.643 OA
HETATM   39  O4  UNL     1      -8.323   8.625  -1.645  1.00  0.00    -0.643 OA
ENDBRANCH   2  37
BRANCH   1  40
HETATM   40  C2  UNL     1      -9.455   5.590  -1.737  1.00  0.00     0.191 C
BRANCH  40  41
HETATM   41  O1  UNL     1      -8.309   5.371  -2.427  1.00  0.00    -0.335 OA
HETATM   42  C1  UNL     1      -7.031   5.219  -1.745  1.00  0.00     0.212 C
ENDBRANCH  40  41
BRANCH  40  43
HETATM   43  O2  UNL     1      -9.389   4.857  -0.638  1.00  0.00    -0.340 OA
ATOM     44  H2  UNL     1     -10.051   5.189  -0.043  1.00  0.00     0.220 HD
ENDBRANCH  40  43
ENDBRANCH   1  40
BRANCH  14  45
HETATM   45  O9  UNL     1     -12.325   3.976  -4.119  1.00  0.00    -0.291 OA
BRANCH  45  46
HETATM   46  C20 UNL     1     -12.616   4.021  -5.439  1.00  0.00     0.259 C
HETATM   47  C21 UNL     1     -12.445   2.763  -6.260  1.00  0.00     0.126 C
HETATM   48  O10 UNL     1     -13.015   5.036  -6.012  1.00  0.00    -0.265 OA
ENDBRANCH  45  46
ENDBRANCH  14  45
TORSDOF 13
ENDMDL