MODEL 2
REMARK VINA RESULT: -8.380696220      1.269      1.586
REMARK  9 active torsions:
REMARK  status: ('A' for Active; 'I' for Inactive)
REMARK    1  A    between atoms: C1_4  and  O1_5
REMARK    2  A    between atoms: C1_4  and  C18_46
REMARK    3  A    between atoms: O1_5  and  C2_6
REMARK    4  A    between atoms: C2_6  and  C3_7
REMARK    5  A    between atoms: C3_7  and  C4_8
REMARK    6  A    between atoms: C4_8  and  C5_9
REMARK       I    between atoms: C5_9  and  N2_11
REMARK    7  A    between atoms: N3_14  and  C8_15
REMARK    8  A    between atoms: C10_19  and  N5_20
REMARK    9  A    between atoms: N6_22  and  C11_24
ROOT
HETATM    1  C8  UNL     1     -12.504   5.226  -2.539  1.00  0.00     0.722 A
HETATM    2  N4  UNL     1     -13.593   5.813  -2.163  1.00  0.00    -0.171 N
ATOM      3  H4  UNL     1     -14.472   5.454  -2.535  1.00  0.00     0.186 HD
HETATM    4  C9  UNL     1     -13.662   6.917  -1.274  1.00  0.00     0.163 A
HETATM    5  C10 UNL     1     -14.708   7.581  -0.832  1.00  0.00     0.072 A
HETATM    6  C15 UNL     1     -14.286   8.652   0.076  1.00  0.00     0.083 A
HETATM    7  C16 UNL     1     -12.795   8.557   0.134  1.00  0.00     0.155 A
HETATM    8  N9  UNL     1     -12.468   7.452  -0.731  1.00  0.00    -0.165 N
HETATM    9  C17 UNL     1     -11.215   6.842  -1.111  1.00  0.00     0.694 A
HETATM   10  N10 UNL     1     -10.114   7.310  -0.631  1.00  0.00    -0.234 N
ATOM     11 1H10 UNL     1      -9.229   6.879  -0.899  1.00  0.00     0.174 HD
ATOM     12 2H10 UNL     1     -10.067   8.099   0.014  1.00  0.00     0.174 HD
HETATM   13  N11 UNL     1     -11.279   5.751  -2.002  1.00  0.00    -0.020 N
ATOM     14  H11 UNL     1     -10.405   5.308  -2.283  1.00  0.00     0.203 HD
ENDROOT
BRANCH   1  15
HETATM   15  N3  UNL     1     -12.508   4.126  -3.432  1.00  0.00    -0.053 N
HETATM   16  C7  UNL     1     -13.562   4.002  -4.392  1.00  0.00     0.201 C
HETATM   17  C6  UNL     1     -12.883   3.679  -5.731  1.00  0.00     0.185 C
HETATM   18  N2  UNL     1     -12.031   2.539  -5.455  1.00  0.00    -0.191 N
HETATM   19  C5  UNL     1     -11.505   1.798  -6.576  1.00  0.00     0.245 C
HETATM   20  O6  UNL     1     -11.748   2.194  -4.196  1.00  0.00    -0.083 OA
HETATM   21  O2  UNL     1     -11.792   2.149  -7.745  1.00  0.00    -0.271 OA
HETATM   22  O5  UNL     1     -11.546   3.205  -3.393  1.00  0.00    -0.071 OA
BRANCH  19  23
HETATM   23  C4  UNL     1     -10.635   0.638  -6.361  1.00  0.00     0.107 C
BRANCH  23  24
HETATM   24  C3  UNL     1      -9.852   0.305  -7.598  1.00  0.00     0.036 C
BRANCH  24  25
HETATM   25  C2  UNL     1      -8.465  -0.146  -7.326  1.00  0.00     0.178 C
BRANCH  25  26
HETATM   26  O1  UNL     1      -7.602   0.993  -7.161  1.00  0.00    -0.335 OA
BRANCH  26  27
HETATM   27  C1  UNL     1      -6.942   1.233  -5.964  1.00  0.00     0.146 C
HETATM   28  N1  UNL     1      -6.021   0.424  -5.625  1.00  0.00    -0.379 N
ATOM     29  H12 UNL     1      -5.748  -0.383  -6.186  1.00  0.00     0.158 HD
ATOM     30  H11 UNL     1      -5.537   0.600  -4.745  1.00  0.00     0.158 HD
BRANCH  27  31
HETATM   31  C18 UNL     1      -7.339   2.402  -5.152  1.00  0.00     0.020 A
HETATM   32  C19 UNL     1      -8.377   3.230  -5.521  1.00  0.00     0.061 A
HETATM   33  C20 UNL     1      -8.715   4.325  -4.719  1.00  0.00     0.153 A
HETATM   34  F1  UNL     1      -9.745   5.126  -5.108  1.00  0.00    -0.203 F
HETATM   35  C21 UNL     1      -8.027   4.595  -3.559  1.00  0.00     0.143 A
HETATM   36  C22 UNL     1      -6.984   3.776  -3.173  1.00  0.00     0.109 A
HETATM   37  O8  UNL     1      -8.191   5.614  -2.625  1.00  0.00    -0.320 OA
HETATM   38  C23 UNL     1      -6.680   2.711  -3.985  1.00  0.00     0.055 A
HETATM   39  O7  UNL     1      -6.503   4.305  -1.983  1.00  0.00    -0.323 OA
HETATM   40  C24 UNL     1      -7.435   5.267  -1.471  1.00  0.00     0.352 C
ENDBRANCH  27  31
ENDBRANCH  26  27
ENDBRANCH  25  26
ENDBRANCH  24  25
ENDBRANCH  23  24
ENDBRANCH  19  23
ENDBRANCH   1  15
BRANCH   5  41
HETATM   41  N5  UNL     1     -16.096   7.345  -1.151  1.00  0.00    -0.299 N
HETATM   42  N6  UNL     1     -17.028   7.888  -0.486  1.00  0.00    -0.284 N
ATOM     43  H6  UNL     1     -16.828   8.510   0.298  1.00  0.00     0.188 HD
ATOM     44  H5  UNL     1     -16.332   6.728  -1.928  1.00  0.00     0.186 HD
BRANCH  42  45
HETATM   45  C11 UNL     1     -18.357   7.597  -0.873  1.00  0.00     0.151 A
HETATM   46  N7  UNL     1     -18.971   6.494  -0.423  1.00  0.00    -0.292 N
HETATM   47  C12 UNL     1     -20.252   6.212  -0.793  1.00  0.00     0.328 A
ATOM     48  H7  UNL     1     -18.474   5.859   0.202  1.00  0.00     0.172 HD
HETATM   49  O3  UNL     1     -20.799   5.165  -0.352  1.00  0.00    -0.247 OA
HETATM   50  N8  UNL     1     -20.881   7.064  -1.617  1.00  0.00    -0.274 N
HETATM   51  C13 UNL     1     -20.306   8.189  -2.098  1.00  0.00     0.275 A
ATOM     52  H8  UNL     1     -21.840   6.853  -1.894  1.00  0.00     0.173 HD
HETATM   53  O4  UNL     1     -20.900   8.976  -2.863  1.00  0.00    -0.266 OA
HETATM   54  C14 UNL     1     -19.006   8.469  -1.718  1.00  0.00     0.147 A
HETATM   55 CL1  UNL     1     -18.173   9.908  -2.289  1.00  0.00    -0.074 Cl
ENDBRANCH  42  45
ENDBRANCH   5  41
TORSDOF 9
ENDMDL