MODEL 1
REMARK VINA RESULT: -7.872303629      0.000      0.000
REMARK  10 active torsions:
REMARK  status: ('A' for Active; 'I' for Inactive)
REMARK    1  A    between atoms: C4_5  and  S1_6
REMARK    2  A    between atoms: C6_12  and  O4_13
REMARK    3  A    between atoms: O4_13  and  C7_14
REMARK    4  A    between atoms: C8_17  and  N3_18
REMARK    5  A    between atoms: N3_18  and  N4_20
REMARK    6  A    between atoms: N4_20  and  C9_22
REMARK    7  A    between atoms: C12_25  and  S2_26
REMARK    8  A    between atoms: S2_26  and  N5_29
REMARK    9  A    between atoms: C17_41  and  S4_42
REMARK   10  A    between atoms: S4_42  and  N8_43
ROOT
HETATM    1  C9  UNL     1     -12.315   5.813  -2.034  1.00  0.00     0.071 A
HETATM    2  C10 UNL     1     -13.163   4.879  -2.589  1.00  0.00     0.034 A
HETATM    3  C11 UNL     1     -12.751   3.920  -3.496  1.00  0.00     0.028 A
HETATM    4  C12 UNL     1     -11.421   3.911  -3.853  1.00  0.00     0.083 A
HETATM    5  C16 UNL     1     -10.566   4.853  -3.293  1.00  0.00     0.053 A
HETATM    6  C17 UNL     1     -10.983   5.807  -2.390  1.00  0.00     0.108 A
ENDROOT
BRANCH   1   7
HETATM    7  N4  UNL     1     -12.807   6.754  -1.121  1.00  0.00    -0.299 N
ATOM      8  H4  UNL     1     -12.790   6.516  -0.129  1.00  0.00     0.187 HD
BRANCH   7   9
HETATM    9  N3  UNL     1     -13.280   7.902  -1.461  1.00  0.00    -0.297 N
ATOM     10  H3  UNL     1     -12.680   8.703  -1.660  1.00  0.00     0.187 HD
BRANCH   9  11
HETATM   11  C8  UNL     1     -14.700   7.975  -1.540  1.00  0.00     0.091 A
HETATM   12  C2  UNL     1     -15.314   8.108  -2.779  1.00  0.00    -0.005 A
HETATM   13  C1  UNL     1     -14.482   8.174  -4.017  1.00  0.00     0.052 C
HETATM   14  C3  UNL     1     -16.690   8.179  -2.863  1.00  0.00     0.081 A
HETATM   15  N1  UNL     1     -17.297   8.318  -4.161  1.00  0.00    -0.100 NA
HETATM   16  C4  UNL     1     -17.469   8.119  -1.726  1.00  0.00     0.132 A
HETATM   17  C5  UNL     1     -16.873   7.986  -0.484  1.00  0.00     0.108 A
HETATM   18  N2  UNL     1     -17.624   7.920   0.710  1.00  0.00    -0.098 NA
HETATM   19  C6  UNL     1     -15.478   7.915  -0.403  1.00  0.00     0.129 A
BRANCH  16  20
HETATM   20  S1  UNL     1     -19.198   8.209  -1.840  1.00  0.00     0.141 S
HETATM   21  O1  UNL     1     -19.864   6.910  -1.521  1.00  0.00    -0.591 OA
HETATM   22  O2  UNL     1     -19.592   8.658  -3.229  1.00  0.00    -0.591 OA
HETATM   23  O3  UNL     1     -19.724   9.416  -0.783  1.00  0.00    -0.591 OA
ENDBRANCH  16  20
BRANCH  19  24
HETATM   24  O4  UNL     1     -14.835   7.782   0.816  1.00  0.00    -0.286 OA
BRANCH  24  25
HETATM   25  C7  UNL     1     -14.287   8.903   1.508  1.00  0.00     0.505 C
HETATM   26  F1  UNL     1     -13.329   8.526   2.417  1.00  0.00    -0.184 F
HETATM   27  F2  UNL     1     -15.297   9.533   2.244  1.00  0.00    -0.184 F
ENDBRANCH  24  25
ENDBRANCH  19  24
ENDBRANCH   9  11
ENDBRANCH   7   9
ENDBRANCH   1   7
BRANCH   6  28
HETATM   28  S4  UNL     1      -9.843   6.968  -1.722  1.00  0.00     0.259 S
HETATM   29  O9  UNL     1      -9.694   8.164  -2.608  1.00  0.00    -0.201 OA
HETATM   30  O10 UNL     1     -10.291   7.448  -0.364  1.00  0.00    -0.201 OA
BRANCH  28  31
HETATM   31  N8  UNL     1      -8.302   6.208  -1.560  1.00  0.00    -0.324 N
ATOM     32  H82 UNL     1      -7.528   6.318  -2.215  1.00  0.00     0.169 HD
ATOM     33  H81 UNL     1      -8.302   5.641  -0.712  1.00  0.00     0.169 HD
ENDBRANCH  28  31
ENDBRANCH   6  28
BRANCH   4  34
HETATM   34  S2  UNL     1     -10.773   2.761  -4.971  1.00  0.00     0.285 S
HETATM   35  O5  UNL     1     -11.329   1.392  -4.642  1.00  0.00    -0.198 OA
HETATM   36  O6  UNL     1      -9.266   2.639  -4.810  1.00  0.00    -0.198 OA
BRANCH  34  37
HETATM   37  N5  UNL     1     -11.148   3.164  -6.601  1.00  0.00    -0.131 N
HETATM   38  N6  UNL     1     -10.170   3.576  -7.402  1.00  0.00    -0.256 N
HETATM   39  C13 UNL     1     -10.409   3.900  -8.680  1.00  0.00     0.194 A
ATOM     40  H6  UNL     1      -9.220   3.647  -7.037  1.00  0.00     0.191 HD
HETATM   41  S3  UNL     1      -9.161   4.407  -9.634  1.00  0.00    -0.039 SA
HETATM   42  N7  UNL     1     -11.640   3.818  -9.191  1.00  0.00    -0.294 N
HETATM   43  C14 UNL     1     -12.664   3.410  -8.434  1.00  0.00     0.318 A
ATOM     44  H7  UNL     1     -11.801   4.068 -10.167  1.00  0.00     0.171 HD
HETATM   45  O7  UNL     1     -13.852   3.314  -8.866  1.00  0.00    -0.262 OA
HETATM   46  C15 UNL     1     -12.384   3.078  -7.103  1.00  0.00     0.344 A
HETATM   47  O8  UNL     1     -13.331   2.690  -6.368  1.00  0.00    -0.259 OA
ENDBRANCH  34  37
ENDBRANCH   4  34
TORSDOF 10
ENDMDL