MODEL 2
REMARK VINA RESULT: -6.840639824      1.450      1.784
REMARK  12 active torsions:
REMARK  status: ('A' for Active; 'I' for Inactive)
REMARK    1  A    between atoms: N1_2  and  C3_4
REMARK    2  A    between atoms: C5_6  and  O1_7
REMARK    3  A    between atoms: O1_7  and  S1_8
REMARK    4  A    between atoms: C7_12  and  O4_13
REMARK    5  A    between atoms: O4_13  and  C8_14
REMARK    6  A    between atoms: C8_14  and  C9_15
REMARK    7  A    between atoms: C9_15  and  N2_16
REMARK    8  A    between atoms: C10_17  and  C11_18
REMARK    9  A    between atoms: N4_27  and  O8_29
REMARK   10  A    between atoms: C17_32  and  O9_33
REMARK   11  A    between atoms: C20_38  and  O10_39
REMARK   12  A    between atoms: C23_46  and  O11_47
ROOT
HETATM    1  C3  UNL     1      -7.964   5.249  -2.421  1.00  0.00     0.046 A
HETATM    2  C4  UNL     1      -8.267   6.339  -1.600  1.00  0.00     0.071 A
HETATM    3  C5  UNL     1      -9.507   6.894  -1.569  1.00  0.00     0.125 A
HETATM    4  C7  UNL     1     -10.497   6.372  -2.370  1.00  0.00     0.117 A
HETATM    5  C16 UNL     1     -10.246   5.298  -3.187  1.00  0.00     0.050 A
HETATM    6  C17 UNL     1     -11.295   4.779  -3.946  1.00  0.00     0.094 A
HETATM    7  C18 UNL     1     -10.996   3.662  -4.764  1.00  0.00     0.052 A
HETATM    8  C19 UNL     1     -12.058   3.146  -5.519  1.00  0.00     0.085 A
HETATM    9 CL1  UNL     1     -13.631   3.854  -5.448  1.00  0.00    -0.080 Cl
HETATM   10  C20 UNL     1     -11.779   2.046  -6.316  1.00  0.00     0.127 A
HETATM   11  C21 UNL     1     -10.502   1.524  -6.329  1.00  0.00     0.139 A
HETATM   12 CL2  UNL     1     -10.228   0.126  -7.360  1.00  0.00    -0.061 Cl
HETATM   13  N5  UNL     1      -9.512   2.065  -5.579  1.00  0.00    -0.341 N
ATOM     14  H5  UNL     1      -8.574   1.665  -5.604  1.00  0.00     0.167 HD
HETATM   15  C22 UNL     1      -9.777   3.143  -4.793  1.00  0.00     0.082 A
HETATM   16  C23 UNL     1      -8.705   3.654  -4.021  1.00  0.00     0.106 A
HETATM   17  C24 UNL     1      -8.946   4.730  -3.212  1.00  0.00     0.042 A
ENDROOT
BRANCH   4  18
HETATM   18  O4  UNL     1     -11.714   7.001  -2.302  1.00  0.00    -0.346 OA
BRANCH  18  19
HETATM   19  C8  UNL     1     -12.063   8.070  -3.121  1.00  0.00     0.196 C
BRANCH  19  20
HETATM   20  C9  UNL     1     -12.712   9.275  -2.574  1.00  0.00     0.158 C
BRANCH  20  21
HETATM   21  N2  UNL     1     -13.814   8.806  -1.714  1.00  0.00    -0.322 N
HETATM   22  C10 UNL     1     -15.061   8.455  -2.295  1.00  0.00     0.105 A
HETATM   23  C12 UNL     1     -16.087   8.140  -1.471  1.00  0.00     0.094 A
HETATM   24  C13 UNL     1     -15.946   8.150  -0.029  1.00  0.00     0.228 A
HETATM   25  O6  UNL     1     -16.921   7.853   0.687  1.00  0.00    -0.284 OA
HETATM   26  C14 UNL     1     -14.678   8.503   0.576  1.00  0.00     0.267 A
HETATM   27  O7  UNL     1     -14.562   8.508   1.809  1.00  0.00    -0.280 OA
HETATM   28  C15 UNL     1     -13.565   8.845  -0.302  1.00  0.00     0.183 A
HETATM   29  N4  UNL     1     -12.414   9.161   0.166  1.00  0.00    -0.249 N
ATOM     30  H4  UNL     1     -11.643   9.394  -0.459  1.00  0.00     0.196 HD
BRANCH  22  31
HETATM   31  C11 UNL     1     -15.298   8.318  -3.713  1.00  0.00     0.281 C
HETATM   32  N3  UNL     1     -15.137   6.994  -4.291  1.00  0.00    -0.056 NA
HETATM   33  O5  UNL     1     -15.631   9.216  -4.526  1.00  0.00    -0.269 OA
ENDBRANCH  22  31
BRANCH  29  34
HETATM   34  O8  UNL     1     -12.243   9.181   1.533  1.00  0.00    -0.288 OA
ATOM     35  H8  UNL     1     -11.385   8.973   1.886  1.00  0.00     0.244 HD
ENDBRANCH  29  34
ENDBRANCH  20  21
ENDBRANCH  19  20
ENDBRANCH  18  19
ENDBRANCH   4  18
BRANCH   3  36
HETATM   36  O1  UNL     1      -9.746   7.953  -0.734  1.00  0.00    -0.230 OA
BRANCH  36  37
HETATM   37  S1  UNL     1      -9.068   9.498  -0.998  1.00  0.00     0.266 S
HETATM   38  C6  UNL     1      -8.848   9.821  -2.718  1.00  0.00     0.194 C
HETATM   39  O2  UNL     1      -7.738   9.629  -0.307  1.00  0.00    -0.199 OA
HETATM   40  O3  UNL     1      -9.985  10.526  -0.415  1.00  0.00    -0.199 OA
ENDBRANCH  36  37
ENDBRANCH   3  36
BRANCH   6  41
HETATM   41  O9  UNL     1     -12.553   5.225  -3.960  1.00  0.00    -0.359 OA
ATOM     42  H9  UNL     1     -12.826   6.135  -3.970  1.00  0.00     0.217 HD
ENDBRANCH   6  41
BRANCH   1  43
HETATM   43  N1  UNL     1      -6.675   4.728  -2.288  1.00  0.00    -0.389 N
HETATM   44  C1  UNL     1      -6.374   3.771  -1.239  1.00  0.00     0.149 C
HETATM   45  C2  UNL     1      -5.612   5.173  -3.148  1.00  0.00     0.149 C
ENDBRANCH   1  43
BRANCH  16  46
HETATM   46  O11 UNL     1      -7.541   3.050  -4.145  1.00  0.00    -0.357 OA
ATOM     47  H11 UNL     1      -6.802   3.591  -4.397  1.00  0.00     0.217 HD
ENDBRANCH  16  46
BRANCH  10  48
HETATM   48  O10 UNL     1     -12.806   1.515  -7.071  1.00  0.00    -0.356 OA
ATOM     49  H10 UNL     1     -13.058   0.614  -6.910  1.00  0.00     0.218 HD
ENDBRANCH  10  48
TORSDOF 12
ENDMDL