MODEL 4
REMARK VINA RESULT: -6.575353800      2.030      3.289
REMARK  12 active torsions:
REMARK  status: ('A' for Active; 'I' for Inactive)
REMARK    1  A    between atoms: O1_2  and  C2_3
REMARK    2  A    between atoms: C2_3  and  C3_5
REMARK    3  A    between atoms: C4_8  and  C5_9
REMARK    4  A    between atoms: C8_13  and  S1_14
REMARK    5  A    between atoms: S1_14  and  N2_15
REMARK    6  A    between atoms: C10_21  and  O5_22
REMARK    7  A    between atoms: O5_22  and  S2_23
REMARK    8  A    between atoms: S2_23  and  N3_24
REMARK    9  A    between atoms: C11_31  and  C12_32
REMARK   10  A    between atoms: C13_33  and  C14_34
REMARK   11  A    between atoms: C15_37  and  N6_38
REMARK   12  A    between atoms: C17_48  and  N10_49
ROOT
HETATM    1  C3  UNL     1      -9.436   5.306  -1.776  1.00  0.00     0.138 A
HETATM    2  N1  UNL     1     -10.197   6.026  -0.887  1.00  0.00    -0.335 N
ATOM      3  H1  UNL     1      -9.888   6.327   0.037  1.00  0.00     0.168 HD
HETATM    4  C4  UNL     1     -11.379   6.270  -1.401  1.00  0.00     0.119 A
HETATM    5  N4  UNL     1     -11.374   5.703  -2.626  1.00  0.00    -0.339 N
ATOM      6  H4  UNL     1     -12.162   5.725  -3.273  1.00  0.00     0.167 HD
HETATM    7  C11 UNL     1     -10.203   5.107  -2.884  1.00  0.00     0.082 A
ENDROOT
BRANCH   7   8
HETATM    8  C12 UNL     1      -9.849   4.385  -4.149  1.00  0.00     0.056 A
HETATM    9  C13 UNL     1      -9.000   4.945  -5.057  1.00  0.00     0.067 A
HETATM   10  S3  UNL     1      -8.922   3.775  -6.294  1.00  0.00    -0.058 SA
HETATM   11  C17 UNL     1      -9.967   2.605  -5.633  1.00  0.00     0.183 A
HETATM   12  C18 UNL     1     -10.353   3.166  -4.450  1.00  0.00     0.170 A
HETATM   13  F2  UNL     1     -11.231   2.467  -3.626  1.00  0.00    -0.202 F
BRANCH   9  14
HETATM   14  C14 UNL     1      -8.275   6.222  -5.056  1.00  0.00     0.141 A
HETATM   15  N5  UNL     1      -8.799   7.359  -5.474  1.00  0.00    -0.175 N
HETATM   16  C15 UNL     1      -8.105   8.508  -5.455  1.00  0.00     0.679 A
ATOM     17  H5  UNL     1      -9.758   7.364  -5.821  1.00  0.00     0.186 HD
HETATM   18  N7  UNL     1      -6.840   8.529  -5.004  1.00  0.00    -0.164 N
HETATM   19  C16 UNL     1      -6.272   7.389  -4.569  1.00  0.00     0.208 A
ATOM     20  H7  UNL     1      -6.314   9.402  -4.991  1.00  0.00     0.187 HD
HETATM   21  N8  UNL     1      -4.943   7.330  -4.079  1.00  0.00    -0.063 NA
HETATM   22  N9  UNL     1      -6.999   6.267  -4.605  1.00  0.00    -0.315 N
ATOM     23  H9  UNL     1      -6.570   5.402  -4.277  1.00  0.00     0.170 HD
BRANCH  16  24
HETATM   24  N6  UNL     1      -8.639   9.597  -5.868  1.00  0.00    -0.234 N
ATOM     25  H62 UNL     1      -9.642   9.621  -6.049  1.00  0.00     0.174 HD
ATOM     26  H61 UNL     1      -8.068  10.430  -6.013  1.00  0.00     0.174 HD
ENDBRANCH  16  24
ENDBRANCH   9  14
BRANCH  11  27
HETATM   27  N10 UNL     1     -10.350   1.329  -6.193  1.00  0.00    -0.105 N
HETATM   28  O8  UNL     1     -11.572   1.123  -6.325  1.00  0.00    -0.531 OA
HETATM   29  O9  UNL     1      -9.389   0.441  -6.536  1.00  0.00    -0.531 OA
ENDBRANCH  11  27
ENDBRANCH   7   8
BRANCH   1  30
HETATM   30  C2  UNL     1      -8.077   4.860  -1.558  1.00  0.00     0.312 C
HETATM   31  O2  UNL     1      -7.146   5.688  -1.515  1.00  0.00    -0.258 OA
BRANCH  30  32
HETATM   32  O1  UNL     1      -7.820   3.517  -1.399  1.00  0.00    -0.321 OA
HETATM   33  C1  UNL     1      -6.832   2.911  -2.233  1.00  0.00     0.213 C
ENDBRANCH  30  32
ENDBRANCH   1  30
BRANCH   4  34
HETATM   34  C5  UNL     1     -12.546   6.970  -0.862  1.00  0.00     0.046 A
HETATM   35  C6  UNL     1     -13.795   6.742  -1.459  1.00  0.00     0.062 A
HETATM   36  C7  UNL     1     -14.928   7.365  -1.034  1.00  0.00     0.140 A
HETATM   37  F1  UNL     1     -16.091   7.061  -1.696  1.00  0.00    -0.204 F
HETATM   38  C8  UNL     1     -14.888   8.244   0.001  1.00  0.00     0.120 A
HETATM   39  C9  UNL     1     -13.678   8.487   0.607  1.00  0.00     0.067 A
HETATM   40  C10 UNL     1     -12.507   7.848   0.176  1.00  0.00     0.106 A
BRANCH  38  41
HETATM   41  S1  UNL     1     -16.370   9.022   0.512  1.00  0.00     0.259 S
HETATM   42  O3  UNL     1     -16.675  10.105  -0.486  1.00  0.00    -0.201 OA
HETATM   43  O4  UNL     1     -17.477   8.025   0.622  1.00  0.00    -0.201 OA
BRANCH  41  44
HETATM   44  N2  UNL     1     -16.099   9.708   2.086  1.00  0.00    -0.324 N
ATOM     45  H22 UNL     1     -15.315  10.310   2.339  1.00  0.00     0.169 HD
ATOM     46  H21 UNL     1     -16.856   9.402   2.697  1.00  0.00     0.169 HD
ENDBRANCH  41  44
ENDBRANCH  38  41
BRANCH  40  47
HETATM   47  O5  UNL     1     -11.315   8.134   0.835  1.00  0.00    -0.216 OA
BRANCH  47  48
HETATM   48  S2  UNL     1     -10.450   9.564   0.433  1.00  0.00     0.360 S
HETATM   49  O6  UNL     1     -10.538  10.494   1.590  1.00  0.00    -0.176 OA
HETATM   50  O7  UNL     1     -10.941  10.193  -0.811  1.00  0.00    -0.176 OA
BRANCH  48  51
HETATM   51  N3  UNL     1      -8.777   9.140   0.231  1.00  0.00    -0.305 N
ATOM     52  H32 UNL     1      -8.190   8.705   0.943  1.00  0.00     0.171 HD
ATOM     53  H31 UNL     1      -8.498   9.402  -0.715  1.00  0.00     0.171 HD
ENDBRANCH  48  51
ENDBRANCH  47  48
ENDBRANCH  40  47
ENDBRANCH   4  34
TORSDOF 12
ENDMDL