MODEL 5
REMARK VINA RESULT: -6.748492164      3.476      6.185
REMARK  15 active torsions:
REMARK  status: ('A' for Active; 'I' for Inactive)
REMARK    1  A    between atoms: C2_2  and  O2_4
REMARK    2  A    between atoms: O2_4  and  C3_5
REMARK    3  A    between atoms: C4_6  and  O3_7
REMARK    4  A    between atoms: O3_7  and  C5_8
REMARK    5  A    between atoms: C5_8  and  C6_10
REMARK    6  A    between atoms: C7_11  and  O5_12
REMARK    7  A    between atoms: C7_11  and  C8_14
REMARK    8  A    between atoms: C9_17  and  N1_18
REMARK       I    between atoms: N1_18  and  C10_20
REMARK    9  A    between atoms: C10_20  and  O8_22
REMARK   10  A    between atoms: O8_22  and  C11_23
REMARK   11  A    between atoms: C15_27  and  N2_28
REMARK   12  A    between atoms: N2_28  and  C16_30
REMARK   13  A    between atoms: C21_43  and  N6_44
REMARK   14  A    between atoms: C22_49  and  O10_50
REMARK   15  A    between atoms: O10_50  and  C23_51
ROOT
HETATM    1  C3  UNL     1     -13.069   7.128  -2.188  1.00  0.00     0.219 C
HETATM    2  C4  UNL     1     -13.587   7.947  -1.020  1.00  0.00     0.304 C
HETATM    3  O6  UNL     1     -12.902   7.502   0.095  1.00  0.00    -0.331 OA
HETATM    4  C9  UNL     1     -11.525   7.696   0.043  1.00  0.00     0.254 C
HETATM    5  C15 UNL     1     -10.858   7.083  -1.154  1.00  0.00     0.180 C
HETATM    6  C22 UNL     1     -11.631   7.480  -2.389  1.00  0.00     0.193 C
ENDROOT
BRANCH   5   7
HETATM    7  N2  UNL     1     -10.674   5.666  -1.090  1.00  0.00    -0.214 N
ATOM      8  H2  UNL     1     -11.431   5.126  -0.671  1.00  0.00     0.178 HD
BRANCH   7   9
HETATM    9  C16 UNL     1      -9.552   4.934  -1.547  1.00  0.00     0.681 A
HETATM   10  N3  UNL     1      -9.504   4.470  -2.815  1.00  0.00    -0.184 N
HETATM   11  C17 UNL     1      -8.475   3.795  -3.313  1.00  0.00     0.147 A
ATOM     12  H3  UNL     1     -10.302   4.648  -3.424  1.00  0.00     0.184 HD
HETATM   13  C18 UNL     1      -8.427   3.323  -4.604  1.00  0.00     0.277 A
HETATM   14  C20 UNL     1      -7.409   3.567  -2.469  1.00  0.00     0.112 A
HETATM   15  O9  UNL     1      -9.415   3.533  -5.389  1.00  0.00    -0.266 OA
HETATM   16  N4  UNL     1      -7.340   2.644  -5.030  1.00  0.00    -0.298 N
HETATM   17  C19 UNL     1      -6.294   2.422  -4.199  1.00  0.00     0.182 A
ATOM     18  H4  UNL     1      -7.306   2.295  -5.989  1.00  0.00     0.171 HD
HETATM   19 CL1  UNL     1      -4.895   1.535  -4.786  1.00  0.00    -0.045 Cl
HETATM   20  N5  UNL     1      -6.344   2.884  -2.937  1.00  0.00    -0.327 N
ATOM     21  H5  UNL     1      -5.554   2.714  -2.316  1.00  0.00     0.168 HD
HETATM   22  C21 UNL     1      -7.451   4.037  -1.176  1.00  0.00     0.144 A
HETATM   23  N7  UNL     1      -8.524   4.719  -0.720  1.00  0.00    -0.175 N
ATOM     24  H7  UNL     1      -8.550   5.064   0.240  1.00  0.00     0.186 HD
BRANCH  22  25
HETATM   25  N6  UNL     1      -6.454   3.826  -0.382  1.00  0.00    -0.383 N
ATOM     26  H62 UNL     1      -5.537   3.619  -0.779  1.00  0.00     0.157 HD
ATOM     27  H61 UNL     1      -6.591   3.868   0.628  1.00  0.00     0.157 HD
ENDBRANCH  22  25
ENDBRANCH   7   9
ENDBRANCH   5   7
BRANCH   4  28
HETATM   28  N1  UNL     1     -11.148   9.068   0.172  1.00  0.00    -0.308 N
HETATM   29  C10 UNL     1     -10.478   9.570   1.320  1.00  0.00     0.363 C
HETATM   30  O7  UNL     1     -10.193   8.799   2.272  1.00  0.00    -0.238 OA
ATOM     31  H1  UNL     1     -11.369   9.711  -0.588  1.00  0.00     0.167 HD
BRANCH  29  32
HETATM   32  O8  UNL     1     -10.117  10.903   1.436  1.00  0.00    -0.294 OA
BRANCH  32  33
HETATM   33  C11 UNL     1      -8.862  11.338   0.922  1.00  0.00     0.061 C
HETATM   34  C12 UNL     1      -7.909  10.173   0.807  1.00  0.00     0.046 C
HETATM   35  C13 UNL     1      -8.257  12.330   1.915  1.00  0.00     0.046 C
HETATM   36  C14 UNL     1      -8.985  11.966  -0.437  1.00  0.00     0.046 C
ENDBRANCH  32  33
ENDBRANCH  29  32
ENDBRANCH   4  28
BRANCH   6  37
HETATM   37  O10 UNL     1     -11.083   6.936  -3.563  1.00  0.00    -0.311 OA
BRANCH  37  38
HETATM   38  C23 UNL     1     -10.105   7.620  -4.269  1.00  0.00     0.255 C
HETATM   39  C24 UNL     1     -10.470   8.907  -4.906  1.00  0.00     0.126 C
HETATM   40  O11 UNL     1      -8.933   7.142  -4.356  1.00  0.00    -0.266 OA
ENDBRANCH  37  38
ENDBRANCH   6  37
BRANCH   1  41
HETATM   41  O2  UNL     1     -13.760   7.455  -3.389  1.00  0.00    -0.308 OA
BRANCH  41  42
HETATM   42  C2  UNL     1     -14.421   6.503  -4.142  1.00  0.00     0.255 C
HETATM   43  C1  UNL     1     -13.860   5.151  -4.423  1.00  0.00     0.126 C
HETATM   44  O1  UNL     1     -15.551   6.768  -4.623  1.00  0.00    -0.266 OA
ENDBRANCH  41  42
ENDBRANCH   1  41
BRANCH   2  45
HETATM   45  O3  UNL     1     -14.946   7.566  -0.839  1.00  0.00    -0.283 OA
BRANCH  45  46
HETATM   46  C5  UNL     1     -15.993   8.403  -0.711  1.00  0.00     0.288 C
HETATM   47  O4  UNL     1     -15.842   9.328   0.183  1.00  0.00    -0.260 OA
BRANCH  46  48
HETATM   48  C6  UNL     1     -17.195   8.312  -1.482  1.00  0.00     0.120 C
HETATM   49  C7  UNL     1     -18.295   7.661  -1.325  1.00  0.00     0.098 C
BRANCH  49  50
HETATM   50  O5  UNL     1     -19.257   7.882  -2.387  1.00  0.00    -0.358 OA
ATOM     51  H5  UNL     1     -19.889   8.564  -2.192  1.00  0.00     0.217 HD
ENDBRANCH  49  50
BRANCH  49  52
HETATM   52  C8  UNL     1     -18.810   6.746  -0.325  1.00  0.00     0.224 C
HETATM   53  F1  UNL     1     -19.454   5.632  -0.676  1.00  0.00    -0.216 F
ENDBRANCH  49  52
ENDBRANCH  46  48
ENDBRANCH  45  46
ENDBRANCH   2  45
TORSDOF 15
ENDMDL