MODEL 5
REMARK VINA RESULT: -6.044256184      3.741      8.248
REMARK  11 active torsions:
REMARK  status: ('A' for Active; 'I' for Inactive)
REMARK    1  A    between atoms: O1_2  and  C2_3
REMARK    2  A    between atoms: C2_3  and  C3_5
REMARK    3  A    between atoms: C3_5  and  N1_6
REMARK    4  A    between atoms: N1_6  and  N2_8
REMARK    5  A    between atoms: N2_8  and  C4_10
REMARK    6  A    between atoms: C5_13  and  O3_14
REMARK    7  A    between atoms: C6_16  and  N4_17
REMARK       I    between atoms: N5_19  and  C7_21
REMARK       I    between atoms: C7_21  and  N6_23
REMARK    8  A    between atoms: N6_23  and  S1_25
REMARK    9  A    between atoms: S1_25  and  O7_28
REMARK   10  A    between atoms: O7_28  and  C8_29
REMARK   11  A    between atoms: N7_32  and  C11_33
ROOT
HETATM    1  N4  UNL     1      16.436 -13.021  37.206  1.00  0.00    -0.286 N
ATOM      2  H4  UNL     1      15.834 -12.308  37.618  1.00  0.00     0.188 HD
HETATM    3  N5  UNL     1      16.100 -14.158  37.435  1.00  0.00    -0.250 N
ATOM      4  H5  UNL     1      15.260 -14.211  38.011  1.00  0.00     0.192 HD
HETATM    5  C7  UNL     1      16.599 -15.421  37.091  1.00  0.00     0.349 C
HETATM    6  O4  UNL     1      16.826 -15.758  35.887  1.00  0.00    -0.244 OA
HETATM    7  N6  UNL     1      16.858 -16.354  38.120  1.00  0.00    -0.212 N
ATOM      8  H6  UNL     1      16.683 -16.093  39.090  1.00  0.00     0.185 HD
ENDROOT
BRANCH   7   9
HETATM    9  S1  UNL     1      17.457 -17.906  37.765  1.00  0.00     0.366 S
HETATM   10  O5  UNL     1      16.427 -18.612  36.887  1.00  0.00    -0.175 OA
HETATM   11  O6  UNL     1      17.709 -18.747  38.981  1.00  0.00    -0.175 OA
BRANCH   9  12
HETATM   12  O7  UNL     1      18.840 -17.743  36.824  1.00  0.00    -0.253 OA
BRANCH  12  13
HETATM   13  C8  UNL     1      19.965 -17.440  37.631  1.00  0.00     0.161 C
HETATM   14  C9  UNL     1      20.293 -16.008  37.389  1.00  0.00     0.055 C
HETATM   15  C10 UNL     1      21.478 -15.726  36.542  1.00  0.00     0.144 C
HETATM   16  N7  UNL     1      21.831 -16.739  35.591  1.00  0.00    -0.216 N
HETATM   17  C15 UNL     1      21.210 -18.026  35.629  1.00  0.00     0.159 C
HETATM   18  C16 UNL     1      21.069 -18.357  37.124  1.00  0.00     0.107 C
HETATM   19 BR1  UNL     1      20.620 -20.202  37.406  1.00  0.00    -0.087 Br
BRANCH  16  20
HETATM   20  C11 UNL     1      22.796 -16.453  34.599  1.00  0.00     0.696 A
HETATM   21  N8  UNL     1      24.054 -16.075  34.925  1.00  0.00    -0.180 N
HETATM   22  C12 UNL     1      24.977 -15.805  33.991  1.00  0.00     0.109 A
ATOM     23  H8  UNL     1      24.307 -15.993  35.911  1.00  0.00     0.185 HD
HETATM   24  C13 UNL     1      26.353 -15.385  34.341  1.00  0.00     0.090 C
HETATM   25  N9  UNL     1      24.642 -15.913  32.707  1.00  0.00    -0.180 N
HETATM   26  C14 UNL     1      23.388 -16.289  32.313  1.00  0.00     0.691 A
ATOM     27  H9  UNL     1      25.343 -15.708  31.995  1.00  0.00     0.185 HD
HETATM   28  N10 UNL     1      23.089 -16.388  31.169  1.00  0.00    -0.234 N
HETATM   29  N11 UNL     1      22.491 -16.551  33.311  1.00  0.00    -0.022 N
ATOM     30 2H10 UNL     1      23.757 -16.193  30.423  1.00  0.00     0.174 HD
ATOM     31 1H10 UNL     1      22.154 -16.669  30.875  1.00  0.00     0.174 HD
ATOM     32  H11 UNL     1      21.546 -16.835  33.055  1.00  0.00     0.203 HD
ENDBRANCH  16  20
ENDBRANCH  12  13
ENDBRANCH   9  12
ENDBRANCH   7   9
BRANCH   1  33
HETATM   33  C6  UNL     1      17.536 -12.510  36.456  1.00  0.00     0.143 A
HETATM   34  C5  UNL     1      17.785 -12.621  35.115  1.00  0.00     0.178 A
HETATM   35  N3  UNL     1      18.872 -12.092  34.641  1.00  0.00    -0.314 N
HETATM   36  C4  UNL     1      19.716 -11.461  35.449  1.00  0.00     0.167 A
ATOM     37  H3  UNL     1      19.079 -12.161  33.645  1.00  0.00     0.170 HD
HETATM   38  S2  UNL     1      18.905 -11.631  36.985  1.00  0.00    -0.029 SA
BRANCH  34  39
HETATM   39  O3  UNL     1      16.830 -13.315  34.301  1.00  0.00    -0.344 OA
ATOM     40  H3  UNL     1      16.683 -14.252  34.356  1.00  0.00     0.219 HD
ENDBRANCH  34  39
BRANCH  36  41
HETATM   41  N2  UNL     1      20.834 -10.887  35.249  1.00  0.00    -0.283 N
ATOM     42  H2  UNL     1      20.698  -9.969  34.826  1.00  0.00     0.188 HD
BRANCH  41  43
HETATM   43  N1  UNL     1      22.126 -11.133  35.428  1.00  0.00    -0.325 N
ATOM     44  H1  UNL     1      22.725 -10.357  35.711  1.00  0.00     0.180 HD
BRANCH  43  45
HETATM   45  C3  UNL     1      22.739 -12.425  35.250  1.00  0.00     0.250 C
BRANCH  45  46
HETATM   46  C2  UNL     1      22.608 -12.923  33.838  1.00  0.00     0.277 C
HETATM   47  O2  UNL     1      21.518 -13.444  33.457  1.00  0.00    -0.263 OA
BRANCH  46  48
HETATM   48  O1  UNL     1      23.631 -12.842  32.921  1.00  0.00    -0.325 OA
HETATM   49  C1  UNL     1      23.969 -11.635  32.236  1.00  0.00     0.213 C
ENDBRANCH  46  48
ENDBRANCH  45  46
ENDBRANCH  43  45
ENDBRANCH  41  43
ENDBRANCH  36  41
ENDBRANCH   1  33
TORSDOF 11
ENDMDL