MODEL 3
REMARK VINA RESULT: -6.788480552      4.023      8.387
REMARK  12 active torsions:
REMARK  status: ('A' for Active; 'I' for Inactive)
REMARK    1  A    between atoms: S1_2  and  N1_5
REMARK    2  A    between atoms: N1_5  and  C2_7
REMARK    3  A    between atoms: C2_7  and  C3_8
REMARK    4  A    between atoms: C3_8  and  O3_9
REMARK    5  A    between atoms: O3_9  and  C4_10
REMARK    6  A    between atoms: C4_10  and  C5_12
REMARK    7  A    between atoms: C13_25  and  N4_26
REMARK       I    between atoms: N5_28  and  C14_30
REMARK       I    between atoms: C14_30  and  N6_32
REMARK    8  A    between atoms: N6_32  and  O7_34
REMARK    9  A    between atoms: O7_34  and  C15_35
REMARK   10  A    between atoms: C16_38  and  N8_39
REMARK   11  A    between atoms: C18_44  and  N9_45
REMARK   12  A    between atoms: N10_48  and  N11_50
ROOT
HETATM    1  C5  UNL     1      21.036 -20.916  35.105  1.00  0.00     0.141 A
HETATM    2  N2  UNL     1      20.354 -20.735  36.233  1.00  0.00    -0.348 N
ATOM      3  H2  UNL     1      20.136 -21.555  36.799  1.00  0.00     0.166 HD
HETATM    4  C6  UNL     1      19.932 -19.521  36.673  1.00  0.00     0.049 A
HETATM    5  C7  UNL     1      19.231 -19.467  37.862  1.00  0.00     0.058 A
HETATM    6  C8  UNL     1      18.787 -18.248  38.338  1.00  0.00     0.070 A
HETATM    7  N3  UNL     1      18.067 -18.095  39.541  1.00  0.00    -0.101 NA
HETATM    8  C9  UNL     1      19.064 -17.107  37.595  1.00  0.00     0.059 A
HETATM    9 CL1  UNL     1      18.514 -15.548  38.172  1.00  0.00    -0.082 Cl
HETATM   10  C10 UNL     1      19.766 -17.184  36.409  1.00  0.00     0.043 A
HETATM   11  C11 UNL     1      20.210 -18.396  35.931  1.00  0.00     0.045 A
HETATM   12  C12 UNL     1      20.915 -18.539  34.754  1.00  0.00     0.214 A
HETATM   13  O5  UNL     1      21.143 -17.485  34.116  1.00  0.00    -0.285 OA
HETATM   14  C13 UNL     1      21.336 -19.781  34.324  1.00  0.00     0.132 A
ENDROOT
BRANCH  14  15
HETATM   15  N4  UNL     1      22.047 -20.005  33.157  1.00  0.00    -0.291 N
HETATM   16  N5  UNL     1      22.492 -19.493  32.204  1.00  0.00    -0.249 N
HETATM   17  C14 UNL     1      22.612 -18.269  31.576  1.00  0.00     0.359 C
ATOM     18  H5  UNL     1      22.954 -20.201  31.634  1.00  0.00     0.192 HD
HETATM   19  O6  UNL     1      21.722 -17.807  30.773  1.00  0.00    -0.243 OA
HETATM   20  N6  UNL     1      23.774 -17.461  31.813  1.00  0.00    -0.207 N
ATOM     21  H6  UNL     1      24.508 -17.788  32.442  1.00  0.00     0.200 HD
ATOM     22  H4  UNL     1      22.269 -21.000  33.111  1.00  0.00     0.187 HD
BRANCH  20  23
HETATM   23  O7  UNL     1      23.890 -16.260  31.193  1.00  0.00    -0.213 OA
BRANCH  23  24
HETATM   24  C15 UNL     1      24.857 -15.318  31.506  1.00  0.00     0.208 A
HETATM   25  N7  UNL     1      26.024 -15.103  30.857  1.00  0.00    -0.311 N
HETATM   26  C16 UNL     1      26.717 -14.109  31.437  1.00  0.00     0.217 A
ATOM     27  H7  UNL     1      26.336 -15.626  30.038  1.00  0.00     0.170 HD
HETATM   28  C17 UNL     1      25.992 -13.640  32.511  1.00  0.00     0.203 A
HETATM   29  F1  UNL     1      26.357 -12.628  33.359  1.00  0.00    -0.199 F
HETATM   30  C18 UNL     1      24.846 -14.394  32.542  1.00  0.00     0.198 A
BRANCH  26  31
HETATM   31  N8  UNL     1      27.973 -13.588  31.062  1.00  0.00    -0.095 N
HETATM   32  O8  UNL     1      28.115 -12.350  31.031  1.00  0.00    -0.530 OA
HETATM   33  O9  UNL     1      29.045 -14.374  30.730  1.00  0.00    -0.530 OA
ENDBRANCH  26  31
BRANCH  30  34
HETATM   34  N9  UNL     1      23.794 -14.262  33.491  1.00  0.00    -0.108 N
HETATM   35  O10 UNL     1      23.108 -13.253  33.622  1.00  0.00    -0.532 OA
HETATM   36  O11 UNL     1      23.525 -15.337  34.319  1.00  0.00    -0.532 OA
ENDBRANCH  30  34
ENDBRANCH  23  24
ENDBRANCH  20  23
ENDBRANCH  14  15
BRANCH   1  37
HETATM   37  C4  UNL     1      21.459 -22.249  34.688  1.00  0.00     0.312 C
HETATM   38  O4  UNL     1      22.665 -22.570  34.566  1.00  0.00    -0.258 OA
BRANCH  37  39
HETATM   39  O3  UNL     1      20.498 -23.189  34.419  1.00  0.00    -0.309 OA
BRANCH  39  40
HETATM   40  C3  UNL     1      19.789 -23.955  35.338  1.00  0.00     0.257 C
BRANCH  40  41
HETATM   41  C2  UNL     1      20.558 -25.042  35.983  1.00  0.00     0.129 C
HETATM   42  N10 UNL     1      20.046 -26.191  36.295  1.00  0.00    -0.293 N
ATOM     43  H10 UNL     1      19.064 -26.372  36.084  1.00  0.00     0.187 HD
BRANCH  41  44
HETATM   44  N1  UNL     1      21.927 -24.823  36.288  1.00  0.00    -0.271 N
ATOM     45  H1  UNL     1      22.631 -25.040  35.583  1.00  0.00     0.180 HD
BRANCH  44  46
HETATM   46  S1  UNL     1      22.436 -24.204  37.805  1.00  0.00     0.228 S
HETATM   47  C1  UNL     1      24.165 -23.911  37.918  1.00  0.00     0.186 C
HETATM   48  O1  UNL     1      21.700 -22.929  38.135  1.00  0.00    -0.206 OA
HETATM   49  O2  UNL     1      22.039 -25.195  38.880  1.00  0.00    -0.206 OA
ENDBRANCH  44  46
ENDBRANCH  41  44
BRANCH  42  50
HETATM   50  N11 UNL     1      20.801 -27.186  36.910  1.00  0.00    -0.344 N
ATOM     51 2H11 UNL     1      21.381 -26.926  37.708  1.00  0.00     0.176 HD
ATOM     52 1H11 UNL     1      20.783 -28.152  36.583  1.00  0.00     0.176 HD
ENDBRANCH  42  50
ENDBRANCH  40  41
ENDBRANCH  39  40
ENDBRANCH  37  39
ENDBRANCH   1  37
TORSDOF 12
ENDMDL