MODEL 2
REMARK VINA RESULT: -7.584239210      2.194      2.698
REMARK  13 active torsions:
REMARK  status: ('A' for Active; 'I' for Inactive)
REMARK    1  A    between atoms: N1_1  and  C1_5
REMARK    2  A    between atoms: C1_5  and  N2_6
REMARK    3  A    between atoms: C1_5  and  C2_10
REMARK    4  A    between atoms: C3_12  and  S2_13
REMARK    5  A    between atoms: S2_13  and  C4_16
REMARK    6  A    between atoms: C6_20  and  N4_21
REMARK    7  A    between atoms: N4_21  and  C7_23
REMARK    8  A    between atoms: C8_26  and  N6_27
REMARK    9  A    between atoms: C11_30  and  N7_31
REMARK   10  A    between atoms: N7_31  and  O3_32
REMARK   11  A    between atoms: N7_31  and  C12_34
REMARK   12  A    between atoms: C15_40  and  N9_41
REMARK   13  A    between atoms: C21_53  and  O6_54
ROOT
HETATM    1  N4  UNL     1      22.005 -19.576  32.480  1.00  0.00    -0.021 N
ATOM      2  H4  UNL     1      22.056 -20.205  31.678  1.00  0.00     0.203 HD
ENDROOT
BRANCH   1   3
HETATM    3  C6  UNL     1      22.588 -18.290  32.415  1.00  0.00     0.697 A
HETATM    4  N3  UNL     1      22.457 -17.442  31.383  1.00  0.00    -0.198 N
HETATM    5  C5  UNL     1      23.145 -16.303  31.659  1.00  0.00     0.149 A
ATOM      6  H3  UNL     1      21.927 -17.624  30.530  1.00  0.00     0.183 HD
HETATM    7  C4  UNL     1      23.695 -16.506  32.906  1.00  0.00     0.165 A
HETATM    8  N11 UNL     1      23.360 -17.716  33.374  1.00  0.00    -0.179 N
ATOM      9  H11 UNL     1      23.631 -18.124  34.269  1.00  0.00     0.185 HD
BRANCH   7  10
HETATM   10  S2  UNL     1      24.688 -15.353  33.746  1.00  0.00     0.232 S
HETATM   11  O1  UNL     1      26.153 -15.600  33.501  1.00  0.00    -0.215 OA
HETATM   12  O2  UNL     1      24.399 -15.403  35.214  1.00  0.00    -0.215 OA
BRANCH  10  13
HETATM   13  C3  UNL     1      24.361 -13.724  33.123  1.00  0.00     0.131 A
HETATM   14  S1  UNL     1      25.420 -12.670  32.304  1.00  0.00    -0.074 SA
HETATM   15  C2  UNL     1      24.373 -11.357  32.058  1.00  0.00     0.076 A
HETATM   16  C21 UNL     1      23.202 -11.777  32.631  1.00  0.00     0.106 A
HETATM   17  C20 UNL     1      23.198 -13.009  33.184  1.00  0.00     0.097 A
HETATM   18 CL1  UNL     1      21.761 -13.726  33.975  1.00  0.00    -0.079 Cl
BRANCH  15  19
HETATM   19  C1  UNL     1      24.668 -10.055  31.377  1.00  0.00     0.420 C
BRANCH  19  20
HETATM   20  N1  UNL     1      24.371  -8.942  32.224  1.00  0.00    -0.046 N
ATOM     21  H13 UNL     1      24.999  -8.160  32.038  1.00  0.00     0.277 HD
ATOM     22  H12 UNL     1      23.487  -8.507  31.962  1.00  0.00     0.277 HD
ATOM     23  H11 UNL     1      24.380  -9.193  33.213  1.00  0.00     0.277 HD
ENDBRANCH  19  20
BRANCH  19  24
HETATM   24  N2  UNL     1      24.003  -9.973  30.117  1.00  0.00    -0.046 N
ATOM     25  H23 UNL     1      23.395  -9.155  30.076  1.00  0.00     0.277 HD
ATOM     26  H22 UNL     1      24.656  -9.729  29.372  1.00  0.00     0.277 HD
ATOM     27  H21 UNL     1      23.490 -10.825  29.892  1.00  0.00     0.277 HD
ENDBRANCH  19  24
ENDBRANCH  15  19
BRANCH  16  28
HETATM   28  O6  UNL     1      22.065 -10.918  32.619  1.00  0.00    -0.358 OA
ATOM     29  H6  UNL     1      21.194 -11.293  32.676  1.00  0.00     0.217 HD
ENDBRANCH  16  28
ENDBRANCH  10  13
ENDBRANCH   7  10
ENDBRANCH   1   3
BRANCH   1  30
HETATM   30  C7  UNL     1      21.414 -19.948  33.552  1.00  0.00     0.726 A
HETATM   31  N5  UNL     1      20.674 -19.124  34.294  1.00  0.00    -0.021 N
HETATM   32  C8  UNL     1      20.056 -19.570  35.427  1.00  0.00     0.709 A
ATOM     33  H5  UNL     1      20.568 -18.150  34.012  1.00  0.00     0.203 HD
HETATM   34  N8  UNL     1      20.238 -20.854  35.735  1.00  0.00    -0.021 N
HETATM   35  C15 UNL     1      20.986 -21.735  35.006  1.00  0.00     0.709 A
ATOM     36  H8  UNL     1      19.784 -21.205  36.578  1.00  0.00     0.203 HD
HETATM   37  N10 UNL     1      21.563 -21.257  33.919  1.00  0.00    -0.021 N
ATOM     38  H10 UNL     1      22.133 -21.876  33.342  1.00  0.00     0.203 HD
BRANCH  32  39
HETATM   39  N6  UNL     1      19.275 -18.682  36.205  1.00  0.00    -0.216 N
HETATM   40  C9  UNL     1      19.539 -18.549  37.617  1.00  0.00     0.143 C
HETATM   41  C10 UNL     1      18.160 -18.422  38.280  1.00  0.00     0.048 C
HETATM   42  C11 UNL     1      17.622 -17.065  37.873  1.00  0.00     0.120 C
HETATM   43  C13 UNL     1      17.698 -16.806  36.402  1.00  0.00     0.048 C
HETATM   44  C14 UNL     1      18.232 -17.927  35.578  1.00  0.00     0.143 C
BRANCH  42  45
HETATM   45  N7  UNL     1      16.273 -16.865  38.393  1.00  0.00    -0.231 N
BRANCH  45  46
HETATM   46  O3  UNL     1      16.087 -16.370  39.638  1.00  0.00    -0.285 OA
ATOM     47  H3  UNL     1      15.356 -15.792  39.820  1.00  0.00     0.245 HD
ENDBRANCH  45  46
BRANCH  45  48
HETATM   48  C12 UNL     1      15.121 -17.177  37.625  1.00  0.00     0.377 C
HETATM   49  O4  UNL     1      14.768 -18.366  37.450  1.00  0.00    -0.281 OA
ENDBRANCH  45  48
ENDBRANCH  42  45
ENDBRANCH  32  39
BRANCH  35  50
HETATM   50  N9  UNL     1      21.089 -23.080  35.435  1.00  0.00    -0.213 N
HETATM   51  C16 UNL     1      19.927 -23.930  35.300  1.00  0.00     0.167 C
HETATM   52  C17 UNL     1      20.182 -25.255  35.984  1.00  0.00     0.188 C
HETATM   53  O5  UNL     1      20.731 -24.950  37.216  1.00  0.00    -0.388 OA
HETATM   54  C18 UNL     1      22.020 -24.514  37.145  1.00  0.00     0.188 C
HETATM   55  C19 UNL     1      22.292 -23.597  35.995  1.00  0.00     0.167 C
ENDBRANCH  35  50
ENDBRANCH   1  30
TORSDOF 13
ENDMDL