MODEL 4
REMARK VINA RESULT: -5.869092732      3.761      6.983
REMARK  17 active torsions:
REMARK  status: ('A' for Active; 'I' for Inactive)
REMARK    1  A    between atoms: O1_2  and  C2_3
REMARK    2  A    between atoms: C2_3  and  C3_5
REMARK    3  A    between atoms: C3_5  and  N1_6
REMARK    4  A    between atoms: C3_5  and  O4_34
REMARK    5  A    between atoms: C3_5  and  C15_38
REMARK    6  A    between atoms: N1_6  and  C4_8
REMARK    7  A    between atoms: C4_8  and  O3_9
REMARK    8  A    between atoms: C4_8  and  C5_11
REMARK    9  A    between atoms: C5_11  and  N2_12
REMARK   10  A    between atoms: C5_11  and  C10_25
REMARK   11  A    between atoms: N2_12  and  N3_14
REMARK   12  A    between atoms: N3_14  and  C6_16
REMARK   13  A    between atoms: C12_28  and  N6_29
REMARK   14  A    between atoms: O4_34  and  C13_35
REMARK   15  A    between atoms: C17_43  and  O6_44
REMARK   16  A    between atoms: C18_46  and  C19_48
REMARK   17  A    between atoms: C19_48  and  O8_50
ROOT
HETATM    1  C4  UNL     1      21.875 -20.587  34.113  1.00  0.00     0.169 C
ENDROOT
BRANCH   1   2
HETATM    2  N1  UNL     1      22.480 -21.694  34.714  1.00  0.00    -0.328 N
ATOM      3  H1  UNL     1      23.252 -22.166  34.243  1.00  0.00     0.165 HD
BRANCH   2   4
HETATM    4  C3  UNL     1      22.016 -22.180  36.008  1.00  0.00     0.251 C
BRANCH   4   5
HETATM    5  C2  UNL     1      21.892 -21.050  36.994  1.00  0.00     0.317 C
HETATM    6  O2  UNL     1      22.873 -20.478  37.533  1.00  0.00    -0.260 OA
BRANCH   5   7
HETATM    7  O1  UNL     1      20.653 -20.551  37.381  1.00  0.00    -0.323 OA
HETATM    8  C1  UNL     1      20.452 -19.887  38.621  1.00  0.00     0.213 C
ENDBRANCH   5   7
ENDBRANCH   4   5
BRANCH   4   9
HETATM    9  O4  UNL     1      20.707 -22.654  35.834  1.00  0.00    -0.278 OA
BRANCH   9  10
HETATM   10  C13 UNL     1      20.294 -23.748  35.140  1.00  0.00     0.257 C
HETATM   11  C14 UNL     1      19.817 -24.988  35.841  1.00  0.00     0.126 C
HETATM   12  O5  UNL     1      20.319 -23.707  33.902  1.00  0.00    -0.266 OA
ENDBRANCH   9  10
ENDBRANCH   4   9
BRANCH   4  13
HETATM   13  C15 UNL     1      22.857 -23.268  36.561  1.00  0.00     0.180 C
HETATM   14  S2  UNL     1      22.521 -23.320  38.357  1.00  0.00    -0.066 SA
HETATM   15  S3  UNL     1      24.144 -23.639  39.705  1.00  0.00    -0.005 SA
HETATM   16  N8  UNL     1      25.639 -23.424  38.643  1.00  0.00    -0.222 NA
HETATM   17  C16 UNL     1      26.555 -24.480  38.910  1.00  0.00     0.128 C
HETATM   18  C17 UNL     1      25.051 -23.319  37.433  1.00  0.00     0.255 C
HETATM   19  C18 UNL     1      24.361 -23.155  36.223  1.00  0.00     0.247 C
HETATM   20  F1  UNL     1      24.635 -21.980  35.541  1.00  0.00    -0.226 F
BRANCH  18  21
HETATM   21  O6  UNL     1      24.521 -24.643  37.584  1.00  0.00    -0.376 OA
ATOM     22  H6  UNL     1      24.780 -24.843  36.692  1.00  0.00     0.211 HD
ENDBRANCH  18  21
BRANCH  19  23
HETATM   23  C19 UNL     1      24.750 -24.239  35.239  1.00  0.00     0.304 C
HETATM   24  O7  UNL     1      24.016 -25.225  34.986  1.00  0.00    -0.261 OA
BRANCH  23  25
HETATM   25  O8  UNL     1      25.954 -24.188  34.565  1.00  0.00    -0.324 OA
HETATM   26  C20 UNL     1      27.030 -25.082  34.852  1.00  0.00     0.213 C
ENDBRANCH  23  25
ENDBRANCH  19  23
ENDBRANCH   4  13
ENDBRANCH   2   4
ENDBRANCH   1   2
BRANCH   1  27
HETATM   27  O3  UNL     1      20.881 -20.897  33.304  1.00  0.00    -0.344 OA
ATOM     28  H3  UNL     1      20.891 -21.802  33.014  1.00  0.00     0.219 HD
ENDBRANCH   1  27
BRANCH   1  29
HETATM   29  C5  UNL     1      22.093 -19.194  34.189  1.00  0.00     0.126 C
BRANCH  29  30
HETATM   30  N2  UNL     1      21.288 -18.440  34.854  1.00  0.00    -0.293 N
ATOM     31  H2  UNL     1      21.675 -17.626  35.331  1.00  0.00     0.187 HD
BRANCH  30  32
HETATM   32  N3  UNL     1      19.950 -18.667  34.958  1.00  0.00    -0.284 N
ATOM     33  H3  UNL     1      19.556 -19.457  34.447  1.00  0.00     0.188 HD
BRANCH  32  34
HETATM   34  C6  UNL     1      19.152 -17.940  35.664  1.00  0.00     0.134 A
HETATM   35  C7  UNL     1      17.979 -18.519  36.103  1.00  0.00     0.054 A
HETATM   36  C8  UNL     1      17.103 -17.756  36.866  1.00  0.00     0.047 A
HETATM   37  C9  UNL     1      17.412 -16.449  37.172  1.00  0.00     0.118 A
HETATM   38 CL1  UNL     1      16.299 -15.474  38.145  1.00  0.00    -0.063 Cl
HETATM   39  N4  UNL     1      18.569 -15.943  36.716  1.00  0.00    -0.288 N
HETATM   40  N5  UNL     1      19.419 -16.669  35.980  1.00  0.00    -0.283 N
ATOM     41  H4  UNL     1      18.808 -14.976  36.937  1.00  0.00     0.188 HD
ATOM     42  H5  UNL     1      20.288 -16.245  35.654  1.00  0.00     0.188 HD
ENDBRANCH  32  34
ENDBRANCH  30  32
ENDBRANCH  29  30
BRANCH  29  43
HETATM   43  C10 UNL     1      23.211 -18.454  33.513  1.00  0.00     0.073 A
HETATM   44  C11 UNL     1      24.515 -18.773  33.733  1.00  0.00     0.085 A
HETATM   45  S1  UNL     1      25.346 -17.709  32.644  1.00  0.00    -0.064 SA
HETATM   46  C12 UNL     1      23.988 -16.940  31.997  1.00  0.00     0.142 A
HETATM   47  N7  UNL     1      22.971 -17.511  32.620  1.00  0.00    -0.335 N
ATOM     48  H7  UNL     1      22.013 -17.227  32.414  1.00  0.00     0.168 HD
BRANCH  46  49
HETATM   49  N6  UNL     1      23.944 -15.992  31.084  1.00  0.00    -0.380 N
ATOM     50  H62 UNL     1      23.148 -15.714  30.510  1.00  0.00     0.158 HD
ATOM     51  H61 UNL     1      24.693 -15.367  30.784  1.00  0.00     0.158 HD
ENDBRANCH  46  49
ENDBRANCH  29  43
ENDBRANCH   1  29
TORSDOF 17
ENDMDL