MODEL 5
REMARK VINA RESULT: -7.212699370      1.855      2.248
REMARK  10 active torsions:
REMARK  status: ('A' for Active; 'I' for Inactive)
REMARK    1  A    between atoms: N3_5  and  C2_6
REMARK    2  A    between atoms: C8_14  and  C9_15
REMARK    3  A    between atoms: C9_15  and  N4_16
REMARK    4  A    between atoms: C10_19  and  N6_20
REMARK    5  A    between atoms: C16_29  and  C17_30
REMARK    6  A    between atoms: N7_31  and  N8_33
REMARK       I    between atoms: N8_33  and  C18_35
REMARK    7  A    between atoms: C18_35  and  C19_37
REMARK    8  A    between atoms: C19_37  and  N9_38
REMARK    9  A    between atoms: C19_37  and  C20_42
REMARK   10  A    between atoms: C21_43  and  O3_44
ROOT
HETATM    1  N1  UNL     1      22.892 -19.706  32.478  1.00  0.00    -0.080 NA
HETATM    2  C1  UNL     1      22.122 -20.270  33.547  1.00  0.00     0.145 A
HETATM    3  N2  UNL     1      22.100 -21.576  33.896  1.00  0.00    -0.280 N
ATOM      4  H2  UNL     1      22.633 -22.314  33.435  1.00  0.00     0.189 HD
HETATM    5  N3  UNL     1      21.272 -21.760  34.944  1.00  0.00    -0.257 N
HETATM    6  C8  UNL     1      20.733 -20.583  35.308  1.00  0.00     0.069 A
HETATM    7  C16 UNL     1      21.271 -19.637  34.417  1.00  0.00     0.050 A
ENDROOT
BRANCH   7   8
HETATM    8  C17 UNL     1      20.915 -18.222  34.428  1.00  0.00     0.124 C
HETATM    9  N7  UNL     1      21.634 -17.259  34.259  1.00  0.00    -0.308 N
ATOM     10  H7  UNL     1      20.978 -16.482  34.348  1.00  0.00     0.186 HD
BRANCH   9  11
HETATM   11  N8  UNL     1      22.760 -16.641  34.029  1.00  0.00    -0.268 N
HETATM   12  C18 UNL     1      23.186 -16.169  32.759  1.00  0.00     0.271 C
HETATM   13  O2  UNL     1      22.395 -16.378  31.778  1.00  0.00    -0.269 OA
ATOM     14  H8  UNL     1      23.382 -16.487  34.821  1.00  0.00     0.190 HD
BRANCH  12  15
HETATM   15  C19 UNL     1      24.435 -15.474  32.448  1.00  0.00     0.319 C
BRANCH  15  16
HETATM   16  N9  UNL     1      24.840 -14.674  33.648  1.00  0.00    -0.062 N
ATOM     17  H93 UNL     1      24.074 -14.117  34.026  1.00  0.00     0.275 HD
ATOM     18  H92 UNL     1      25.007 -15.256  34.469  1.00  0.00     0.275 HD
ATOM     19  H91 UNL     1      25.651 -14.108  33.398  1.00  0.00     0.275 HD
ENDBRANCH  15  16
BRANCH  15  20
HETATM   20  C20 UNL     1      25.545 -16.448  32.296  1.00  0.00     0.100 A
HETATM   21  C21 UNL     1      26.190 -16.586  31.053  1.00  0.00     0.158 A
HETATM   22  N10 UNL     1      27.192 -17.447  30.845  1.00  0.00    -0.288 N
HETATM   23  C22 UNL     1      27.631 -18.234  31.833  1.00  0.00     0.329 A
ATOM     24  H10 UNL     1      27.624 -17.504  29.923  1.00  0.00     0.172 HD
HETATM   25  O4  UNL     1      28.574 -19.040  31.625  1.00  0.00    -0.247 OA
HETATM   26  N11 UNL     1      27.049 -18.141  33.039  1.00  0.00    -0.275 N
HETATM   27  C23 UNL     1      26.022 -17.267  33.277  1.00  0.00     0.262 A
ATOM     28  H11 UNL     1      27.380 -18.737  33.798  1.00  0.00     0.173 HD
HETATM   29  O5  UNL     1      25.559 -17.266  34.423  1.00  0.00    -0.267 OA
BRANCH  21  30
HETATM   30  O3  UNL     1      25.770 -15.795  30.002  1.00  0.00    -0.345 OA
ATOM     31  H3  UNL     1      25.877 -16.124  29.117  1.00  0.00     0.219 HD
ENDBRANCH  21  30
ENDBRANCH  15  20
ENDBRANCH  12  15
ENDBRANCH   9  11
ENDBRANCH   7   8
BRANCH   6  32
HETATM   32  C9  UNL     1      19.826 -20.341  36.426  1.00  0.00     0.213 C
BRANCH  32  33
HETATM   33  N4  UNL     1      20.533 -19.950  37.675  1.00  0.00    -0.244 N
HETATM   34  N5  UNL     1      21.144 -20.827  38.365  1.00  0.00    -0.274 N
HETATM   35  C10 UNL     1      21.774 -20.543  39.479  1.00  0.00     0.166 A
ATOM     36  H5  UNL     1      21.144 -21.792  38.037  1.00  0.00     0.189 HD
HETATM   37  S2  UNL     1      21.484 -18.865  39.579  1.00  0.00     0.010 SA
HETATM   38  C15 UNL     1      20.552 -18.690  38.131  1.00  0.00     0.308 A
HETATM   39  O1  UNL     1      20.042 -17.616  37.662  1.00  0.00    -0.258 OA
BRANCH  35  40
HETATM   40  N6  UNL     1      22.490 -21.420  40.340  1.00  0.00    -0.359 N
HETATM   41  C11 UNL     1      23.122 -22.591  39.814  1.00  0.00     0.135 C
HETATM   42  C12 UNL     1      22.396 -23.844  40.242  1.00  0.00     0.093 C
HETATM   43  S1  UNL     1      22.244 -23.831  42.060  1.00  0.00    -0.166 SA
HETATM   44  C13 UNL     1      21.941 -22.134  42.634  1.00  0.00     0.093 C
HETATM   45  C14 UNL     1      22.569 -21.117  41.737  1.00  0.00     0.135 C
ENDBRANCH  35  40
ENDBRANCH  32  33
ENDBRANCH   6  32
BRANCH   5  46
HETATM   46  C2  UNL     1      21.072 -23.067  35.460  1.00  0.00     0.059 A
HETATM   47  C3  UNL     1      22.025 -23.647  36.249  1.00  0.00     0.033 A
HETATM   48  C4  UNL     1      21.887 -24.905  36.778  1.00  0.00     0.029 A
HETATM   49  C5  UNL     1      20.743 -25.616  36.505  1.00  0.00     0.072 A
HETATM   50 CL1  UNL     1      20.521 -27.245  37.166  1.00  0.00    -0.081 Cl
HETATM   51  C6  UNL     1      19.771 -25.049  35.712  1.00  0.00     0.140 A
HETATM   52  F1  UNL     1      18.650 -25.726  35.436  1.00  0.00    -0.204 F
HETATM   53  C7  UNL     1      19.926 -23.762  35.178  1.00  0.00     0.075 A
ENDBRANCH   5  46
TORSDOF 10
ENDMDL