MODEL 3
REMARK VINA RESULT: -6.754445831      3.461      8.865
REMARK  15 active torsions:
REMARK  status: ('A' for Active; 'I' for Inactive)
REMARK    1  A    between atoms: C2_3  and  C3_4
REMARK    2  A    between atoms: C4_8  and  O4_9
REMARK    3  A    between atoms: O4_9  and  C5_10
REMARK    4  A    between atoms: C5_10  and  N6_29
REMARK    5  A    between atoms: N2_11  and  C6_13
REMARK    6  A    between atoms: C6_13  and  C7_14
REMARK    7  A    between atoms: C7_14  and  N3_15
REMARK    8  A    between atoms: C9_17  and  N4_18
REMARK    9  A    between atoms: N4_18  and  C10_20
REMARK   10  A    between atoms: C10_20  and  N5_22
REMARK   11  A    between atoms: N5_22  and  O5_24
REMARK       I    between atoms: N6_29  and  C13_31
REMARK   12  A    between atoms: C13_31  and  O9_33
REMARK   13  A    between atoms: C18_39  and  O11_40
REMARK   14  A    between atoms: C18_39  and  C19_42
REMARK   15  A    between atoms: C19_42  and  O12_43
ROOT
HETATM    1  C1  UNL     1      20.960 -17.939  39.809  1.00  0.00     0.226 C
HETATM    2  N1  UNL     1      20.909 -17.656  38.687  1.00  0.00    -0.416 NA
HETATM    3  C2  UNL     1      20.871 -17.300  37.311  1.00  0.00     0.357 C
HETATM    4  O3  UNL     1      21.810 -16.366  36.984  1.00  0.00    -0.301 OA
HETATM    5  C4  UNL     1      21.206 -15.142  36.758  1.00  0.00     0.326 C
HETATM    6  C15 UNL     1      19.800 -15.231  37.257  1.00  0.00     0.232 C
HETATM    7  O10 UNL     1      18.942 -14.368  36.628  1.00  0.00    -0.351 OA
HETATM    8  C16 UNL     1      18.889 -13.165  37.327  1.00  0.00     0.157 C
HETATM    9  C17 UNL     1      18.689 -11.977  36.379  1.00  0.00     0.043 C
HETATM   10  C18 UNL     1      17.719 -13.244  38.284  1.00  0.00     0.113 C
HETATM   11  C20 UNL     1      17.946 -14.325  39.303  1.00  0.00     0.120 C
HETATM   12  S2  UNL     1      19.660 -14.929  39.046  1.00  0.00    -0.117 SA
HETATM   13  C21 UNL     1      19.491 -16.697  37.042  1.00  0.00     0.360 C
HETATM   14  F1  UNL     1      19.047 -16.971  35.777  1.00  0.00    -0.194 F
HETATM   15  F2  UNL     1      18.622 -17.150  37.998  1.00  0.00    -0.194 F
ENDROOT
BRANCH   3  16
HETATM   16  C3  UNL     1      21.068 -18.535  36.518  1.00  0.00     0.253 C
HETATM   17  O1  UNL     1      21.973 -18.543  35.646  1.00  0.00    -0.643 OA
HETATM   18  O2  UNL     1      20.267 -19.667  36.731  1.00  0.00    -0.643 OA
ENDBRANCH   3  16
BRANCH   5  19
HETATM   19  O4  UNL     1      21.126 -14.855  35.354  1.00  0.00    -0.286 OA
BRANCH  19  20
HETATM   20  C5  UNL     1      22.315 -14.588  34.644  1.00  0.00     0.226 C
HETATM   21  N2  UNL     1      22.932 -15.629  34.212  1.00  0.00    -0.354 N
ATOM     22  H2  UNL     1      22.559 -16.560  34.390  1.00  0.00     0.163 HD
BRANCH  21  23
HETATM   23  C6  UNL     1      24.157 -15.464  33.475  1.00  0.00     0.145 C
BRANCH  23  24
HETATM   24  C7  UNL     1      24.065 -16.043  32.084  1.00  0.00     0.175 C
BRANCH  24  25
HETATM   25  N3  UNL     1      23.363 -17.331  32.239  1.00  0.00    -0.256 N
HETATM   26  C8  UNL     1      23.985 -18.482  32.529  1.00  0.00     0.153 A
HETATM   27  C9  UNL     1      23.046 -19.479  32.601  1.00  0.00     0.130 A
HETATM   28  C12 UNL     1      21.838 -18.803  32.330  1.00  0.00     0.333 A
HETATM   29  O6  UNL     1      20.694 -19.321  32.289  1.00  0.00    -0.256 OA
HETATM   30  O7  UNL     1      22.122 -17.552  32.131  1.00  0.00    -0.192 OA
BRANCH  27  31
HETATM   31  N4  UNL     1      23.150 -20.863  32.873  1.00  0.00    -0.326 N
ATOM     32  H4  UNL     1      23.481 -21.445  32.103  1.00  0.00     0.168 HD
BRANCH  31  33
HETATM   33  C10 UNL     1      22.859 -21.529  34.054  1.00  0.00     0.196 C
HETATM   34  S1  UNL     1      23.976 -22.246  34.962  1.00  0.00    -0.039 SA
BRANCH  33  35
HETATM   35  N5  UNL     1      21.503 -21.592  34.502  1.00  0.00    -0.241 N
ATOM     36  H5  UNL     1      21.127 -20.826  35.059  1.00  0.00     0.197 HD
BRANCH  35  37
HETATM   37  O5  UNL     1      20.709 -22.645  34.203  1.00  0.00    -0.283 OA
HETATM   38  C11 UNL     1      20.261 -23.154  35.431  1.00  0.00     0.237 C
ENDBRANCH  35  37
ENDBRANCH  33  35
ENDBRANCH  31  33
ENDBRANCH  27  31
ENDBRANCH  24  25
ENDBRANCH  23  24
ENDBRANCH  21  23
BRANCH  20  39
HETATM   39  N6  UNL     1      22.756 -13.248  34.448  1.00  0.00    -0.268 N
HETATM   40  C13 UNL     1      21.911 -12.291  33.822  1.00  0.00     0.367 C
HETATM   41  O8  UNL     1      20.757 -12.596  33.424  1.00  0.00    -0.238 OA
ATOM     42  H6  UNL     1      23.687 -12.972  34.760  1.00  0.00     0.174 HD
BRANCH  40  43
HETATM   43  O9  UNL     1      22.312 -10.987  33.621  1.00  0.00    -0.309 OA
HETATM   44  C14 UNL     1      22.625 -10.488  32.334  1.00  0.00     0.215 C
ENDBRANCH  40  43
ENDBRANCH  20  39
ENDBRANCH  19  20
ENDBRANCH   5  19
BRANCH  10  45
HETATM   45  O11 UNL     1      17.574 -12.040  38.971  1.00  0.00    -0.384 OA
ATOM     46  H11 UNL     1      17.135 -11.399  38.425  1.00  0.00     0.210 HD
ENDBRANCH  10  45
BRANCH  10  47
HETATM   47  C19 UNL     1      16.469 -13.473  37.471  1.00  0.00     0.205 C
BRANCH  47  48
HETATM   48  O12 UNL     1      15.311 -13.470  38.225  1.00  0.00    -0.398 OA
ATOM     49  H12 UNL     1      14.984 -14.339  38.422  1.00  0.00     0.209 HD
ENDBRANCH  47  48
ENDBRANCH  10  47
TORSDOF 15
ENDMDL