MODEL 3
REMARK VINA RESULT: -7.074105715      1.286      1.587
REMARK  7 active torsions:
REMARK  status: ('A' for Active; 'I' for Inactive)
REMARK    1  A    between atoms: C3_6  and  C4_7
REMARK    2  A    between atoms: C7_15  and  N3_16
REMARK       I    between atoms: N3_16  and  C8_18
REMARK    3  A    between atoms: C8_18  and  C9_20
REMARK    4  A    between atoms: C9_20  and  C10_22
REMARK    5  A    between atoms: C13_28  and  N5_29
REMARK    6  A    between atoms: N8_38  and  C16_39
REMARK    7  A    between atoms: C16_39  and  C17_40
ROOT
HETATM    1  C10 UNL     1      21.441 -25.914  36.526  1.00  0.00     0.178 A
HETATM    2  N4  UNL     1      20.933 -27.064  36.938  1.00  0.00    -0.322 N
ATOM      3  H4  UNL     1      19.943 -27.305  36.910  1.00  0.00     0.169 HD
HETATM    4  C11 UNL     1      21.951 -27.910  37.421  1.00  0.00     0.143 A
HETATM    5  C12 UNL     1      21.556 -29.177  37.988  1.00  0.00     0.083 A
HETATM    6  S1  UNL     1      20.082 -29.245  38.926  1.00  0.00    -0.049 SA
HETATM    7  C13 UNL     1      19.803 -30.752  39.649  1.00  0.00     0.145 A
HETATM    8  N6  UNL     1      20.744 -31.672  39.403  1.00  0.00    -0.302 N
ATOM      9  H6  UNL     1      20.612 -32.592  39.823  1.00  0.00     0.171 HD
HETATM   10  C14 UNL     1      21.832 -31.498  38.664  1.00  0.00     0.273 A
HETATM   11  O4  UNL     1      22.590 -32.532  38.573  1.00  0.00    -0.266 OA
HETATM   12  C15 UNL     1      22.212 -30.330  37.999  1.00  0.00     0.135 A
HETATM   13  N7  UNL     1      23.391 -30.523  37.183  1.00  0.00    -0.095 NA
HETATM   14  N8  UNL     1      23.052 -27.218  37.281  1.00  0.00    -0.270 N
HETATM   15  N9  UNL     1      22.738 -26.004  36.733  1.00  0.00    -0.278 N
ATOM     16  H9  UNL     1      23.414 -25.271  36.516  1.00  0.00     0.189 HD
ENDROOT
BRANCH   1  17
HETATM   17  C9  UNL     1      20.638 -24.832  35.971  1.00  0.00     0.284 C
HETATM   18  O3  UNL     1      19.407 -24.957  35.777  1.00  0.00    -0.278 OA
BRANCH  17  19
HETATM   19  C8  UNL     1      21.281 -23.570  35.633  1.00  0.00     0.297 C
HETATM   20  N3  UNL     1      20.546 -22.357  35.592  1.00  0.00    -0.333 N
ATOM     21  H3  UNL     1      19.549 -22.377  35.805  1.00  0.00     0.165 HD
HETATM   22  O2  UNL     1      22.502 -23.522  35.370  1.00  0.00    -0.264 OA
BRANCH  20  23
HETATM   23  C7  UNL     1      21.166 -21.088  35.257  1.00  0.00     0.190 C
HETATM   24  N2  UNL     1      21.756 -21.170  34.000  1.00  0.00    -0.387 N
HETATM   25  C6  UNL     1      22.648 -20.245  33.497  1.00  0.00     0.198 C
ATOM     26  H2  UNL     1      21.513 -21.966  33.410  1.00  0.00     0.156 HD
HETATM   27  C2  UNL     1      23.593 -19.523  34.377  1.00  0.00     0.207 C
HETATM   28  C5  UNL     1      22.130 -19.163  32.636  1.00  0.00     0.185 C
HETATM   29  C1  UNL     1      24.729 -20.484  34.740  1.00  0.00     0.062 C
HETATM   30  N1  UNL     1      24.212 -18.530  33.488  1.00  0.00    -0.041 N
HETATM   31  S4  UNL     1      22.951 -18.656  35.777  1.00  0.00    -0.056 SA
HETATM   32  C3  UNL     1      23.330 -18.354  32.356  1.00  0.00     0.291 C
ATOM     33  H12 UNL     1      24.431 -17.654  33.961  1.00  0.00     0.280 HD
ATOM     34  H11 UNL     1      25.164 -18.777  33.218  1.00  0.00     0.280 HD
HETATM   35  S3  UNL     1      20.860 -18.469  35.861  1.00  0.00    -0.091 SA
HETATM   36  C19 UNL     1      20.098 -20.032  35.411  1.00  0.00     0.132 C
HETATM   37  O1  UNL     1      21.021 -18.986  32.260  1.00  0.00    -0.293 OA
BRANCH  32  38
HETATM   38  C4  UNL     1      23.083 -16.945  31.958  1.00  0.00     0.216 C
HETATM   39 CL1  UNL     1      24.454 -16.148  31.180  1.00  0.00    -0.105 Cl
HETATM   40 CL2  UNL     1      22.451 -15.972  33.318  1.00  0.00    -0.105 Cl
ENDBRANCH  32  38
ENDBRANCH  20  23
ENDBRANCH  17  19
ENDBRANCH   1  17
BRANCH  14  41
HETATM   41  C16 UNL     1      24.399 -27.467  37.651  1.00  0.00     0.193 C
BRANCH  41  42
HETATM   42  C17 UNL     1      24.752 -26.781  38.977  1.00  0.00     0.205 C
HETATM   43  O5  UNL     1      23.800 -25.845  39.365  1.00  0.00    -0.364 OA
HETATM   44  C18 UNL     1      24.759 -25.055  39.981  1.00  0.00     0.246 C
HETATM   45  S2  UNL     1      25.937 -25.446  38.655  1.00  0.00    -0.110 SA
ENDBRANCH  41  42
ENDBRANCH  14  41
BRANCH   7  46
HETATM   46  N5  UNL     1      18.766 -30.989  40.379  1.00  0.00    -0.380 N
ATOM     47  H52 UNL     1      18.636 -30.580  41.304  1.00  0.00     0.158 HD
ATOM     48  H51 UNL     1      18.010 -31.602  40.074  1.00  0.00     0.158 HD
ENDBRANCH   7  46
TORSDOF 7
ENDMDL