MODEL 3
REMARK VINA RESULT: -7.324557855      4.804      7.059
REMARK  11 active torsions:
REMARK  status: ('A' for Active; 'I' for Inactive)
REMARK    1  A    between atoms: O1_2  and  N1_3
REMARK    2  A    between atoms: C3_5  and  C4_6
REMARK    3  A    between atoms: C4_6  and  O2_7
REMARK    4  A    between atoms: O2_7  and  C5_8
REMARK    5  A    between atoms: C5_8  and  C6_10
REMARK    6  A    between atoms: C9_14  and  O4_15
REMARK    7  A    between atoms: O4_15  and  C10_16
REMARK    8  A    between atoms: C12_21  and  S1_22
REMARK    9  A    between atoms: S1_22  and  N3_23
REMARK   10  A    between atoms: C21_46  and  O8_47
REMARK   11  A    between atoms: C21_46  and  C22_49
ROOT
HETATM    1  C6  UNL     1      23.090 -17.236  32.328  1.00  0.00     0.071 A
HETATM    2  C7  UNL     1      23.991 -16.771  31.397  1.00  0.00     0.065 A
HETATM    3  C8  UNL     1      24.563 -15.508  31.508  1.00  0.00     0.153 A
HETATM    4  F1  UNL     1      25.443 -15.125  30.547  1.00  0.00    -0.203 F
HETATM    5  C9  UNL     1      24.214 -14.714  32.575  1.00  0.00     0.147 A
HETATM    6  C13 UNL     1      23.309 -15.189  33.505  1.00  0.00     0.099 A
HETATM    7  N4  UNL     1      22.961 -14.420  34.553  1.00  0.00    -0.334 N
ATOM      8  H4  UNL     1      23.360 -13.488  34.668  1.00  0.00     0.168 HD
HETATM    9  C14 UNL     1      22.078 -14.901  35.446  1.00  0.00     0.162 A
HETATM   10  C15 UNL     1      21.513 -16.154  35.333  1.00  0.00     0.147 A
HETATM   11  N5  UNL     1      21.856 -16.941  34.280  1.00  0.00    -0.337 N
ATOM     12  H5  UNL     1      21.456 -17.874  34.170  1.00  0.00     0.167 HD
HETATM   13  C16 UNL     1      22.739 -16.459  33.386  1.00  0.00     0.080 A
HETATM   14  N6  UNL     1      20.581 -16.888  36.113  1.00  0.00    -0.373 N
ATOM     15  H6  UNL     1      20.171 -17.644  35.566  1.00  0.00     0.161 HD
HETATM   16  C17 UNL     1      20.041 -16.878  37.461  1.00  0.00     0.122 C
HETATM   17  C18 UNL     1      20.853 -15.852  38.262  1.00  0.00     0.037 C
HETATM   18  C19 UNL     1      20.359 -14.465  37.963  1.00  0.00     0.136 C
HETATM   19  N7  UNL     1      21.469 -13.603  37.657  1.00  0.00    -0.140 NA
HETATM   20  N8  UNL     1      21.966 -13.834  36.378  1.00  0.00    -0.286 N
ATOM     21  H8  UNL     1      22.372 -12.980  35.994  1.00  0.00     0.184 HD
ENDROOT
BRANCH   1  22
HETATM   22  C5  UNL     1      22.497 -18.579  32.190  1.00  0.00     0.295 C
HETATM   23  O3  UNL     1      21.287 -18.630  31.871  1.00  0.00    -0.259 OA
BRANCH  22  24
HETATM   24  O2  UNL     1      23.148 -19.731  32.379  1.00  0.00    -0.317 OA
BRANCH  24  25
HETATM   25  C4  UNL     1      23.545 -20.500  33.415  1.00  0.00     0.185 C
BRANCH  25  26
HETATM   26  C3  UNL     1      22.597 -21.085  34.388  1.00  0.00     0.034 C
HETATM   27  C2  UNL     1      22.991 -22.345  35.081  1.00  0.00     0.161 C
HETATM   28  N1  UNL     1      21.844 -22.949  35.704  1.00  0.00    -0.270 N
HETATM   29  C23 UNL     1      20.691 -22.152  35.778  1.00  0.00     0.138 C
HETATM   30  C21 UNL     1      21.012 -20.739  36.214  1.00  0.00     0.180 C
HETATM   31  C20 UNL     1      22.082 -20.070  35.399  1.00  0.00     0.063 C
BRANCH  28  32
HETATM   32  O1  UNL     1      21.660 -24.226  35.395  1.00  0.00    -0.284 OA
HETATM   33  C1  UNL     1      20.649 -24.852  36.091  1.00  0.00     0.237 C
ENDBRANCH  28  32
BRANCH  30  34
HETATM   34  O8  UNL     1      19.840 -19.961  36.032  1.00  0.00    -0.374 OA
ATOM     35  H8  UNL     1      19.256 -20.200  36.742  1.00  0.00     0.211 HD
ENDBRANCH  30  34
BRANCH  30  36
HETATM   36  C22 UNL     1      21.327 -20.721  37.668  1.00  0.00     0.214 C
HETATM   37  O9  UNL     1      22.476 -20.850  38.150  1.00  0.00    -0.645 OA
HETATM   38  O10 UNL     1      20.291 -20.550  38.565  1.00  0.00    -0.645 OA
ENDBRANCH  30  36
ENDBRANCH  25  26
ENDBRANCH  24  25
ENDBRANCH  22  24
ENDBRANCH   1  22
BRANCH   5  39
HETATM   39  O4  UNL     1      24.789 -13.461  32.673  1.00  0.00    -0.268 OA
BRANCH  39  40
HETATM   40  C10 UNL     1      24.129 -12.292  32.322  1.00  0.00     0.277 A
HETATM   41  N2  UNL     1      24.696 -11.375  31.500  1.00  0.00    -0.303 N
HETATM   42  C11 UNL     1      23.833 -10.380  31.352  1.00  0.00     0.154 A
ATOM     43  H2  UNL     1      25.620 -11.440  31.072  1.00  0.00     0.171 HD
HETATM   44 CL1  UNL     1      24.029  -8.921  30.399  1.00  0.00    -0.060 Cl
HETATM   45  C12 UNL     1      22.719 -10.733  32.120  1.00  0.00     0.232 A
HETATM   46  O7  UNL     1      22.946 -11.886  32.681  1.00  0.00    -0.256 OA
BRANCH  45  47
HETATM   47  S1  UNL     1      21.280  -9.767  32.279  1.00  0.00     0.282 S
HETATM   48  O5  UNL     1      20.201 -10.643  32.870  1.00  0.00    -0.199 OA
HETATM   49  O6  UNL     1      21.579  -8.597  33.153  1.00  0.00    -0.199 OA
BRANCH  47  50
HETATM   50  N3  UNL     1      20.744  -9.302  30.707  1.00  0.00    -0.323 N
ATOM     51  H32 UNL     1      20.953  -9.810  29.847  1.00  0.00     0.169 HD
ATOM     52  H31 UNL     1      20.192  -8.448  30.785  1.00  0.00     0.169 HD
ENDBRANCH  47  50
ENDBRANCH  45  47
ENDBRANCH  39  40
ENDBRANCH   5  39
TORSDOF 11
ENDMDL