MODEL 5
REMARK VINA RESULT: -6.719448361      2.172      3.078
REMARK  16 active torsions:
REMARK  status: ('A' for Active; 'I' for Inactive)
REMARK    1  A    between atoms: C1_2  and  O2_3
REMARK    2  A    between atoms: C1_2  and  O14_35
REMARK    3  A    between atoms: O2_3  and  C2_4
REMARK    4  A    between atoms: C2_4  and  C3_6
REMARK    5  A    between atoms: C3_6  and  O3_7
REMARK    6  A    between atoms: C3_6  and  C4_9
REMARK    7  A    between atoms: C3_6  and  C12_26
REMARK    8  A    between atoms: C5_10  and  C6_11
REMARK    9  A    between atoms: C8_13  and  N1_14
REMARK   10  A    between atoms: C9_17  and  N2_18
REMARK   11  A    between atoms: C10_21  and  O8_22
REMARK   12  A    between atoms: C12_26  and  O9_27
REMARK   13  A    between atoms: C12_26  and  C13_29
REMARK   14  A    between atoms: C13_29  and  O10_30
REMARK   15  A    between atoms: O10_30  and  S1_31
REMARK   16  A    between atoms: O14_35  and  C14_36
ROOT
HETATM    1  C3  UNL     1      22.111 -21.817  35.054  1.00  0.00     0.189 C
ENDROOT
BRANCH   1   2
HETATM    2  C2  UNL     1      22.235 -23.056  35.862  1.00  0.00     0.279 C
HETATM    3 CL1  UNL     1      20.650 -23.767  36.279  1.00  0.00    -0.090 Cl
BRANCH   2   4
HETATM    4  O2  UNL     1      22.960 -24.043  35.090  1.00  0.00    -0.273 OA
BRANCH   4   5
HETATM    5  C1  UNL     1      24.163 -24.548  35.567  1.00  0.00     0.408 C
HETATM    6  O1  UNL     1      24.336 -24.566  36.800  1.00  0.00    -0.229 OA
BRANCH   5   7
HETATM    7  O14 UNL     1      25.179 -25.033  34.758  1.00  0.00    -0.287 OA
BRANCH   7   8
HETATM    8  C14 UNL     1      26.208 -25.878  35.269  1.00  0.00     0.203 C
HETATM    9  C15 UNL     1      27.521 -25.379  34.764  1.00  0.00     0.219 C
HETATM   10  C16 UNL     1      28.627 -26.107  35.494  1.00  0.00     0.038 C
HETATM   11  N3  UNL     1      27.605 -26.038  33.448  1.00  0.00    -0.061 N
HETATM   12  C17 UNL     1      28.514 -27.533  34.935  1.00  0.00     0.038 C
HETATM   13  C18 UNL     1      27.411 -27.419  33.928  1.00  0.00     0.225 C
HETATM   14  C19 UNL     1      26.105 -27.271  34.651  1.00  0.00     0.139 A
HETATM   15  C20 UNL     1      25.334 -28.313  35.202  1.00  0.00     0.212 A
HETATM   16  O15 UNL     1      24.919 -27.614  34.017  1.00  0.00    -0.370 OA
ATOM     17  H32 UNL     1      26.972 -25.706  32.721  1.00  0.00     0.278 HD
ATOM     18  H31 UNL     1      28.439 -25.854  32.889  1.00  0.00     0.278 HD
ENDBRANCH   7   8
ENDBRANCH   5   7
ENDBRANCH   4   5
ENDBRANCH   2   4
ENDBRANCH   1   2
BRANCH   1  19
HETATM   19  O3  UNL     1      21.396 -22.274  33.862  1.00  0.00    -0.371 OA
ATOM     20  H3  UNL     1      21.635 -21.626  33.209  1.00  0.00     0.212 HD
ENDBRANCH   1  19
BRANCH   1  21
HETATM   21  C4  UNL     1      21.336 -20.806  35.744  1.00  0.00    -0.056 C
HETATM   22  C5  UNL     1      20.683 -19.979  36.334  1.00  0.00    -0.062 C
BRANCH  22  23
HETATM   23  C6  UNL     1      19.893 -19.009  37.056  1.00  0.00     0.044 A
HETATM   24  C7  UNL     1      19.262 -18.029  36.361  1.00  0.00     0.061 A
HETATM   25  C8  UNL     1      18.482 -17.060  37.016  1.00  0.00     0.140 A
HETATM   26  C9  UNL     1      18.366 -17.113  38.382  1.00  0.00     0.170 A
HETATM   27  C10 UNL     1      19.010 -18.116  39.119  1.00  0.00     0.124 A
HETATM   28  C11 UNL     1      19.753 -19.029  38.426  1.00  0.00     0.088 A
HETATM   29 CL2  UNL     1      20.568 -20.291  39.314  1.00  0.00    -0.080 Cl
BRANCH  25  30
HETATM   30  N1  UNL     1      17.843 -16.095  36.192  1.00  0.00    -0.113 N
HETATM   31  O4  UNL     1      16.736 -16.319  35.708  1.00  0.00    -0.532 OA
HETATM   32  O5  UNL     1      18.518 -14.904  35.973  1.00  0.00    -0.532 OA
ENDBRANCH  25  30
BRANCH  26  33
HETATM   33  N2  UNL     1      17.572 -16.158  39.062  1.00  0.00    -0.110 N
HETATM   34  O6  UNL     1      16.447 -16.451  39.458  1.00  0.00    -0.532 OA
HETATM   35  O7  UNL     1      17.999 -14.865  39.282  1.00  0.00    -0.532 OA
ENDBRANCH  26  33
BRANCH  27  36
HETATM   36  O8  UNL     1      18.843 -18.101  40.488  1.00  0.00    -0.357 OA
ATOM     37  H8  UNL     1      18.544 -18.903  40.899  1.00  0.00     0.218 HD
ENDBRANCH  27  36
ENDBRANCH  22  23
ENDBRANCH   1  21
BRANCH   1  38
HETATM   38  C12 UNL     1      23.353 -21.247  34.437  1.00  0.00     0.194 C
BRANCH  38  39
HETATM   39  O9  UNL     1      23.516 -21.984  33.188  1.00  0.00    -0.389 OA
ATOM     40  H9  UNL     1      24.198 -22.619  33.371  1.00  0.00     0.210 HD
ENDBRANCH  38  39
BRANCH  38  41
HETATM   41  C13 UNL     1      23.356 -19.838  34.002  1.00  0.00     0.228 C
BRANCH  41  42
HETATM   42  O10 UNL     1      23.125 -19.629  32.659  1.00  0.00    -0.254 OA
BRANCH  42  43
HETATM   43  S1  UNL     1      21.739 -18.705  32.429  1.00  0.00     0.251 S
HETATM   44  O11 UNL     1      20.488 -19.549  32.586  1.00  0.00    -0.572 OA
HETATM   45  O12 UNL     1      21.744 -18.109  31.044  1.00  0.00    -0.572 OA
HETATM   46  O13 UNL     1      21.685 -17.493  33.600  1.00  0.00    -0.572 OA
ENDBRANCH  42  43
ENDBRANCH  41  42
ENDBRANCH  38  41
ENDBRANCH   1  38
TORSDOF 16
ENDMDL