MODEL 5
REMARK VINA RESULT: -5.529613810      3.376      8.119
REMARK  13 active torsions:
REMARK  status: ('A' for Active; 'I' for Inactive)
REMARK    1  A    between atoms: C2_2  and  O1_3
REMARK    2  A    between atoms: C2_2  and  C15_32
REMARK    3  A    between atoms: O1_3  and  C3_4
REMARK       I    between atoms: C3_4  and  N1_6
REMARK    4  A    between atoms: N5_19  and  C9_20
REMARK    5  A    between atoms: C9_20  and  C12_24
REMARK    6  A    between atoms: C12_24  and  N7_25
REMARK    7  A    between atoms: C15_32  and  N10_33
REMARK    8  A    between atoms: C15_32  and  O5_50
REMARK    9  A    between atoms: N10_33  and  S1_35
REMARK   10  A    between atoms: S1_35  and  C16_38
REMARK   11  A    between atoms: C19_46  and  N13_47
REMARK   12  A    between atoms: O5_50  and  C20_51
REMARK   13  A    between atoms: C20_51  and  N15_55
ROOT
HETATM    1  C9  UNL     1      22.750 -16.743  33.704  1.00  0.00     0.142 C
HETATM    2  C10 UNL     1      22.108 -15.474  34.227  1.00  0.00     0.058 C
HETATM    3  C11 UNL     1      22.544 -16.737  32.233  1.00  0.00     0.093 C
HETATM    4  N6  UNL     1      22.382 -16.752  31.080  1.00  0.00    -0.194 NA
ENDROOT
BRANCH   1   5
HETATM    5  N5  UNL     1      22.067 -17.897  34.236  1.00  0.00    -0.303 N
HETATM    6  C6  UNL     1      22.355 -19.201  33.968  1.00  0.00     0.142 A
HETATM    7  N3  UNL     1      23.242 -19.826  33.219  1.00  0.00    -0.336 N
HETATM    8  C7  UNL     1      21.458 -19.941  34.686  1.00  0.00     0.122 A
HETATM    9  C5  UNL     1      23.298 -21.154  33.135  1.00  0.00     0.183 A
ATOM     10  H3  UNL     1      23.910 -19.271  32.684  1.00  0.00     0.168 HD
HETATM   11  N2  UNL     1      22.428 -21.898  33.831  1.00  0.00    -0.336 N
HETATM   12  C4  UNL     1      21.480 -21.334  34.629  1.00  0.00     0.141 A
ATOM     13  H2  UNL     1      22.477 -22.914  33.761  1.00  0.00     0.168 HD
HETATM   14  N1  UNL     1      20.643 -22.006  35.288  1.00  0.00    -0.286 N
HETATM   15  C3  UNL     1      20.486 -23.393  35.365  1.00  0.00     0.366 C
ATOM     16  H1  UNL     1      19.987 -21.460  35.847  1.00  0.00     0.172 HD
HETATM   17  O2  UNL     1      19.947 -23.971  34.369  1.00  0.00    -0.238 OA
HETATM   18  N4  UNL     1      20.634 -19.130  35.381  1.00  0.00    -0.346 N
HETATM   19  C8  UNL     1      21.031 -17.878  35.086  1.00  0.00     0.187 A
ATOM     20  H4  UNL     1      19.872 -19.406  35.999  1.00  0.00     0.167 HD
BRANCH  15  21
HETATM   21  O1  UNL     1      20.884 -24.173  36.468  1.00  0.00    -0.294 OA
BRANCH  21  22
HETATM   22  C2  UNL     1      21.621 -25.350  36.250  1.00  0.00     0.179 C
HETATM   23  C1  UNL     1      21.277 -26.255  37.450  1.00  0.00     0.045 C
BRANCH  22  24
HETATM   24  C15 UNL     1      23.095 -25.144  36.140  1.00  0.00     0.270 C
BRANCH  24  25
HETATM   25  N10 UNL     1      23.582 -24.114  37.011  1.00  0.00    -0.284 N
ATOM     26  H10 UNL     1      23.187 -23.952  37.937  1.00  0.00     0.175 HD
BRANCH  25  27
HETATM   27  S1  UNL     1      24.865 -23.180  36.395  1.00  0.00     0.280 S
HETATM   28  O3  UNL     1      26.188 -23.594  36.986  1.00  0.00    -0.199 OA
HETATM   29  O4  UNL     1      24.906 -23.325  34.877  1.00  0.00    -0.199 OA
BRANCH  27  30
HETATM   30  C16 UNL     1      24.572 -21.497  36.702  1.00  0.00     0.194 A
HETATM   31  N11 UNL     1      23.542 -21.143  37.479  1.00  0.00    -0.332 N
HETATM   32  C17 UNL     1      23.290 -19.849  37.756  1.00  0.00     0.120 A
ATOM     33  H11 UNL     1      22.936 -21.866  37.869  1.00  0.00     0.168 HD
HETATM   34 CL1  UNL     1      21.908 -19.496  38.789  1.00  0.00    -0.063 Cl
HETATM   35  C18 UNL     1      24.085 -18.859  37.246  1.00  0.00     0.132 A
HETATM   36  N12 UNL     1      25.119 -19.212  36.466  1.00  0.00    -0.347 N
HETATM   37  C19 UNL     1      25.371 -20.501  36.190  1.00  0.00     0.139 A
ATOM     38  H12 UNL     1      25.723 -18.489  36.076  1.00  0.00     0.167 HD
BRANCH  37  39
HETATM   39  N13 UNL     1      26.357 -20.863  35.432  1.00  0.00    -0.383 N
ATOM     40 2H13 UNL     1      26.700 -21.823  35.410  1.00  0.00     0.157 HD
ATOM     41 1H13 UNL     1      26.790 -20.143  34.856  1.00  0.00     0.157 HD
ENDBRANCH  37  39
ENDBRANCH  27  30
ENDBRANCH  25  27
ENDBRANCH  24  25
BRANCH  24  42
HETATM   42  O5  UNL     1      23.777 -26.335  36.395  1.00  0.00    -0.292 OA
BRANCH  42  43
HETATM   43  C20 UNL     1      24.715 -26.935  35.580  1.00  0.00     0.229 C
HETATM   44  N14 UNL     1      24.516 -28.137  35.175  1.00  0.00    -0.364 N
ATOM     45 2H14 UNL     1      23.664 -28.615  35.469  1.00  0.00     0.159 HD
ATOM     46 1H14 UNL     1      25.209 -28.580  34.573  1.00  0.00     0.159 HD
BRANCH  43  47
HETATM   47  N15 UNL     1      25.907 -26.266  35.170  1.00  0.00    -0.264 N
HETATM   48 CL2  UNL     1      26.971 -27.075  34.072  1.00  0.00     0.014 Cl
ATOM     49  H15 UNL     1      26.126 -25.332  35.516  1.00  0.00     0.184 HD
ENDBRANCH  43  47
ENDBRANCH  42  43
ENDBRANCH  24  42
ENDBRANCH  22  24
ENDBRANCH  21  22
ENDBRANCH  15  21
ENDBRANCH   1   5
BRANCH   1  50
HETATM   50  C12 UNL     1      24.245 -16.780  33.948  1.00  0.00     0.196 C
BRANCH  50  51
HETATM   51  N7  UNL     1      25.000 -16.483  32.764  1.00  0.00    -0.283 N
HETATM   52  C13 UNL     1      25.781 -17.419  32.158  1.00  0.00     0.201 A
HETATM   53  N8  UNL     1      26.374 -16.857  31.091  1.00  0.00    -0.346 N
HETATM   54  C14 UNL     1      25.977 -15.580  31.015  1.00  0.00     0.198 A
ATOM     55  H8  UNL     1      27.015 -17.322  30.450  1.00  0.00     0.167 HD
HETATM   56  N9  UNL     1      25.144 -15.392  32.047  1.00  0.00    -0.293 N
ATOM     57  H9  UNL     1      24.678 -14.509  32.252  1.00  0.00     0.188 HD
ENDBRANCH  50  51
ENDBRANCH   1  50
TORSDOF 13
ENDMDL