MODEL 4
REMARK VINA RESULT: -7.372281353      3.636     10.915
REMARK  9 active torsions:
REMARK  status: ('A' for Active; 'I' for Inactive)
REMARK    1  A    between atoms: C2_5  and  C3_6
REMARK       I    between atoms: C3_6  and  N3_8
REMARK    2  A    between atoms: N3_8  and  N4_10
REMARK    3  A    between atoms: C4_12  and  C5_13
REMARK    4  A    between atoms: C5_13  and  C7_21
REMARK    5  A    between atoms: N5_14  and  N6_16
REMARK    6  A    between atoms: N6_16  and  C6_17
REMARK    7  A    between atoms: C6_17  and  O2_19
REMARK    8  A    between atoms: C9_27  and  O5_28
REMARK    9  A    between atoms: C13_36  and  C14_37
ROOT
HETATM    1  C3  UNL     1       5.573  -7.530   0.559  1.00  0.00     0.290 C
HETATM    2  O1  UNL     1       5.513  -7.419  -0.689  1.00  0.00    -0.264 OA
HETATM    3  N3  UNL     1       4.458  -7.830   1.340  1.00  0.00    -0.265 N
ATOM      4  H3  UNL     1       4.619  -8.004   2.332  1.00  0.00     0.190 HD
ENDROOT
BRANCH   1   5
HETATM    5  C2  UNL     1       6.912  -7.304   1.194  1.00  0.00     0.147 A
HETATM    6  N2  UNL     1       8.026  -7.963   0.941  1.00  0.00    -0.291 N
HETATM    7  N1  UNL     1       9.028  -7.415   1.688  1.00  0.00    -0.292 N
ATOM      8  H2  UNL     1       8.123  -8.748   0.297  1.00  0.00     0.187 HD
HETATM    9  C1  UNL     1      10.405  -7.836   1.642  1.00  0.00     0.178 C
HETATM   10  C18 UNL     1       8.522  -6.394   2.423  1.00  0.00     0.106 A
HETATM   11  C10 UNL     1       7.190  -6.352   2.081  1.00  0.00     0.097 A
HETATM   12  C17 UNL     1       9.029  -5.476   3.355  1.00  0.00     0.106 A
HETATM   13  N9  UNL     1       6.427  -5.424   2.659  1.00  0.00    -0.348 N
HETATM   14  C11 UNL     1       6.897  -4.548   3.544  1.00  0.00     0.103 A
ATOM     15  H9  UNL     1       5.438  -5.383   2.413  1.00  0.00     0.166 HD
HETATM   16  C12 UNL     1       6.271  -3.542   4.260  1.00  0.00     0.177 A
HETATM   17  C16 UNL     1       8.214  -4.542   3.917  1.00  0.00     0.091 A
HETATM   18  F1  UNL     1       4.938  -3.215   4.116  1.00  0.00    -0.201 F
HETATM   19  C13 UNL     1       7.204  -2.943   5.043  1.00  0.00     0.141 A
HETATM   20  N11 UNL     1       8.408  -3.556   4.834  1.00  0.00    -0.341 N
HETATM   21  C15 UNL     1       9.611  -3.184   5.502  1.00  0.00     0.157 C
HETATM   22  N12 UNL     1      10.382  -5.521   3.699  1.00  0.00    -0.097 NA
BRANCH  19  23
HETATM   23  C14 UNL     1       6.957  -1.875   6.031  1.00  0.00     0.284 C
HETATM   24  N10 UNL     1       6.395  -2.178   7.284  1.00  0.00    -0.056 NA
HETATM   25  O6  UNL     1       7.247  -0.663   5.770  1.00  0.00    -0.269 OA
ENDBRANCH  19  23
ENDBRANCH   1   5
BRANCH   3  26
HETATM   26  N4  UNL     1       3.196  -7.910   0.903  1.00  0.00    -0.307 N
HETATM   27  C4  UNL     1       2.069  -8.158   1.328  1.00  0.00     0.142 C
ATOM     28  H4  UNL     1       3.156  -7.700  -0.094  1.00  0.00     0.186 HD
BRANCH  27  29
HETATM   29  C5  UNL     1       0.898  -8.132   0.483  1.00  0.00     0.116 C
HETATM   30  N5  UNL     1       0.845  -8.815  -0.527  1.00  0.00    -0.228 N
ATOM     31  H5  UNL     1      -0.083  -8.591  -0.888  1.00  0.00     0.202 HD
BRANCH  30  32
HETATM   32  N6  UNL     1       1.265  -9.628  -1.373  1.00  0.00    -0.283 NA
BRANCH  32  33
HETATM   33  C6  UNL     1       1.691 -10.460  -2.257  1.00  0.00     0.326 C
HETATM   34  N7  UNL     1       1.515 -11.922  -1.842  1.00  0.00    -0.040 NA
BRANCH  33  35
HETATM   35  O2  UNL     1       2.237 -10.584  -3.467  1.00  0.00    -0.323 OA
ATOM     36  H2  UNL     1       2.548 -11.199  -4.121  1.00  0.00     0.221 HD
ENDBRANCH  33  35
ENDBRANCH  32  33
ENDBRANCH  30  32
BRANCH  29  37
HETATM   37  C7  UNL     1      -0.310  -7.282   0.759  1.00  0.00     0.162 A
HETATM   38  O3  UNL     1      -0.756  -6.362   0.048  1.00  0.00    -0.254 OA
HETATM   39  C8  UNL     1      -1.795  -5.745   0.375  1.00  0.00     0.372 A
HETATM   40  O4  UNL     1      -2.541  -4.819  -0.041  1.00  0.00    -0.238 OA
HETATM   41  N8  UNL     1      -2.146  -6.375   1.607  1.00  0.00    -0.280 N
HETATM   42  C9  UNL     1      -1.192  -7.334   1.814  1.00  0.00     0.181 A
ATOM     43  H8  UNL     1      -2.941  -6.156   2.208  1.00  0.00     0.173 HD
BRANCH  42  44
HETATM   44  O5  UNL     1      -1.191  -8.142   2.916  1.00  0.00    -0.344 OA
ATOM     45  H5  UNL     1      -1.253  -7.915   3.836  1.00  0.00     0.219 HD
ENDBRANCH  42  44
ENDBRANCH  29  37
ENDBRANCH  27  29
ENDBRANCH   3  26
TORSDOF 9
ENDMDL