MODEL 3
REMARK VINA RESULT: -7.335618682      4.283      9.439
REMARK  9 active torsions:
REMARK  status: ('A' for Active; 'I' for Inactive)
REMARK    1  A    between atoms: C2_5  and  C3_6
REMARK       I    between atoms: C3_6  and  N3_8
REMARK    2  A    between atoms: N3_8  and  C4_10
REMARK    3  A    between atoms: C4_10  and  C5_11
REMARK    4  A    between atoms: C5_11  and  N4_12
REMARK    5  A    between atoms: C6_13  and  C7_14
REMARK    6  A    between atoms: C7_14  and  N5_15
REMARK    7  A    between atoms: C15_30  and  N9_31
REMARK    8  A    between atoms: C16_36  and  N11_37
REMARK    9  A    between atoms: C18_43  and  N13_44
ROOT
HETATM    1  N4  UNL     1      -0.132  -8.404   2.465  1.00  0.00    -0.332 N
HETATM    2  C6  UNL     1       0.872  -7.754   1.904  1.00  0.00     0.032 A
HETATM    3  C13 UNL     1       0.362  -6.704   1.186  1.00  0.00     0.046 A
HETATM    4  C14 UNL     1      -0.990  -6.715   1.314  1.00  0.00     0.055 A
HETATM    5  C15 UNL     1      -2.028  -5.929   0.835  1.00  0.00     0.128 A
HETATM    6  N10 UNL     1      -3.284  -6.244   1.177  1.00  0.00    -0.176 N
ATOM      7  H10 UNL     1      -4.045  -5.663   0.824  1.00  0.00     0.186 HD
HETATM    8  C16 UNL     1      -3.589  -7.289   1.964  1.00  0.00     0.679 A
HETATM    9  N12 UNL     1      -2.586  -8.048   2.427  1.00  0.00    -0.176 N
ATOM     10  H12 UNL     1      -2.803  -8.844   3.027  1.00  0.00     0.186 HD
HETATM   11  C17 UNL     1      -1.282  -7.787   2.119  1.00  0.00     0.137 A
ENDROOT
BRANCH   1  12
HETATM   12  C5  UNL     1      -0.087  -9.591   3.335  1.00  0.00     0.150 C
BRANCH  12  13
HETATM   13  C4  UNL     1      -1.137 -10.579   2.840  1.00  0.00     0.143 C
BRANCH  13  14
HETATM   14  N3  UNL     1      -0.640 -11.253   1.660  1.00  0.00    -0.354 N
HETATM   15  C3  UNL     1      -1.322 -11.113   0.417  1.00  0.00     0.273 C
HETATM   16  O1  UNL     1      -2.351 -10.399   0.375  1.00  0.00    -0.266 OA
ATOM     17  H3  UNL     1       0.200 -11.829   1.718  1.00  0.00     0.162 HD
BRANCH  15  18
HETATM   18  C2  UNL     1      -0.872 -11.764  -0.797  1.00  0.00     0.160 A
HETATM   19  N2  UNL     1       0.235 -11.324  -1.468  1.00  0.00    -0.287 N
HETATM   20  N1  UNL     1       0.630 -11.930  -2.571  1.00  0.00    -0.246 N
ATOM     21  H2  UNL     1       0.758 -10.524  -1.114  1.00  0.00     0.187 HD
HETATM   22  C1  UNL     1       1.802 -11.503  -3.324  1.00  0.00     0.183 C
HETATM   23  C19 UNL     1      -0.068 -12.989  -3.038  1.00  0.00     0.342 A
HETATM   24  N14 UNL     1      -1.166 -13.446  -2.398  1.00  0.00    -0.292 N
HETATM   25  O2  UNL     1       0.323 -13.557  -4.096  1.00  0.00    -0.245 OA
HETATM   26  C18 UNL     1      -1.583 -12.843  -1.273  1.00  0.00     0.137 A
ATOM     27  H14 UNL     1      -1.677 -14.246  -2.769  1.00  0.00     0.172 HD
BRANCH  26  28
HETATM   28  N13 UNL     1      -2.643 -13.259  -0.627  1.00  0.00    -0.383 N
ATOM     29 2H13 UNL     1      -3.544 -13.364  -1.094  1.00  0.00     0.157 HD
ATOM     30 1H13 UNL     1      -2.575 -13.487   0.365  1.00  0.00     0.157 HD
ENDBRANCH  26  28
ENDBRANCH  15  18
ENDBRANCH  13  14
ENDBRANCH  12  13
ENDBRANCH   1  12
BRANCH   2  31
HETATM   31  C7  UNL     1       2.318  -8.087   2.010  1.00  0.00     0.188 C
BRANCH  31  32
HETATM   32  N5  UNL     1       2.945  -8.326   0.729  1.00  0.00    -0.322 N
HETATM   33  C8  UNL     1       2.430  -8.749  -0.433  1.00  0.00     0.185 A
HETATM   34  N6  UNL     1       3.374  -8.837  -1.382  1.00  0.00    -0.347 N
HETATM   35  C9  UNL     1       4.540  -8.466  -0.845  1.00  0.00     0.117 A
ATOM     36  H6  UNL     1       3.226  -9.136  -2.346  1.00  0.00     0.167 HD
HETATM   37  C10 UNL     1       5.822  -8.366  -1.353  1.00  0.00     0.135 A
HETATM   38  C12 UNL     1       4.276  -8.147   0.471  1.00  0.00     0.140 A
HETATM   39 CL1  UNL     1       6.125  -8.777  -3.023  1.00  0.00    -0.062 Cl
HETATM   40  N7  UNL     1       6.775  -7.950  -0.512  1.00  0.00    -0.341 N
HETATM   41  C11 UNL     1       6.542  -7.633   0.772  1.00  0.00     0.183 A
ATOM     42  H7  UNL     1       7.729  -7.868  -0.864  1.00  0.00     0.167 HD
HETATM   43  N8  UNL     1       5.291  -7.736   1.248  1.00  0.00    -0.336 N
ATOM     44  H8  UNL     1       5.108  -7.497   2.222  1.00  0.00     0.168 HD
ENDBRANCH  31  32
ENDBRANCH   2  31
BRANCH   5  45
HETATM   45  N9  UNL     1      -1.723  -4.930   0.082  1.00  0.00    -0.384 N
ATOM     46  H92 UNL     1      -2.393  -4.446  -0.515  1.00  0.00     0.157 HD
ATOM     47  H91 UNL     1      -0.754  -4.611   0.089  1.00  0.00     0.157 HD
ENDBRANCH   5  45
BRANCH   8  48
HETATM   48  N11 UNL     1      -4.816  -7.567   2.276  1.00  0.00    -0.234 N
ATOM     49 2H11 UNL     1      -5.469  -6.819   2.512  1.00  0.00     0.174 HD
ATOM     50 1H11 UNL     1      -5.158  -8.528   2.291  1.00  0.00     0.174 HD
ENDBRANCH   8  48
TORSDOF 9
ENDMDL