MODEL 4
REMARK VINA RESULT: -6.425732745      2.884      8.202
REMARK  11 active torsions:
REMARK  status: ('A' for Active; 'I' for Inactive)
REMARK    1  A    between atoms: C3_8  and  C4_9
REMARK    2  A    between atoms: C4_9  and  C5_11
REMARK    3  A    between atoms: C5_11  and  S2_12
REMARK    4  A    between atoms: S2_12  and  C6_13
REMARK    5  A    between atoms: C8_17  and  C9_18
REMARK    6  A    between atoms: C9_18  and  C10_19
REMARK    7  A    between atoms: C11_20  and  O3_21
REMARK    8  A    between atoms: N4_23  and  C12_24
REMARK    9  A    between atoms: C15_32  and  C16_33
REMARK   10  A    between atoms: C16_33  and  O6_34
REMARK   11  A    between atoms: N6_36  and  O7_37
ROOT
HETATM    1  C6  UNL     1       1.308 -10.251  -1.440  1.00  0.00     0.146 A
HETATM    2  N3  UNL     1       0.416 -11.187  -1.102  1.00  0.00    -0.333 N
ATOM      3  H3  UNL     1      -0.148 -11.185  -0.252  1.00  0.00     0.168 HD
HETATM    4  C7  UNL     1       0.377 -12.133  -2.061  1.00  0.00     0.093 A
HETATM    5  C8  UNL     1      -0.184 -13.315  -2.481  1.00  0.00     0.027 A
HETATM    6  C15 UNL     1       0.381 -13.654  -3.692  1.00  0.00     0.099 A
HETATM    7  N6  UNL     1       1.267 -12.712  -4.020  1.00  0.00    -0.203 N
HETATM    8  C17 UNL     1       1.286 -11.765  -3.033  1.00  0.00     0.163 A
HETATM    9  N7  UNL     1       1.840 -10.613  -2.627  1.00  0.00    -0.319 N
ATOM     10  H7  UNL     1       2.552 -10.091  -3.137  1.00  0.00     0.169 HD
ENDROOT
BRANCH   5  11
HETATM   11  C9  UNL     1      -1.105 -13.987  -1.806  1.00  0.00     0.037 C
BRANCH  11  12
HETATM   12  C10 UNL     1      -2.485 -13.571  -1.708  1.00  0.00     0.084 A
HETATM   13  C11 UNL     1      -2.920 -12.650  -0.784  1.00  0.00     0.164 A
HETATM   14  N4  UNL     1      -4.215 -12.280  -0.696  1.00  0.00    -0.252 N
HETATM   15  C13 UNL     1      -5.063 -12.852  -1.552  1.00  0.00     0.333 A
HETATM   16  O4  UNL     1      -6.292 -12.510  -1.477  1.00  0.00    -0.246 OA
HETATM   17  N5  UNL     1      -4.712 -13.757  -2.482  1.00  0.00    -0.274 N
HETATM   18  C14 UNL     1      -3.407 -14.122  -2.560  1.00  0.00     0.263 A
ATOM     19  H5  UNL     1      -5.407 -14.159  -3.111  1.00  0.00     0.173 HD
HETATM   20  O5  UNL     1      -3.094 -14.972  -3.434  1.00  0.00    -0.267 OA
BRANCH  13  21
HETATM   21  O3  UNL     1      -2.010 -12.061   0.106  1.00  0.00    -0.345 OA
ATOM     22  H3  UNL     1      -1.985 -11.117   0.208  1.00  0.00     0.219 HD
ENDBRANCH  13  21
BRANCH  14  23
HETATM   23  C12 UNL     1      -4.717 -11.308   0.265  1.00  0.00     0.360 C
HETATM   24  F1  UNL     1      -4.634 -10.042  -0.326  1.00  0.00    -0.233 F
ENDBRANCH  14  23
ENDBRANCH  11  12
ENDBRANCH   5  11
BRANCH   6  25
HETATM   25  C16 UNL     1       0.051 -14.758  -4.373  1.00  0.00     0.164 C
BRANCH  25  26
HETATM   26  O6  UNL     1       0.878 -15.307  -5.308  1.00  0.00    -0.370 OA
ATOM     27  H6  UNL     1       0.842 -16.229  -5.536  1.00  0.00     0.216 HD
ENDBRANCH  25  26
ENDBRANCH   6  25
BRANCH   7  28
HETATM   28  O7  UNL     1       2.049 -12.652  -5.129  1.00  0.00    -0.281 OA
ATOM     29  H7  UNL     1       2.446 -11.884  -5.522  1.00  0.00     0.245 HD
ENDBRANCH   7  28
BRANCH   1  30
HETATM   30  S2  UNL     1       1.774  -8.798  -0.548  1.00  0.00    -0.086 SA
BRANCH  30  31
HETATM   31  C5  UNL     1       1.926  -9.033   1.223  1.00  0.00     0.168 C
BRANCH  31  32
HETATM   32  C4  UNL     1       1.174  -8.037   2.006  1.00  0.00     0.188 C
HETATM   33  O2  UNL     1       1.746  -7.446   2.942  1.00  0.00    -0.290 OA
BRANCH  32  34
HETATM   34  C3  UNL     1      -0.250  -7.712   1.716  1.00  0.00     0.114 A
HETATM   35  C1  UNL     1      -1.236  -8.658   1.877  1.00  0.00     0.122 A
HETATM   36  N1  UNL     1      -1.105 -10.010   2.328  1.00  0.00    -0.092 NA
HETATM   37  S1  UNL     1      -2.638  -7.792   1.404  1.00  0.00    -0.012 SA
HETATM   38  C2  UNL     1      -1.900  -6.306   1.037  1.00  0.00     0.290 A
HETATM   39  O1  UNL     1      -2.433  -5.215   0.614  1.00  0.00    -0.260 OA
HETATM   40  N2  UNL     1      -0.613  -6.532   1.291  1.00  0.00    -0.312 N
ATOM     41  H2  UNL     1       0.079  -5.795   1.154  1.00  0.00     0.170 HD
ENDBRANCH  32  34
ENDBRANCH  31  32
ENDBRANCH  30  31
ENDBRANCH   1  30
TORSDOF 11
ENDMDL