MODEL 1
REMARK VINA RESULT: -6.450382351      0.000      0.000
REMARK  13 active torsions:
REMARK  status: ('A' for Active; 'I' for Inactive)
REMARK    1  A    between atoms: C2_2  and  C3_7
REMARK    2  A    between atoms: N1_3  and  O1_5
REMARK       I    between atoms: C3_7  and  N2_9
REMARK    3  A    between atoms: N2_9  and  C4_11
REMARK    4  A    between atoms: C4_11  and  O3_12
REMARK    5  A    between atoms: C5_14  and  O4_15
REMARK    6  A    between atoms: C6_17  and  O5_18
REMARK    7  A    between atoms: O5_18  and  C7_19
REMARK    8  A    between atoms: C9_23  and  N3_24
REMARK    9  A    between atoms: C9_23  and  C10_28
REMARK   10  A    between atoms: C10_28  and  O9_30
REMARK   11  A    between atoms: O9_30  and  C11_31
REMARK   12  A    between atoms: C16_36  and  N4_37
REMARK   13  A    between atoms: C17_41  and  N5_43
ROOT
HETATM    1  C4  UNL     1       0.546  -9.107   1.662  1.00  0.00     0.182 C
HETATM    2  C5  UNL     1       0.725  -9.696   0.282  1.00  0.00     0.206 C
HETATM    3  C6  UNL     1      -0.237 -10.868   0.208  1.00  0.00     0.195 C
HETATM    4  C17 UNL     1      -0.530 -11.212   1.642  1.00  0.00     0.169 C
HETATM    5  C18 UNL     1      -2.008 -11.057   1.929  1.00  0.00     0.051 C
HETATM    6  C19 UNL     1       0.316 -10.317   2.502  1.00  0.00     0.178 C
HETATM    7 CL1  UNL     1       1.888 -11.135   2.800  1.00  0.00    -0.117 Cl
ENDROOT
BRANCH   3   8
HETATM    8  O5  UNL     1       0.306 -11.955  -0.424  1.00  0.00    -0.348 OA
BRANCH   8   9
HETATM    9  C7  UNL     1       0.125 -11.978  -1.808  1.00  0.00     0.300 C
HETATM   10  O6  UNL     1       1.442 -12.264  -2.320  1.00  0.00    -0.285 OA
HETATM   11  C8  UNL     1       1.696 -13.537  -2.785  1.00  0.00     0.308 C
HETATM   12  O7  UNL     1       2.602 -14.305  -2.340  1.00  0.00    -0.262 OA
HETATM   13  C9  UNL     1       0.828 -14.040  -3.901  1.00  0.00     0.297 C
HETATM   14  C15 UNL     1      -0.512 -13.361  -3.748  1.00  0.00     0.098 C
HETATM   15  C16 UNL     1      -0.755 -13.107  -2.279  1.00  0.00     0.242 C
BRANCH  13  16
HETATM   16  N3  UNL     1       1.436 -13.710  -5.184  1.00  0.00    -0.051 N
ATOM     17  H33 UNL     1       2.441 -13.555  -5.104  1.00  0.00     0.276 HD
ATOM     18  H32 UNL     1       1.460 -14.511  -5.815  1.00  0.00     0.276 HD
ATOM     19  H31 UNL     1       0.955 -12.911  -5.597  1.00  0.00     0.276 HD
ENDBRANCH  13  16
BRANCH  13  20
HETATM   20  C10 UNL     1       0.620 -15.499  -3.822  1.00  0.00     0.306 C
HETATM   21  O8  UNL     1       1.027 -16.326  -4.673  1.00  0.00    -0.262 OA
BRANCH  20  22
HETATM   22  O9  UNL     1      -0.078 -16.020  -2.727  1.00  0.00    -0.309 OA
BRANCH  22  23
HETATM   23  C11 UNL     1      -1.276 -16.750  -2.879  1.00  0.00     0.060 C
HETATM   24  C12 UNL     1      -2.163 -16.435  -1.677  1.00  0.00     0.045 C
HETATM   25  C13 UNL     1      -2.034 -16.425  -4.131  1.00  0.00     0.045 C
HETATM   26  C14 UNL     1      -0.922 -18.226  -2.775  1.00  0.00     0.045 C
ENDBRANCH  22  23
ENDBRANCH  20  22
ENDBRANCH  13  20
BRANCH  15  27
HETATM   27  N4  UNL     1      -2.166 -12.797  -2.128  1.00  0.00    -0.070 N
ATOM     28  H43 UNL     1      -2.300 -11.850  -1.774  1.00  0.00     0.274 HD
ATOM     29  H42 UNL     1      -2.621 -12.696  -3.035  1.00  0.00     0.274 HD
ATOM     30  H41 UNL     1      -2.647 -13.482  -1.547  1.00  0.00     0.274 HD
ENDBRANCH  15  27
ENDBRANCH   8   9
ENDBRANCH   3   8
BRANCH   2  31
HETATM   31  O4  UNL     1       2.027 -10.074   0.017  1.00  0.00    -0.388 OA
ATOM     32  H4  UNL     1       2.284  -9.923  -0.885  1.00  0.00     0.210 HD
ENDBRANCH   2  31
BRANCH   4  33
HETATM   33  N5  UNL     1      -0.119 -12.584   1.980  1.00  0.00    -0.067 N
ATOM     34  H53 UNL     1       0.565 -12.940   1.312  1.00  0.00     0.275 HD
ATOM     35  H52 UNL     1       0.455 -12.600   2.823  1.00  0.00     0.275 HD
ATOM     36  H51 UNL     1      -0.915 -13.215   2.065  1.00  0.00     0.275 HD
ENDBRANCH   4  33
BRANCH   1  37
HETATM   37  N2  UNL     1      -0.599  -8.232   1.736  1.00  0.00    -0.321 N
HETATM   38  C3  UNL     1      -0.749  -7.145   0.853  1.00  0.00     0.268 C
HETATM   39  O2  UNL     1       0.148  -6.945  -0.018  1.00  0.00    -0.266 OA
ATOM     40  H2  UNL     1      -1.315  -8.405   2.443  1.00  0.00     0.166 HD
BRANCH  38  41
HETATM   41  C2  UNL     1      -1.872  -6.233   0.879  1.00  0.00     0.095 C
HETATM   42  C1  UNL     1      -1.855  -4.917   0.165  1.00  0.00     0.076 C
HETATM   43  N1  UNL     1      -2.951  -6.512   1.522  1.00  0.00    -0.268 N
ATOM     44  H1  UNL     1      -2.991  -7.403   2.018  1.00  0.00     0.194 HD
BRANCH  43  45
HETATM   45  O1  UNL     1      -4.035  -5.708   1.586  1.00  0.00    -0.290 OA
ATOM     46  H1  UNL     1      -4.933  -6.014   1.584  1.00  0.00     0.244 HD
ENDBRANCH  43  45
ENDBRANCH  38  41
ENDBRANCH   1  37
BRANCH   1  47
HETATM   47  O3  UNL     1       1.692  -8.404   2.037  1.00  0.00    -0.367 OA
ATOM     48  H3  UNL     1       2.393  -9.018   2.221  1.00  0.00     0.212 HD
ENDBRANCH   1  47
TORSDOF 13
ENDMDL