MODEL 2
REMARK VINA RESULT: -5.676681823      1.050      1.271
REMARK  7 active torsions:
REMARK  status: ('A' for Active; 'I' for Inactive)
REMARK    1  A    between atoms: N1_2  and  C3_5
REMARK    2  A    between atoms: C4_6  and  C5_7
REMARK    3  A    between atoms: C6_12  and  N4_13
REMARK       I    between atoms: N4_13  and  C7_15
REMARK       I    between atoms: C7_15  and  N5_17
REMARK    4  A    between atoms: C9_21  and  N8_22
REMARK       I    between atoms: N8_22  and  C10_24
REMARK    5  A    between atoms: C10_24  and  C11_26
REMARK    6  A    between atoms: C11_26  and  C12_28
REMARK    7  A    between atoms: C12_28  and  O6_29
ROOT
HETATM    1  C1  UNL     1       1.884 -10.778   2.644  1.00  0.00     0.169 C
HETATM    2  N1  UNL     1       2.512  -9.488   2.666  1.00  0.00    -0.290 N
HETATM    3  C2  UNL     1       2.041  -8.531   3.583  1.00  0.00     0.184 C
HETATM    4  N2  UNL     1       1.650  -7.728   4.331  1.00  0.00    -0.172 NA
ENDROOT
BRANCH   2   5
HETATM    5  C3  UNL     1       3.582  -9.094   1.809  1.00  0.00     0.065 C
HETATM    6  C4  UNL     1       3.424  -8.792   0.543  1.00  0.00     0.143 C
HETATM    7  N3  UNL     1       4.533  -8.396  -0.253  1.00  0.00    -0.294 N
HETATM    8  S1  UNL     1       5.399  -8.478  -1.785  1.00  0.00    -0.022 SA
HETATM    9  C13 UNL     1       5.585  -7.502   0.193  1.00  0.00     0.193 C
HETATM   10  C6  UNL     1       6.713  -8.065  -0.646  1.00  0.00     0.203 C
HETATM   11  S3  UNL     1       5.964  -7.701   1.938  1.00  0.00    -0.134 SA
HETATM   12  C14 UNL     1       4.901  -9.061   2.438  1.00  0.00     0.136 C
BRANCH   6  13
HETATM   13  C5  UNL     1       2.103  -8.850  -0.065  1.00  0.00     0.229 C
HETATM   14  O1  UNL     1       1.625  -9.839  -0.671  1.00  0.00    -0.643 OA
HETATM   15  O2  UNL     1       1.247  -7.743  -0.004  1.00  0.00    -0.643 OA
ENDBRANCH   6  13
BRANCH  10  16
HETATM   16  N4  UNL     1       7.360  -9.181  -0.029  1.00  0.00    -0.324 N
HETATM   17  C7  UNL     1       8.423  -9.914  -0.648  1.00  0.00     0.338 C
HETATM   18  O3  UNL     1       8.777  -9.523  -1.794  1.00  0.00    -0.246 OA
HETATM   19  N5  UNL     1       9.054 -11.007  -0.039  1.00  0.00    -0.205 N
HETATM   20  N6  UNL     1       8.775 -11.545   1.204  1.00  0.00    -0.023 NA
HETATM   21  C9  UNL     1      10.121 -11.793  -0.587  1.00  0.00     0.227 C
HETATM   22  N7  UNL     1       9.968 -11.993   1.742  1.00  0.00    -0.122 NA
HETATM   23  C8  UNL     1      10.931 -12.087   0.683  1.00  0.00     0.180 C
ATOM     24  H4  UNL     1       7.048  -9.470   0.898  1.00  0.00     0.165 HD
BRANCH  21  25
HETATM   25  N8  UNL     1       9.623 -13.042  -1.078  1.00  0.00    -0.330 N
HETATM   26  C10 UNL     1       9.189 -13.202  -2.419  1.00  0.00     0.292 C
HETATM   27  O4  UNL     1       9.227 -12.228  -3.234  1.00  0.00    -0.264 OA
ATOM     28  H8  UNL     1       9.579 -13.841  -0.446  1.00  0.00     0.165 HD
BRANCH  26  29
HETATM   29  C11 UNL     1       8.684 -14.468  -2.918  1.00  0.00     0.255 C
HETATM   30  O5  UNL     1       7.483 -14.535  -3.269  1.00  0.00    -0.283 OA
BRANCH  29  31
HETATM   31  C12 UNL     1       9.528 -15.679  -3.028  1.00  0.00     0.270 C
HETATM   32  S2  UNL     1       8.991 -16.730  -4.419  1.00  0.00    -0.054 SA
BRANCH  31  33
HETATM   33  O6  UNL     1      10.851 -15.329  -3.285  1.00  0.00    -0.376 OA
ATOM     34  H6  UNL     1      11.400 -15.530  -2.537  1.00  0.00     0.211 HD
ENDBRANCH  31  33
ENDBRANCH  29  31
ENDBRANCH  26  29
ENDBRANCH  21  25
ENDBRANCH  10  16
ENDBRANCH   2   5
TORSDOF 7
ENDMDL