MODEL 1
REMARK VINA RESULT: -6.560730742      0.000      0.000
REMARK  10 active torsions:
REMARK  status: ('A' for Active; 'I' for Inactive)
REMARK    1  A    between atoms: O1_2  and  C2_3
REMARK    2  A    between atoms: C2_3  and  C3_5
REMARK    3  A    between atoms: C3_5  and  C4_7
REMARK    4  A    between atoms: C4_7  and  N1_8
REMARK    5  A    between atoms: N1_8  and  C5_11
REMARK    6  A    between atoms: N4_19  and  C9_20
REMARK    7  A    between atoms: C12_25  and  N6_26
REMARK    8  A    between atoms: C14_33  and  N8_34
REMARK       I    between atoms: N8_34  and  C15_36
REMARK    9  A    between atoms: C15_36  and  C16_38
REMARK   10  A    between atoms: C16_38  and  N9_39
ROOT
HETATM    1  C16 UNL     1       3.295  -7.381   7.410  1.00  0.00     0.428 C
HETATM    2  F1  UNL     1       4.565  -7.191   7.980  1.00  0.00    -0.185 F
HETATM    3  C17 UNL     1       2.353  -6.568   8.160  1.00  0.00     0.144 C
HETATM    4  N10 UNL     1       1.603  -5.898   8.747  1.00  0.00    -0.191 NA
ENDROOT
BRANCH   1   5
HETATM    5  C15 UNL     1       3.354  -6.928   6.000  1.00  0.00     0.302 C
HETATM    6  N8  UNL     1       4.561  -6.470   5.414  1.00  0.00    -0.345 N
ATOM      7  H8  UNL     1       5.405  -6.452   5.986  1.00  0.00     0.163 HD
HETATM    8  O5  UNL     1       2.268  -6.969   5.336  1.00  0.00    -0.266 OA
BRANCH   6   9
HETATM    9  C14 UNL     1       4.648  -6.026   4.032  1.00  0.00     0.150 C
HETATM   10  C7  UNL     1       4.804  -7.203   3.155  1.00  0.00     0.079 A
HETATM   11  C6  UNL     1       5.439  -7.082   1.957  1.00  0.00     0.136 A
HETATM   12  N3  UNL     1       4.411  -8.512   3.270  1.00  0.00    -0.350 N
HETATM   13  N2  UNL     1       5.960  -5.787   1.610  1.00  0.00    -0.346 N
HETATM   14  N4  UNL     1       5.446  -8.290   1.326  1.00  0.00    -0.285 N
HETATM   15  C5  UNL     1       6.431  -4.874   2.627  1.00  0.00     0.296 C
ATOM     16  H2  UNL     1       5.998  -5.508   0.629  1.00  0.00     0.163 HD
HETATM   17  C18 UNL     1       5.623  -4.930   3.880  1.00  0.00     0.025 C
HETATM   18  C19 UNL     1       4.813  -3.617   3.970  1.00  0.00     0.021 C
HETATM   19  C20 UNL     1       6.486  -4.892   5.149  1.00  0.00     0.021 C
HETATM   20  C8  UNL     1       4.812  -9.137   2.152  1.00  0.00     0.191 A
ATOM     21  H3  UNL     1       3.910  -8.930   4.054  1.00  0.00     0.166 HD
BRANCH  15  22
HETATM   22  N1  UNL     1       7.842  -5.108   2.843  1.00  0.00    -0.046 N
ATOM     23  H12 UNL     1       7.978  -5.803   3.576  1.00  0.00     0.280 HD
ATOM     24  H11 UNL     1       8.273  -4.297   3.289  1.00  0.00     0.280 HD
BRANCH  22  25
HETATM   25  C4  UNL     1       8.570  -5.476   1.660  1.00  0.00     0.324 C
BRANCH  25  26
HETATM   26  C3  UNL     1      10.011  -5.146   1.699  1.00  0.00     0.249 C
HETATM   27  O3  UNL     1      10.878  -5.993   2.008  1.00  0.00    -0.285 OA
BRANCH  26  28
HETATM   28  C2  UNL     1      10.498  -3.802   1.374  1.00  0.00     0.330 C
HETATM   29  O2  UNL     1       9.858  -2.774   1.753  1.00  0.00    -0.256 OA
BRANCH  28  30
HETATM   30  O1  UNL     1      11.656  -3.588   0.650  1.00  0.00    -0.320 OA
HETATM   31  C1  UNL     1      12.860  -3.177   1.248  1.00  0.00     0.213 C
ENDBRANCH  28  30
ENDBRANCH  26  28
ENDBRANCH  25  26
ENDBRANCH  22  25
ENDBRANCH  15  22
BRANCH  14  32
HETATM   32  C9  UNL     1       6.010  -8.514   0.067  1.00  0.00     0.133 A
HETATM   33  C10 UNL     1       5.169  -8.449  -1.033  1.00  0.00     0.055 A
HETATM   34  C11 UNL     1       3.719  -8.157  -0.922  1.00  0.00     0.071 C
HETATM   35  N5  UNL     1       5.734  -8.670  -2.232  1.00  0.00    -0.194 N
HETATM   36  C12 UNL     1       7.042  -8.941  -2.387  1.00  0.00     0.679 A
ATOM     37  H5  UNL     1       5.143  -8.630  -3.062  1.00  0.00     0.184 HD
HETATM   38  N7  UNL     1       7.829  -8.997  -1.296  1.00  0.00    -0.154 N
HETATM   39  C13 UNL     1       7.355  -8.792  -0.057  1.00  0.00     0.288 A
ATOM     40  H7  UNL     1       8.821  -9.202  -1.415  1.00  0.00     0.187 HD
HETATM   41  O4  UNL     1       8.128  -8.854   0.958  1.00  0.00    -0.265 OA
BRANCH  36  42
HETATM   42  N6  UNL     1       7.545  -9.150  -3.561  1.00  0.00    -0.234 N
ATOM     43  H62 UNL     1       7.093  -9.802  -4.202  1.00  0.00     0.174 HD
ATOM     44  H61 UNL     1       8.392  -8.670  -3.862  1.00  0.00     0.174 HD
ENDBRANCH  36  42
ENDBRANCH  14  32
ENDBRANCH   6   9
ENDBRANCH   1   5
BRANCH   1  45
HETATM   45  N9  UNL     1       2.951  -8.769   7.455  1.00  0.00    -0.020 N
ATOM     46  H93 UNL     1       2.033  -8.951   7.050  1.00  0.00     0.280 HD
ATOM     47  H92 UNL     1       3.510  -9.325   6.808  1.00  0.00     0.280 HD
ATOM     48  H91 UNL     1       3.023  -9.109   8.414  1.00  0.00     0.280 HD
ENDBRANCH   1  45
TORSDOF 10
ENDMDL