MODEL 1
REMARK VINA RESULT: -6.643025876      0.000      0.000
REMARK  11 active torsions:
REMARK  status: ('A' for Active; 'I' for Inactive)
REMARK    1  A    between atoms: N1_1  and  C1_4
REMARK    2  A    between atoms: C2_7  and  N3_8
REMARK    3  A    between atoms: N3_8  and  N4_10
REMARK    4  A    between atoms: C6_19  and  N6_20
REMARK    5  A    between atoms: C9_23  and  N7_24
REMARK    6  A    between atoms: C11_29  and  O1_30
REMARK    7  A    between atoms: O1_30  and  C12_31
REMARK    8  A    between atoms: C12_31  and  C13_32
REMARK    9  A    between atoms: N8_34  and  N9_35
REMARK       I    between atoms: N10_37  and  C15_39
REMARK   10  A    between atoms: C16_44  and  N13_45
REMARK   11  A    between atoms: N13_45  and  N14_47
ROOT
HETATM    1  C1  UNL     1       0.825 -12.201  -2.881  1.00  0.00     0.130 A
HETATM    2  N2  UNL     1       1.068 -12.932  -4.004  1.00  0.00    -0.175 N
ATOM      3  H2  UNL     1       1.924 -12.772  -4.536  1.00  0.00     0.186 HD
HETATM    4  C2  UNL     1       0.190 -13.861  -4.416  1.00  0.00     0.698 A
HETATM    5  N5  UNL     1      -0.937 -14.090  -3.739  1.00  0.00    -0.186 N
ATOM      6  H5  UNL     1      -1.588 -14.800  -4.074  1.00  0.00     0.184 HD
HETATM    7  C3  UNL     1      -1.228 -13.399  -2.623  1.00  0.00     0.104 A
HETATM    8  C4  UNL     1      -2.433 -13.653  -2.013  1.00  0.00     0.146 A
HETATM    9  F1  UNL     1      -3.240 -14.610  -2.515  1.00  0.00    -0.204 F
HETATM   10  C5  UNL     1      -2.767 -12.926  -0.916  1.00  0.00     0.077 A
HETATM   11  C6  UNL     1      -1.904 -11.934  -0.405  1.00  0.00     0.068 A
HETATM   12  C11 UNL     1      -0.716 -11.706  -1.020  1.00  0.00     0.111 A
HETATM   13  C17 UNL     1      -0.323 -12.431  -2.177  1.00  0.00     0.074 A
ENDROOT
BRANCH  12  14
HETATM   14  O1  UNL     1       0.250 -10.770  -0.597  1.00  0.00    -0.347 OA
BRANCH  14  15
HETATM   15  C12 UNL     1       1.008 -10.837   0.566  1.00  0.00     0.190 C
BRANCH  15  16
HETATM   16  C13 UNL     1       1.218  -9.736   1.509  1.00  0.00     0.102 C
HETATM   17  C14 UNL     1       0.060  -8.860   1.835  1.00  0.00     0.185 C
HETATM   18  N8  UNL     1       0.373  -7.604   1.200  1.00  0.00    -0.217 N
HETATM   19  N12 UNL     1       1.680  -7.669   0.746  1.00  0.00    -0.269 N
HETATM   20  C16 UNL     1       2.204  -8.806   0.883  1.00  0.00     0.125 C
ATOM     21  H12 UNL     1       2.171  -6.872   0.339  1.00  0.00     0.190 HD
BRANCH  18  22
HETATM   22  N9  UNL     1      -0.455  -6.471   1.034  1.00  0.00    -0.222 N
HETATM   23  N10 UNL     1      -1.701  -6.657   0.876  1.00  0.00    -0.238 N
HETATM   24  C15 UNL     1      -2.569  -5.545   0.705  1.00  0.00     0.348 C
ATOM     25  H10 UNL     1      -2.079  -7.604   0.871  1.00  0.00     0.193 HD
HETATM   26  N11 UNL     1      -2.409  -4.567  -0.313  1.00  0.00    -0.038 NA
HETATM   27  O2  UNL     1      -3.536  -5.415   1.498  1.00  0.00    -0.249 OA
ATOM     28  H9  UNL     1      -0.062  -5.529   1.041  1.00  0.00     0.210 HD
ENDBRANCH  18  22
BRANCH  20  29
HETATM   29  N13 UNL     1       3.556  -9.163   0.498  1.00  0.00    -0.228 N
ATOM     30  H13 UNL     1       4.121  -9.717   1.142  1.00  0.00     0.194 HD
BRANCH  29  31
HETATM   31  N14 UNL     1       4.109  -8.777  -0.721  1.00  0.00    -0.037 N
HETATM   32  O3  UNL     1       3.521  -9.121  -1.760  1.00  0.00    -0.516 OA
HETATM   33  O4  UNL     1       5.257  -8.043  -0.852  1.00  0.00    -0.516 OA
ENDBRANCH  29  31
ENDBRANCH  20  29
ENDBRANCH  15  16
ENDBRANCH  14  15
ENDBRANCH  12  14
BRANCH  11  34
HETATM   34  N6  UNL     1      -2.429 -11.164   0.661  1.00  0.00    -0.376 N
HETATM   35  C7  UNL     1      -2.474 -11.516   2.039  1.00  0.00     0.125 C
HETATM   36  C8  UNL     1      -3.206 -10.407   2.762  1.00  0.00     0.054 C
HETATM   37  C9  UNL     1      -4.061  -9.832   1.652  1.00  0.00     0.202 C
HETATM   38  C10 UNL     1      -3.095  -9.891   0.476  1.00  0.00     0.155 C
BRANCH  37  39
HETATM   39  N7  UNL     1      -4.508  -8.501   1.949  1.00  0.00    -0.073 N
ATOM     40  H73 UNL     1      -4.020  -8.121   2.761  1.00  0.00     0.274 HD
ATOM     41  H72 UNL     1      -4.188  -7.838   1.243  1.00  0.00     0.274 HD
ATOM     42  H71 UNL     1      -5.520  -8.454   2.070  1.00  0.00     0.274 HD
ENDBRANCH  37  39
ENDBRANCH  11  34
BRANCH   1  43
HETATM   43  N1  UNL     1       1.622 -11.255  -2.572  1.00  0.00    -0.384 N
ATOM     44  H12 UNL     1       2.417 -11.405  -1.949  1.00  0.00     0.157 HD
ATOM     45  H11 UNL     1       1.416 -10.307  -2.889  1.00  0.00     0.157 HD
ENDBRANCH   1  43
BRANCH   4  46
HETATM   46  N3  UNL     1       0.489 -14.591  -5.583  1.00  0.00    -0.138 N
ATOM     47  H3  UNL     1       0.185 -15.562  -5.660  1.00  0.00     0.205 HD
BRANCH  46  48
HETATM   48  N4  UNL     1       1.198 -14.005  -6.641  1.00  0.00    -0.331 N
ATOM     49  H42 UNL     1       0.676 -13.488  -7.348  1.00  0.00     0.177 HD
ATOM     50  H41 UNL     1       2.212 -14.092  -6.705  1.00  0.00     0.177 HD
ENDBRANCH  46  48
ENDBRANCH   4  46
TORSDOF 11
ENDMDL