MODEL 1
REMARK VINA RESULT: -6.464623280      0.000      0.000
REMARK  11 active torsions:
REMARK  status: ('A' for Active; 'I' for Inactive)
REMARK    1  A    between atoms: N1_1  and  C1_4
REMARK    2  A    between atoms: C2_7  and  C3_8
REMARK    3  A    between atoms: C3_8  and  N3_9
REMARK    4  A    between atoms: C3_8  and  C7_18
REMARK    5  A    between atoms: N3_9  and  O1_10
REMARK    6  A    between atoms: O1_10  and  C4_11
REMARK       I    between atoms: C7_18  and  N6_20
REMARK    7  A    between atoms: N6_20  and  C8_22
REMARK    8  A    between atoms: C10_25  and  C11_26
REMARK    9  A    between atoms: N7_27  and  O3_29
REMARK   10  A    between atoms: C12_31  and  C13_32
REMARK   11  A    between atoms: C15_40  and  O6_41
ROOT
HETATM    1  C7  UNL     1       8.452  -6.262   1.906  1.00  0.00     0.245 C
HETATM    2  O2  UNL     1       8.432  -5.637   0.798  1.00  0.00    -0.271 OA
HETATM    3  N6  UNL     1       7.210  -6.744   2.398  1.00  0.00    -0.348 N
ATOM      4  H6  UNL     1       7.194  -7.247   3.285  1.00  0.00     0.163 HD
ENDROOT
BRANCH   3   5
HETATM    5  C8  UNL     1       5.963  -6.546   1.683  1.00  0.00     0.172 C
HETATM    6  C9  UNL     1       5.373  -7.802   1.182  1.00  0.00     0.147 C
HETATM    7 CL1  UNL     1       5.714  -9.122   2.359  1.00  0.00    -0.117 Cl
HETATM    8  C10 UNL     1       3.890  -7.842   0.964  1.00  0.00     0.015 C
HETATM    9  C12 UNL     1       3.145  -7.187   1.860  1.00  0.00     0.140 C
HETATM   10  N8  UNL     1       3.890  -6.489   2.919  1.00  0.00    -0.239 N
HETATM   11  N9  UNL     1       4.129  -6.164   4.185  1.00  0.00    -0.281 N
HETATM   12  C15 UNL     1       5.034  -5.724   2.518  1.00  0.00     0.233 A
HETATM   13  C14 UNL     1       5.174  -5.544   3.920  1.00  0.00     0.168 A
ATOM     14  H9  UNL     1       3.635  -6.355   5.057  1.00  0.00     0.188 HD
HETATM   15  N10 UNL     1       6.109  -4.847   4.777  1.00  0.00    -0.081 NA
BRANCH   8  16
HETATM   16  C11 UNL     1       3.370  -8.565  -0.168  1.00  0.00     0.125 C
HETATM   17  N7  UNL     1       3.732  -8.824  -1.314  1.00  0.00    -0.280 N
ATOM     18  H7  UNL     1       4.636  -8.465  -1.623  1.00  0.00     0.193 HD
BRANCH  17  19
HETATM   19  O3  UNL     1       3.004  -9.560  -2.198  1.00  0.00    -0.290 OA
ATOM     20  H3  UNL     1       2.368  -9.194  -2.802  1.00  0.00     0.244 HD
ENDBRANCH  17  19
ENDBRANCH   8  16
BRANCH   9  21
HETATM   21  C13 UNL     1       1.732  -7.105   1.841  1.00  0.00     0.229 C
HETATM   22  O4  UNL     1       0.990  -6.596   1.018  1.00  0.00    -0.643 OA
HETATM   23  O5  UNL     1       1.018  -7.693   2.919  1.00  0.00    -0.643 OA
ENDBRANCH   9  21
BRANCH  12  24
HETATM   24  O6  UNL     1       4.718  -4.473   1.905  1.00  0.00    -0.362 OA
ATOM     25  H6  UNL     1       3.787  -4.289   1.923  1.00  0.00     0.213 HD
ENDBRANCH  12  24
ENDBRANCH   3   5
BRANCH   1  26
HETATM   26  C3  UNL     1       9.734  -6.444   2.595  1.00  0.00     0.249 C
BRANCH  26  27
HETATM   27  C2  UNL     1      10.555  -5.164   2.567  1.00  0.00     0.049 A
HETATM   28  N2  UNL     1      11.385  -4.855   1.593  1.00  0.00    -0.338 N
HETATM   29  C1  UNL     1      12.047  -3.699   1.673  1.00  0.00     0.142 A
ATOM     30  H2  UNL     1      11.519  -5.481   0.799  1.00  0.00     0.168 HD
HETATM   31  S1  UNL     1      11.500  -3.030   3.137  1.00  0.00    -0.064 SA
HETATM   32  C16 UNL     1      10.430  -4.272   3.597  1.00  0.00     0.080 A
BRANCH  29  33
HETATM   33  N1  UNL     1      12.913  -3.223   0.801  1.00  0.00    -0.380 N
ATOM     34  H12 UNL     1      13.807  -3.607   0.496  1.00  0.00     0.158 HD
ATOM     35  H11 UNL     1      12.831  -2.358   0.267  1.00  0.00     0.158 HD
ENDBRANCH  29  33
ENDBRANCH  26  27
BRANCH  26  36
HETATM   36  N3  UNL     1      10.512  -7.517   1.958  1.00  0.00    -0.070 NA
BRANCH  36  37
HETATM   37  O1  UNL     1       9.779  -8.648   1.833  1.00  0.00    -0.208 OA
BRANCH  37  38
HETATM   38  C4  UNL     1       9.521  -9.267   0.609  1.00  0.00     0.235 C
HETATM   39  N4  UNL     1       8.540  -8.911  -0.149  1.00  0.00    -0.354 N
HETATM   40  C5  UNL     1       8.512  -9.722  -1.351  1.00  0.00     0.143 C
ATOM     41  H4  UNL     1       7.878  -8.166   0.066  1.00  0.00     0.163 HD
HETATM   42  C6  UNL     1       9.425 -10.894  -1.054  1.00  0.00     0.143 C
HETATM   43  N5  UNL     1      10.254 -10.335   0.020  1.00  0.00    -0.354 N
ATOM     44  H5  UNL     1      11.184 -10.653   0.293  1.00  0.00     0.163 HD
ENDBRANCH  37  38
ENDBRANCH  36  37
ENDBRANCH  26  36
ENDBRANCH   1  26
TORSDOF 11
ENDMDL