MODEL 1
REMARK VINA RESULT: -6.517293521      0.000      0.000
REMARK  10 active torsions:
REMARK  status: ('A' for Active; 'I' for Inactive)
REMARK    1  A    between atoms: O1_2  and  C2_3
REMARK    2  A    between atoms: C3_4  and  O2_5
REMARK    3  A    between atoms: C10_23  and  C11_24
REMARK    4  A    between atoms: C11_24  and  O5_25
REMARK    5  A    between atoms: C11_24  and  C12_27
REMARK    6  A    between atoms: C12_27  and  C13_29
REMARK    7  A    between atoms: C13_29  and  N4_30
REMARK    8  A    between atoms: C13_29  and  C14_34
REMARK    9  A    between atoms: C14_34  and  C15_36
REMARK   10  A    between atoms: N8_42  and  N9_43
ROOT
HETATM    1  C2  UNL     1       5.495  -7.358   2.554  1.00  0.00     0.113 A
HETATM    2  C3  UNL     1       4.220  -7.440   2.033  1.00  0.00     0.118 A
HETATM    3  C4  UNL     1       4.004  -7.969   0.792  1.00  0.00     0.063 A
HETATM    4 BR1  UNL     1       2.288  -8.120  -0.002  1.00  0.00    -0.047 Br
HETATM    5  C5  UNL     1       5.076  -8.417   0.076  1.00  0.00     0.067 A
HETATM    6  C6  UNL     1       4.733  -8.912  -1.179  1.00  0.00     0.262 C
HETATM    7  O3  UNL     1       3.549  -9.312  -1.254  1.00  0.00    -0.267 OA
HETATM    8  N1  UNL     1       5.543  -8.978  -2.243  1.00  0.00    -0.275 N
ATOM      9  H1  UNL     1       5.099  -9.233  -3.126  1.00  0.00     0.173 HD
HETATM   10  C7  UNL     1       6.890  -8.749  -2.297  1.00  0.00     0.328 C
HETATM   11  O4  UNL     1       7.362  -8.508  -3.446  1.00  0.00    -0.247 OA
HETATM   12  N2  UNL     1       7.801  -8.739  -1.308  1.00  0.00    -0.294 N
ATOM     13  H2  UNL     1       8.783  -8.696  -1.578  1.00  0.00     0.172 HD
HETATM   14  C8  UNL     1       7.522  -8.782   0.011  1.00  0.00     0.115 C
HETATM   15  N3  UNL     1       8.350  -9.307   0.827  1.00  0.00    -0.385 N
ATOM     16  H31 UNL     1       8.139  -9.339   1.824  1.00  0.00     0.157 HD
ATOM     17  H32 UNL     1       9.203  -9.641   0.380  1.00  0.00     0.157 HD
HETATM   18  C9  UNL     1       6.364  -8.329   0.617  1.00  0.00     0.037 A
HETATM   19  C10 UNL     1       6.638  -7.798   1.868  1.00  0.00     0.029 A
ENDROOT
BRANCH  19  20
HETATM   20  C11 UNL     1       7.989  -7.663   2.328  1.00  0.00     0.227 C
BRANCH  20  21
HETATM   21  O5  UNL     1       8.377  -7.848   3.607  1.00  0.00    -0.383 OA
ATOM     22  H5  UNL     1       9.094  -7.381   4.021  1.00  0.00     0.211 HD
ENDBRANCH  20  21
BRANCH  20  23
HETATM   23  C12 UNL     1       8.290  -6.182   2.203  1.00  0.00     0.198 C
HETATM   24  O6  UNL     1       8.131  -5.610   1.102  1.00  0.00    -0.292 OA
BRANCH  23  25
HETATM   25  C13 UNL     1       8.781  -5.267   3.241  1.00  0.00     0.332 C
BRANCH  25  26
HETATM   26  N4  UNL     1       7.973  -5.214   4.410  1.00  0.00    -0.061 N
ATOM     27  H43 UNL     1       7.742  -6.156   4.725  1.00  0.00     0.275 HD
ATOM     28  H42 UNL     1       8.523  -4.892   5.206  1.00  0.00     0.275 HD
ATOM     29  H41 UNL     1       7.126  -4.654   4.314  1.00  0.00     0.275 HD
ENDBRANCH  25  26
BRANCH  25  30
HETATM   30  C14 UNL     1       9.233  -3.974   2.738  1.00  0.00     0.235 C
HETATM   31  O7  UNL     1       8.515  -2.922   2.799  1.00  0.00    -0.286 OA
BRANCH  30  32
HETATM   32  C15 UNL     1      10.536  -3.844   2.139  1.00  0.00     0.207 A
HETATM   33  N5  UNL     1      11.761  -3.890   2.683  1.00  0.00    -0.267 N
HETATM   34  N6  UNL     1      12.704  -3.734   1.786  1.00  0.00    -0.223 N
ATOM     35  H5  UNL     1      11.937  -4.029   3.677  1.00  0.00     0.190 HD
HETATM   36  N7  UNL     1      12.100  -3.583   0.621  1.00  0.00     0.018 NA
ATOM     37  H6  UNL     1      13.710  -3.731   1.955  1.00  0.00     0.205 HD
HETATM   38  N8  UNL     1      10.794  -3.646   0.818  1.00  0.00    -0.164 N
BRANCH  38  39
HETATM   39  N9  UNL     1       9.810  -3.529  -0.180  1.00  0.00    -0.324 N
ATOM     40  H92 UNL     1       8.905  -3.071  -0.069  1.00  0.00     0.178 HD
ATOM     41  H91 UNL     1       9.900  -3.892  -1.128  1.00  0.00     0.178 HD
ENDBRANCH  38  39
ENDBRANCH  30  32
ENDBRANCH  25  30
ENDBRANCH  23  25
ENDBRANCH  20  23
ENDBRANCH  19  20
BRANCH   1  42
HETATM   42  O1  UNL     1       5.722  -6.827   3.809  1.00  0.00    -0.352 OA
HETATM   43  C1  UNL     1       5.346  -7.628   4.916  1.00  0.00     0.210 C
ENDBRANCH   1  42
BRANCH   2  44
HETATM   44  O2  UNL     1       3.170  -6.980   2.787  1.00  0.00    -0.357 OA
ATOM     45  H2  UNL     1       3.308  -6.228   3.351  1.00  0.00     0.218 HD
ENDBRANCH   2  44
TORSDOF 10
ENDMDL