MODEL 4
REMARK VINA RESULT: -6.487025431      5.507      9.672
REMARK  10 active torsions:
REMARK  status: ('A' for Active; 'I' for Inactive)
REMARK       I    between atoms: C2_2  and  N1_4
REMARK    1  A    between atoms: N2_7  and  C5_8
REMARK    2  A    between atoms: C6_11  and  N4_12
REMARK    3  A    between atoms: C7_17  and  N6_18
REMARK    4  A    between atoms: C8_21  and  N7_22
REMARK    5  A    between atoms: C9_26  and  C10_27
REMARK       I    between atoms: C10_27  and  N10_29
REMARK    6  A    between atoms: N10_29  and  C11_31
REMARK    7  A    between atoms: C11_31  and  C12_32
REMARK    8  A    between atoms: C13_38  and  N13_39
REMARK    9  A    between atoms: N13_39  and  C14_41
REMARK   10  A    between atoms: C14_41  and  C15_42
ROOT
HETATM    1  N7  UNL     1       5.107  -5.856   3.285  1.00  0.00    -0.171 N
HETATM    2  N8  UNL     1       4.690  -4.760   2.674  1.00  0.00     0.003 NA
HETATM    3  N9  UNL     1       5.611  -3.812   2.726  1.00  0.00    -0.262 N
ATOM      4  H9  UNL     1       5.536  -2.875   2.331  1.00  0.00     0.186 HD
HETATM    5  C9  UNL     1       6.656  -4.310   3.393  1.00  0.00     0.203 A
HETATM    6  N14 UNL     1       6.321  -5.564   3.724  1.00  0.00    -0.260 N
ATOM      7  H14 UNL     1       6.919  -6.206   4.243  1.00  0.00     0.190 HD
ENDROOT
BRANCH   1   8
HETATM    8  C8  UNL     1       4.426  -7.094   3.454  1.00  0.00     0.161 A
HETATM    9  C5  UNL     1       4.751  -8.169   2.654  1.00  0.00     0.153 A
HETATM   10  N3  UNL     1       4.101  -9.345   2.819  1.00  0.00    -0.174 N
HETATM   11  C6  UNL     1       3.140  -9.512   3.736  1.00  0.00     0.679 A
ATOM     12  H3  UNL     1       4.351 -10.132   2.222  1.00  0.00     0.186 HD
HETATM   13  N5  UNL     1       2.834  -8.455   4.508  1.00  0.00    -0.175 N
HETATM   14  C7  UNL     1       3.436  -7.254   4.403  1.00  0.00     0.148 A
ATOM     15  H5  UNL     1       2.103  -8.567   5.210  1.00  0.00     0.186 HD
BRANCH   9  16
HETATM   16  N2  UNL     1       5.766  -8.004   1.676  1.00  0.00    -0.362 N
HETATM   17  C4  UNL     1       7.147  -8.436   1.875  1.00  0.00     0.144 C
HETATM   18  C3  UNL     1       7.680  -9.207   0.720  1.00  0.00     0.145 C
HETATM   19  N1  UNL     1       7.024  -8.958  -0.541  1.00  0.00    -0.349 N
HETATM   20  C2  UNL     1       7.760  -9.183  -1.728  1.00  0.00     0.215 C
HETATM   21  C17 UNL     1       5.654  -8.493  -0.638  1.00  0.00     0.145 C
HETATM   22  C1  UNL     1       7.114  -8.939  -3.035  1.00  0.00     0.117 C
HETATM   23  O1  UNL     1       8.953  -9.587  -1.690  1.00  0.00    -0.274 OA
HETATM   24  C16 UNL     1       5.486  -7.386   0.394  1.00  0.00     0.144 C
ENDBRANCH   9  16
BRANCH  11  25
HETATM   25  N4  UNL     1       2.497 -10.606   3.928  1.00  0.00    -0.234 N
ATOM     26  H42 UNL     1       2.727 -11.159   4.754  1.00  0.00     0.174 HD
ATOM     27  H41 UNL     1       1.769 -10.967   3.312  1.00  0.00     0.174 HD
ENDBRANCH  11  25
BRANCH  14  28
HETATM   28  N6  UNL     1       3.115  -6.259   5.161  1.00  0.00    -0.383 N
ATOM     29  H62 UNL     1       3.540  -6.173   6.084  1.00  0.00     0.157 HD
ATOM     30  H61 UNL     1       2.446  -5.548   4.865  1.00  0.00     0.157 HD
ENDBRANCH  14  28
ENDBRANCH   1   8
BRANCH   5  31
HETATM   31  C10 UNL     1       7.914  -3.631   3.704  1.00  0.00     0.288 C
HETATM   32  O2  UNL     1       7.958  -2.523   4.277  1.00  0.00    -0.264 OA
HETATM   33  N10 UNL     1       9.150  -4.248   3.343  1.00  0.00    -0.349 N
ATOM     34  H10 UNL     1       9.137  -5.154   2.874  1.00  0.00     0.163 HD
BRANCH  33  35
HETATM   35  C11 UNL     1      10.417  -3.623   3.627  1.00  0.00     0.186 C
BRANCH  35  36
HETATM   36  C12 UNL     1      11.215  -3.580   2.385  1.00  0.00     0.097 A
HETATM   37  N11 UNL     1      10.794  -3.795   1.138  1.00  0.00    -0.240 N
HETATM   38  O3  UNL     1      11.780  -3.669   0.330  1.00  0.00    -0.155 OA
ATOM     39  H11 UNL     1       9.837  -4.025   0.870  1.00  0.00     0.196 HD
HETATM   40  N12 UNL     1      12.871  -3.372   0.974  1.00  0.00    -0.224 N
HETATM   41  C13 UNL     1      12.602  -3.297   2.278  1.00  0.00     0.153 A
ATOM     42  H12 UNL     1      13.785  -3.221   0.548  1.00  0.00     0.198 HD
BRANCH  41  43
HETATM   43  N13 UNL     1      13.252  -3.055   3.312  1.00  0.00    -0.352 N
ATOM     44  H13 UNL     1      13.589  -3.909   3.758  1.00  0.00     0.166 HD
BRANCH  43  45
HETATM   45  C14 UNL     1      13.632  -1.934   4.007  1.00  0.00     0.077 C
BRANCH  45  46
HETATM   46  C15 UNL     1      12.995  -0.648   3.603  1.00  0.00     0.159 C
HETATM   47 CL1  UNL     1      13.120   0.546   4.959  1.00  0.00    -0.125 Cl
ENDBRANCH  45  46
ENDBRANCH  43  45
ENDBRANCH  41  43
ENDBRANCH  35  36
ENDBRANCH  33  35
ENDBRANCH   5  31
TORSDOF 10
ENDMDL