MODEL 1
REMARK VINA RESULT: -9.268610278      0.000      0.000
REMARK  6 active torsions:
REMARK  status: ('A' for Active; 'I' for Inactive)
REMARK    1  A    between atoms: O1_1  and  C1_3
REMARK    2  A    between atoms: C4_6  and  C5_7
REMARK    3  A    between atoms: C5_7  and  C6_8
REMARK    4  A    between atoms: C6_8  and  C7_9
REMARK    5  A    between atoms: C7_9  and  N1_10
REMARK    6  A    between atoms: C11_14  and  C12_15
ROOT
HETATM    1  N1  UNL     1       2.793  -1.778  10.708  1.00  0.00    -0.366 N
HETATM    2  C8  UNL     1       2.887  -2.992  10.128  1.00  0.00     0.090 A
HETATM    3  C9  UNL     1       3.459  -4.066  10.785  1.00  0.00     0.018 A
HETATM    4  C10 UNL     1       3.938  -3.855  12.073  1.00  0.00     0.015 A
HETATM    5  C11 UNL     1       3.850  -2.622  12.685  1.00  0.00    -0.010 A
HETATM    6  C18 UNL     1       3.259  -1.598  11.948  1.00  0.00     0.102 A
ENDROOT
BRANCH   1   7
HETATM    7  C7  UNL     1       2.183  -0.692   9.967  1.00  0.00     0.128 C
BRANCH   7   8
HETATM    8  C6  UNL     1       0.734  -1.016   9.634  1.00  0.00     0.025 C
BRANCH   8   9
HETATM    9  C5  UNL     1      -0.000   0.263   9.259  1.00  0.00     0.040 C
BRANCH   9  10
HETATM   10  C4  UNL     1      -0.589   0.148   7.901  1.00  0.00    -0.058 A
HETATM   11  C3  UNL     1      -0.002   0.789   6.829  1.00  0.00     0.010 A
HETATM   12  C2  UNL     1      -0.530   0.700   5.543  1.00  0.00     0.037 A
HETATM   13  C1  UNL     1      -1.664  -0.039   5.301  1.00  0.00     0.065 A
HETATM   14  C20 UNL     1      -2.236  -0.673   6.389  1.00  0.00     0.037 A
HETATM   15  C19 UNL     1      -1.726  -0.593   7.658  1.00  0.00     0.010 A
BRANCH  13  16
HETATM   16  O1  UNL     1      -2.215  -0.145   4.023  1.00  0.00    -0.361 OA
ATOM     17  H1  UNL     1      -1.855   0.326   3.280  1.00  0.00     0.217 HD
ENDBRANCH  13  16
ENDBRANCH   9  10
ENDBRANCH   8   9
ENDBRANCH   7   8
ENDBRANCH   1   7
BRANCH   5  18
HETATM   18  C12 UNL     1       4.350  -2.392  14.037  1.00  0.00    -0.025 A
HETATM   19  C13 UNL     1       4.555  -3.405  14.953  1.00  0.00     0.012 A
HETATM   20  C14 UNL     1       5.030  -3.157  16.226  1.00  0.00     0.001 A
HETATM   21  C15 UNL     1       5.320  -1.869  16.630  1.00  0.00     0.000 A
HETATM   22  C16 UNL     1       5.120  -0.857  15.727  1.00  0.00     0.001 A
HETATM   23  C17 UNL     1       4.645  -1.104  14.456  1.00  0.00     0.012 A
ENDBRANCH   5  18
TORSDOF 6
ENDMDL