MODEL 3
REMARK VINA RESULT: -8.301869736      2.195      3.105
REMARK  5 active torsions:
REMARK  status: ('A' for Active; 'I' for Inactive)
REMARK    1  A    between atoms: S1_2  and  C1_3
REMARK    2  A    between atoms: S1_2  and  C13_17
REMARK    3  A    between atoms: C1_3  and  C2_4
REMARK    4  A    between atoms: C2_4  and  C3_5
REMARK    5  A    between atoms: C6_10  and  C7_11
ROOT
HETATM    1  C3  UNL     1       3.066  -5.428  12.426  1.00  0.00     0.021 A
HETATM    2  N1  UNL     1       4.107  -6.237  12.848  1.00  0.00    -0.368 N
ATOM      3  H1  UNL     1       4.026  -6.982  13.540  1.00  0.00     0.165 HD
HETATM    4  C4  UNL     1       5.229  -5.901  12.215  1.00  0.00     0.089 A
HETATM    5  C5  UNL     1       4.966  -4.859  11.358  1.00  0.00     0.031 A
HETATM    6  C6  UNL     1       3.586  -4.564  11.498  1.00  0.00    -0.002 A
ENDROOT
BRANCH   1   7
HETATM    7  C2  UNL     1       1.697  -5.521  12.923  1.00  0.00     0.071 C
BRANCH   7   8
HETATM    8  C1  UNL     1       1.240  -4.568  13.954  1.00  0.00     0.120 C
BRANCH   8   9
HETATM    9  S1  UNL     1       2.217  -4.527  15.426  1.00  0.00     0.050 S
HETATM   10  O1  UNL     1       3.037  -6.019  15.493  1.00  0.00    -0.253 OA
BRANCH   9  11
HETATM   11  C13 UNL     1       3.444  -3.304  15.390  1.00  0.00     0.031 A
HETATM   12  C14 UNL     1       4.431  -3.353  16.349  1.00  0.00     0.021 A
HETATM   13  C15 UNL     1       5.458  -2.430  16.408  1.00  0.00     0.001 A
HETATM   14  C16 UNL     1       5.518  -1.415  15.485  1.00  0.00     0.000 A
HETATM   15  C17 UNL     1       4.537  -1.361  14.528  1.00  0.00     0.001 A
HETATM   16  C18 UNL     1       3.508  -2.278  14.463  1.00  0.00     0.021 A
ENDBRANCH   9  11
ENDBRANCH   8   9
ENDBRANCH   7   8
ENDBRANCH   1   7
BRANCH   6  17
HETATM   17  C7  UNL     1       2.993  -3.503  10.696  1.00  0.00    -0.024 A
HETATM   18  C8  UNL     1       2.052  -2.645  11.156  1.00  0.00     0.012 A
HETATM   19  C9  UNL     1       1.508  -1.671  10.314  1.00  0.00     0.001 A
HETATM   20  C10 UNL     1       1.893  -1.539   9.010  1.00  0.00     0.000 A
HETATM   21  C11 UNL     1       2.856  -2.409   8.528  1.00  0.00     0.001 A
HETATM   22  C12 UNL     1       3.383  -3.361   9.356  1.00  0.00     0.012 A
ENDBRANCH   6  17
TORSDOF 5
ENDMDL