MODEL 3
REMARK VINA RESULT: -8.716255115      2.097      7.368
REMARK  5 active torsions:
REMARK  status: ('A' for Active; 'I' for Inactive)
REMARK    1  A    between atoms: C3_3  and  C4_4
REMARK    2  A    between atoms: C5_5  and  C6_6
REMARK    3  A    between atoms: C13_15  and  C14_16
REMARK    4  A    between atoms: C14_16  and  C15_17
REMARK    5  A    between atoms: C15_17  and  C16_18
ROOT
HETATM    1  C1  UNL     1       2.737   1.714  10.822  1.00  0.00     0.012 C
HETATM    2  C2  UNL     1       3.246   0.642  11.021  1.00  0.00    -0.113 C
HETATM    3  C3  UNL     1       3.845  -0.635  11.284  1.00  0.00     0.134 C
ENDROOT
BRANCH   3   4
HETATM    4  C4  UNL     1       2.948  -1.676  11.792  1.00  0.00    -0.012 A
HETATM    5  C5  UNL     1       3.006  -2.282  13.023  1.00  0.00    -0.001 A
HETATM    6  C12 UNL     1       1.915  -3.162  13.043  1.00  0.00     0.101 A
HETATM    7  N1  UNL     1       1.265  -3.067  11.893  1.00  0.00    -0.368 N
HETATM    8  C13 UNL     1       1.855  -2.167  11.079  1.00  0.00     0.017 A
ATOM      9  H1  UNL     1       0.431  -3.603  11.654  1.00  0.00     0.165 HD
BRANCH   5  10
HETATM   10  C6  UNL     1       3.889  -2.172  14.160  1.00  0.00    -0.024 A
HETATM   11  C7  UNL     1       4.502  -1.037  14.593  1.00  0.00     0.012 A
HETATM   12  C8  UNL     1       5.336  -1.026  15.728  1.00  0.00     0.001 A
HETATM   13  C9  UNL     1       5.554  -2.180  16.434  1.00  0.00     0.000 A
HETATM   14  C10 UNL     1       4.951  -3.335  16.020  1.00  0.00     0.001 A
HETATM   15  C11 UNL     1       4.139  -3.335  14.912  1.00  0.00     0.012 A
ENDBRANCH   5  10
BRANCH   8  16
HETATM   16  C14 UNL     1       1.393  -1.832   9.700  1.00  0.00     0.062 C
BRANCH  16  17
HETATM   17  C15 UNL     1       0.153  -1.012   9.752  1.00  0.00     0.044 C
BRANCH  17  18
HETATM   18  C16 UNL     1      -0.307  -0.520   8.445  1.00  0.00    -0.058 A
HETATM   19  C17 UNL     1      -1.550  -0.840   7.951  1.00  0.00     0.007 A
HETATM   20  C18 UNL     1      -1.955  -0.350   6.704  1.00  0.00     0.001 A
HETATM   21  C19 UNL     1      -1.119   0.456   5.962  1.00  0.00     0.000 A
HETATM   22  C20 UNL     1       0.121   0.784   6.440  1.00  0.00     0.001 A
HETATM   23  C21 UNL     1       0.507   0.286   7.683  1.00  0.00     0.007 A
ENDBRANCH  17  18
ENDBRANCH  16  17
ENDBRANCH   8  16
ENDBRANCH   3   4
TORSDOF 5
ENDMDL