MODEL 4
REMARK VINA RESULT: -8.717507407      0.533      3.914
REMARK  6 active torsions:
REMARK  status: ('A' for Active; 'I' for Inactive)
REMARK    1  A    between atoms: N1_1  and  C1_4
REMARK    2  A    between atoms: C5_10  and  C6_11
REMARK    3  A    between atoms: C6_11  and  C7_12
REMARK    4  A    between atoms: C7_12  and  C8_13
REMARK    5  A    between atoms: C8_13  and  C9_14
REMARK    6  A    between atoms: C8_13  and  C15_20
ROOT
HETATM    1  C8  UNL     1       3.912  -2.469  12.867  1.00  0.00     0.052 C
ENDROOT
BRANCH   1   2
HETATM    2  C7  UNL     1       3.039  -1.312  12.437  1.00  0.00     0.019 C
BRANCH   2   3
HETATM    3  C6  UNL     1       3.202  -1.112  10.984  1.00  0.00     0.043 C
BRANCH   3   4
HETATM    4  C5  UNL     1       2.437   0.012  10.411  1.00  0.00    -0.017 A
HETATM    5  C1  UNL     1       1.318  -0.323   9.671  1.00  0.00     0.034 A
HETATM    6  C2  UNL     1       0.519   0.632   9.083  1.00  0.00     0.046 A
HETATM    7  C3  UNL     1       0.868   1.956   9.254  1.00  0.00     0.090 A
HETATM    8  N2  UNL     1       1.959   2.268   9.977  1.00  0.00    -0.375 N
HETATM    9  C4  UNL     1       2.740   1.325  10.551  1.00  0.00     0.097 A
ATOM     10  H2  UNL     1       2.207   3.250  10.095  1.00  0.00     0.164 HD
BRANCH   5  11
HETATM   11  N1  UNL     1       0.954  -1.562   9.486  1.00  0.00    -0.399 N
ATOM     12  H12 UNL     1       1.631  -2.306   9.319  1.00  0.00     0.156 HD
ATOM     13  H11 UNL     1      -0.050  -1.740   9.517  1.00  0.00     0.156 HD
ENDBRANCH   5  11
ENDBRANCH   3   4
ENDBRANCH   2   3
ENDBRANCH   1   2
BRANCH   1  14
HETATM   14  C9  UNL     1       4.497  -2.269  14.219  1.00  0.00    -0.050 A
HETATM   15  C10 UNL     1       4.787  -3.308  15.072  1.00  0.00     0.008 A
HETATM   16  C11 UNL     1       5.328  -3.104  16.322  1.00  0.00     0.001 A
HETATM   17  C12 UNL     1       5.602  -1.828  16.767  1.00  0.00     0.000 A
HETATM   18  C13 UNL     1       5.323  -0.763  15.934  1.00  0.00     0.001 A
HETATM   19  C14 UNL     1       4.781  -0.987  14.687  1.00  0.00     0.008 A
ENDBRANCH   1  14
BRANCH   1  20
HETATM   20  C15 UNL     1       3.254  -3.787  12.747  1.00  0.00    -0.050 A
HETATM   21  C16 UNL     1       1.894  -3.919  13.024  1.00  0.00     0.008 A
HETATM   22  C17 UNL     1       1.234  -5.110  12.919  1.00  0.00     0.001 A
HETATM   23  C18 UNL     1       1.901  -6.253  12.526  1.00  0.00     0.000 A
HETATM   24  C19 UNL     1       3.250  -6.152  12.245  1.00  0.00     0.001 A
HETATM   25  C20 UNL     1       3.899  -4.941  12.357  1.00  0.00     0.008 A
ENDBRANCH   1  20
TORSDOF 6
ENDMDL