MODEL 2
REMARK VINA RESULT: -9.181389130      1.435      2.242
REMARK  5 active torsions:
REMARK  status: ('A' for Active; 'I' for Inactive)
REMARK    1  A    between atoms: C4_7  and  C5_8
REMARK    2  A    between atoms: C5_8  and  C6_9
REMARK    3  A    between atoms: C6_9  and  C7_10
REMARK    4  A    between atoms: C7_10  and  C8_11
REMARK    5  A    between atoms: C11_14  and  C12_15
ROOT
HETATM    1  C8  UNL     1       2.795  -0.061  10.825  1.00  0.00    -0.058 A
HETATM    2  C9  UNL     1       2.404  -1.237  10.205  1.00  0.00     0.008 A
HETATM    3  C10 UNL     1       1.439  -1.244   9.219  1.00  0.00     0.013 A
HETATM    4  C11 UNL     1       0.815  -0.089   8.798  1.00  0.00    -0.026 A
HETATM    5  C18 UNL     1       1.211   1.090   9.424  1.00  0.00     0.013 A
HETATM    6  C19 UNL     1       2.174   1.099  10.410  1.00  0.00     0.008 A
ENDROOT
BRANCH   1   7
HETATM    7  C7  UNL     1       3.832  -0.084  11.881  1.00  0.00     0.039 C
BRANCH   7   8
HETATM    8  C6  UNL     1       4.086  -1.436  12.458  1.00  0.00     0.011 C
BRANCH   8   9
HETATM    9  C5  UNL     1       4.023  -1.462  13.956  1.00  0.00     0.057 C
BRANCH   9  10
HETATM   10  C4  UNL     1       3.166  -2.639  14.343  1.00  0.00     0.012 A
HETATM   11  N1  UNL     1       3.322  -3.119  15.584  1.00  0.00    -0.369 N
HETATM   12  C3  UNL     1       2.545  -4.181  15.930  1.00  0.00     0.092 A
ATOM     13  H1  UNL     1       3.990  -2.709  16.237  1.00  0.00     0.165 HD
HETATM   14  C2  UNL     1       1.641  -4.744  15.060  1.00  0.00     0.072 A
HETATM   15  C1  UNL     1       1.497  -4.234  13.790  1.00  0.00     0.175 A
HETATM   16  O1  UNL     1       0.670  -4.745  12.989  1.00  0.00    -0.288 OA
HETATM   17  C20 UNL     1       2.282  -3.149  13.420  1.00  0.00     0.079 A
ENDBRANCH   9  10
ENDBRANCH   8   9
ENDBRANCH   7   8
ENDBRANCH   1   7
BRANCH   4  18
HETATM   18  C12 UNL     1      -0.199  -0.106   7.758  1.00  0.00    -0.026 A
HETATM   19  C13 UNL     1       0.019   0.525   6.548  1.00  0.00     0.012 A
HETATM   20  C14 UNL     1      -0.918   0.535   5.527  1.00  0.00     0.001 A
HETATM   21  C15 UNL     1      -2.125  -0.109   5.710  1.00  0.00     0.000 A
HETATM   22  C16 UNL     1      -2.377  -0.756   6.917  1.00  0.00     0.001 A
HETATM   23  C17 UNL     1      -1.421  -0.746   7.913  1.00  0.00     0.012 A
ENDBRANCH   4  18
TORSDOF 5
ENDMDL