MODEL 2
REMARK VINA RESULT: -8.610595776      1.516      2.376
REMARK  6 active torsions:
REMARK  status: ('A' for Active; 'I' for Inactive)
REMARK    1  A    between atoms: C4_4  and  C5_5
REMARK    2  A    between atoms: C5_5  and  C6_6
REMARK    3  A    between atoms: C6_6  and  C7_7
REMARK    4  A    between atoms: C6_6  and  C15_15
REMARK    5  A    between atoms: C7_7  and  C8_8
REMARK    6  A    between atoms: C8_8  and  C9_9
ROOT
HETATM    1  C1  UNL     1       5.364  -1.111  16.423  1.00  0.00     0.113 C
HETATM    2  C2  UNL     1       4.961  -1.088  15.265  1.00  0.00    -0.098 C
HETATM    3  C3  UNL     1       4.472  -1.066  13.939  1.00  0.00    -0.029 C
HETATM    4  C4  UNL     1       4.034  -1.054  12.811  1.00  0.00    -0.093 C
ENDROOT
BRANCH   4   5
HETATM    5  C5  UNL     1       3.497  -1.031  11.455  1.00  0.00     0.104 C
BRANCH   5   6
HETATM    6  C6  UNL     1       2.034  -1.562  11.504  1.00  0.00     0.032 C
BRANCH   6   7
HETATM    7  C7  UNL     1       2.240  -3.059  11.437  1.00  0.00     0.015 C
BRANCH   7   8
HETATM    8  C8  UNL     1       1.534  -3.879  12.442  1.00  0.00     0.039 C
BRANCH   8   9
HETATM    9  C9  UNL     1       2.570  -4.212  13.501  1.00  0.00    -0.058 A
HETATM   10  C10 UNL     1       3.822  -4.664  13.174  1.00  0.00     0.007 A
HETATM   11  C11 UNL     1       4.779  -4.951  14.128  1.00  0.00     0.001 A
HETATM   12  C12 UNL     1       4.488  -4.784  15.464  1.00  0.00     0.000 A
HETATM   13  C13 UNL     1       3.221  -4.325  15.800  1.00  0.00     0.001 A
HETATM   14  C14 UNL     1       2.275  -4.043  14.848  1.00  0.00     0.007 A
ENDBRANCH   8   9
ENDBRANCH   7   8
ENDBRANCH   6   7
BRANCH   6  15
HETATM   15  C15 UNL     1       1.358  -1.030  10.301  1.00  0.00    -0.025 A
HETATM   16  C16 UNL     1       0.719  -1.800   9.322  1.00  0.00     0.096 A
HETATM   17  N1  UNL     1       0.180  -0.992   8.393  1.00  0.00    -0.365 N
HETATM   18  C17 UNL     1       0.441   0.289   8.721  1.00  0.00     0.042 A
ATOM     19  H1  UNL     1      -0.341  -1.298   7.571  1.00  0.00     0.165 HD
HETATM   20  C18 UNL     1       0.125   1.491   8.090  1.00  0.00     0.030 A
HETATM   21  C22 UNL     1       1.154   0.273   9.877  1.00  0.00    -0.001 A
HETATM   22  C19 UNL     1       0.524   2.709   8.606  1.00  0.00     0.002 A
HETATM   23  C20 UNL     1       1.248   2.665   9.779  1.00  0.00     0.001 A
HETATM   24  C21 UNL     1       1.558   1.476  10.403  1.00  0.00     0.014 A
ENDBRANCH   6  15
ENDBRANCH   5   6
ENDBRANCH   4   5
TORSDOF 6
ENDMDL