MODEL 4
REMARK VINA RESULT: -8.854929425      0.728      4.155
REMARK  6 active torsions:
REMARK  status: ('A' for Active; 'I' for Inactive)
REMARK    1  A    between atoms: N1_1  and  C1_5
REMARK    2  A    between atoms: C1_5  and  C2_6
REMARK    3  A    between atoms: C2_6  and  C3_7
REMARK    4  A    between atoms: C8_12  and  C9_13
REMARK    5  A    between atoms: C9_13  and  C10_14
REMARK    6  A    between atoms: C9_13  and  C16_20
ROOT
HETATM    1  C9  UNL     1       3.971  -2.347  12.882  1.00  0.00    -0.005 C
ENDROOT
BRANCH   1   2
HETATM    2  C8  UNL     1       3.344  -3.662  12.760  1.00  0.00    -0.018 A
HETATM    3  C3  UNL     1       2.154  -4.006  13.332  1.00  0.00    -0.045 A
HETATM    4  C4  UNL     1       1.687  -5.348  13.195  1.00  0.00     0.008 A
HETATM    5  C5  UNL     1       2.365  -6.312  12.520  1.00  0.00     0.001 A
HETATM    6  C6  UNL     1       3.561  -5.968  11.943  1.00  0.00     0.001 A
HETATM    7  C7  UNL     1       4.010  -4.702  12.067  1.00  0.00     0.013 A
BRANCH   3   8
HETATM    8  C2  UNL     1       1.212  -3.163  14.029  1.00  0.00     0.066 C
BRANCH   8   9
HETATM    9  C1  UNL     1       0.920  -3.716  15.420  1.00  0.00     0.234 C
BRANCH   9  10
HETATM   10  N1  UNL     1      -0.188  -2.976  16.021  1.00  0.00    -0.079 N
ATOM     11  H13 UNL     1      -0.945  -3.591  16.319  1.00  0.00     0.274 HD
ATOM     12  H12 UNL     1       0.057  -2.591  16.933  1.00  0.00     0.274 HD
ATOM     13  H11 UNL     1      -0.510  -2.256  15.373  1.00  0.00     0.274 HD
ENDBRANCH   9  10
ENDBRANCH   8   9
ENDBRANCH   3   8
ENDBRANCH   1   2
BRANCH   1  14
HETATM   14  C10 UNL     1       3.462  -1.327  11.972  1.00  0.00    -0.024 A
HETATM   15  C11 UNL     1       4.086  -0.101  11.960  1.00  0.00     0.012 A
HETATM   16  C12 UNL     1       3.691   0.951  11.175  1.00  0.00     0.001 A
HETATM   17  C13 UNL     1       2.600   0.733  10.359  1.00  0.00     0.000 A
HETATM   18  C14 UNL     1       1.944  -0.475  10.337  1.00  0.00     0.001 A
HETATM   19  C15 UNL     1       2.382  -1.494  11.148  1.00  0.00     0.012 A
ENDBRANCH   1  14
BRANCH   1  20
HETATM   20  C16 UNL     1       4.515  -1.961  14.178  1.00  0.00    -0.024 A
HETATM   21  C17 UNL     1       4.720  -0.745  14.737  1.00  0.00     0.012 A
HETATM   22  C18 UNL     1       5.267  -0.534  15.991  1.00  0.00     0.001 A
HETATM   23  C19 UNL     1       5.640  -1.616  16.751  1.00  0.00     0.000 A
HETATM   24  C20 UNL     1       5.460  -2.879  16.247  1.00  0.00     0.001 A
HETATM   25  C21 UNL     1       4.917  -3.040  15.004  1.00  0.00     0.012 A
ENDBRANCH   1  20
TORSDOF 6
ENDMDL