MODEL 2
REMARK VINA RESULT: -8.825670007      0.026      1.026
REMARK  5 active torsions:
REMARK  status: ('A' for Active; 'I' for Inactive)
REMARK    1  A    between atoms: S1_2  and  C1_3
REMARK    2  A    between atoms: S1_2  and  C9_11
REMARK    3  A    between atoms: C1_3  and  C2_4
REMARK    4  A    between atoms: C2_4  and  C3_5
REMARK    5  A    between atoms: C12_14  and  C13_15
ROOT
HETATM    1  C9  UNL     1       2.978  -4.234  11.397  1.00  0.00     0.101 A
HETATM    2  C10 UNL     1       3.867  -4.121  10.375  1.00  0.00     0.041 A
HETATM    3  C11 UNL     1       3.786  -2.842   9.872  1.00  0.00     0.033 A
HETATM    4  C12 UNL     1       2.828  -2.190  10.615  1.00  0.00     0.043 A
HETATM    5  N1  UNL     1       2.360  -3.057  11.527  1.00  0.00    -0.348 N
ATOM      6  H1  UNL     1       1.638  -2.849  12.216  1.00  0.00     0.166 HD
ENDROOT
BRANCH   1   7
HETATM    7  S1  UNL     1       2.620  -5.607  12.422  1.00  0.00     0.067 S
HETATM    8  O1  UNL     1       1.008  -5.860  12.643  1.00  0.00    -0.251 OA
BRANCH   7   9
HETATM    9  C1  UNL     1       3.528  -5.583  13.905  1.00  0.00     0.120 C
BRANCH   9  10
HETATM   10  C2  UNL     1       4.826  -4.848  13.815  1.00  0.00     0.051 C
BRANCH  10  11
HETATM   11  C3  UNL     1       4.897  -3.557  14.522  1.00  0.00    -0.057 A
HETATM   12  C4  UNL     1       4.985  -3.503  15.919  1.00  0.00     0.007 A
HETATM   13  C5  UNL     1       5.018  -2.316  16.615  1.00  0.00     0.001 A
HETATM   14  C6  UNL     1       4.964  -1.107  15.955  1.00  0.00     0.000 A
HETATM   15  C7  UNL     1       4.877  -1.129  14.577  1.00  0.00     0.001 A
HETATM   16  C8  UNL     1       4.844  -2.322  13.889  1.00  0.00     0.007 A
ENDBRANCH  10  11
ENDBRANCH   9  10
ENDBRANCH   7   9
ENDBRANCH   1   7
BRANCH   4  17
HETATM   17  C13 UNL     1       2.406  -0.809  10.438  1.00  0.00    -0.009 A
HETATM   18  C14 UNL     1       3.158   0.259  10.894  1.00  0.00     0.013 A
HETATM   19  C15 UNL     1       2.764   1.564  10.728  1.00  0.00     0.001 A
HETATM   20  C16 UNL     1       1.585   1.871  10.091  1.00  0.00     0.000 A
HETATM   21  C17 UNL     1       0.822   0.820   9.630  1.00  0.00     0.001 A
HETATM   22  C18 UNL     1       1.226  -0.506   9.800  1.00  0.00     0.013 A
ENDBRANCH   4  17
TORSDOF 5
ENDMDL