MODEL 4
REMARK VINA RESULT: -8.833079968      0.493      1.116
REMARK  5 active torsions:
REMARK  status: ('A' for Active; 'I' for Inactive)
REMARK    1  A    between atoms: C1_2  and  N1_3
REMARK    2  A    between atoms: N1_3  and  C2_5
REMARK    3  A    between atoms: C2_5  and  C3_6
REMARK    4  A    between atoms: C2_5  and  C9_12
REMARK    5  A    between atoms: C2_5  and  C15_18
ROOT
HETATM    1  C2  UNL     1       3.080  -2.767  13.400  1.00  0.00     0.115 C
ENDROOT
BRANCH   1   2
HETATM    2  N1  UNL     1       1.731  -2.921  13.892  1.00  0.00    -0.346 N
ATOM      3  H1  UNL     1       0.962  -2.756  13.242  1.00  0.00     0.163 HD
BRANCH   2   4
HETATM    4  C1  UNL     1       1.416  -3.286  15.212  1.00  0.00     0.349 C
HETATM    5  O1  UNL     1       0.892  -4.363  15.587  1.00  0.00    -0.284 OA
ENDBRANCH   2   4
ENDBRANCH   1   2
BRANCH   1   6
HETATM    6  C3  UNL     1       2.983  -1.820  12.265  1.00  0.00    -0.021 A
HETATM    7  C4  UNL     1       1.924  -1.788  11.422  1.00  0.00     0.010 A
HETATM    8  C5  UNL     1       1.887  -0.848  10.384  1.00  0.00     0.001 A
HETATM    9  C6  UNL     1       2.906   0.048  10.195  1.00  0.00     0.000 A
HETATM   10  C7  UNL     1       3.974  -0.009  11.071  1.00  0.00     0.001 A
HETATM   11  C8  UNL     1       4.018  -0.916  12.081  1.00  0.00     0.010 A
ENDBRANCH   1   6
BRANCH   1  12
HETATM   12  C9  UNL     1       3.967  -2.327  14.519  1.00  0.00    -0.021 A
HETATM   13  C10 UNL     1       4.404  -1.048  14.726  1.00  0.00     0.010 A
HETATM   14  C11 UNL     1       5.206  -0.690  15.800  1.00  0.00     0.001 A
HETATM   15  C12 UNL     1       5.585  -1.650  16.706  1.00  0.00     0.000 A
HETATM   16  C13 UNL     1       5.152  -2.939  16.511  1.00  0.00     0.001 A
HETATM   17  C14 UNL     1       4.367  -3.288  15.459  1.00  0.00     0.010 A
ENDBRANCH   1  12
BRANCH   1  18
HETATM   18  C15 UNL     1       3.621  -4.102  13.026  1.00  0.00    -0.021 A
HETATM   19  C16 UNL     1       4.938  -4.337  12.861  1.00  0.00     0.010 A
HETATM   20  C17 UNL     1       5.424  -5.610  12.486  1.00  0.00     0.001 A
HETATM   21  C18 UNL     1       4.536  -6.638  12.285  1.00  0.00     0.000 A
HETATM   22  C19 UNL     1       3.188  -6.417  12.449  1.00  0.00     0.001 A
HETATM   23  C20 UNL     1       2.729  -5.145  12.821  1.00  0.00     0.010 A
ENDBRANCH   1  18
TORSDOF 5
ENDMDL