MODEL 3
REMARK VINA RESULT: -5.519248907      1.745      6.257
REMARK  6 active torsions:
REMARK  status: ('A' for Active; 'I' for Inactive)
REMARK    1  A    between atoms: C2_2  and  C4_10
REMARK    2  A    between atoms: N1_3  and  N2_5
REMARK    3  A    between atoms: C4_10  and  C5_11
REMARK    4  A    between atoms: C4_10  and  N9_19
REMARK    5  A    between atoms: C5_11  and  N5_12
REMARK    6  A    between atoms: N5_12  and  N6_14
ROOT
HETATM    1  C4  UNL     1      27.211  28.466   9.169  1.00  0.00     0.149 C
ENDROOT
BRANCH   1   2
HETATM    2  C2  UNL     1      25.986  27.592   9.117  1.00  0.00     0.024 C
HETATM    3  C1  UNL     1      25.922  26.517  10.148  1.00  0.00     0.067 C
HETATM    4  N1  UNL     1      25.086  27.792   8.237  1.00  0.00    -0.305 N
ATOM      5  H1  UNL     1      25.183  28.545   7.556  1.00  0.00     0.186 HD
BRANCH   4   6
HETATM    6  N2  UNL     1      23.973  26.965   8.222  1.00  0.00    -0.276 N
HETATM    7  C3  UNL     1      22.803  27.480   8.322  1.00  0.00     0.215 C
HETATM    8  N3  UNL     1      22.667  28.883   8.447  1.00  0.00    -0.065 NA
HETATM    9  N4  UNL     1      21.686  26.596   8.304  1.00  0.00    -0.065 NA
ATOM     10  H2  UNL     1      24.084  25.954   8.132  1.00  0.00     0.189 HD
ENDBRANCH   4   6
ENDBRANCH   1   2
BRANCH   1  11
HETATM   11  C5  UNL     1      28.098  28.006   8.032  1.00  0.00     0.170 C
BRANCH  11  12
HETATM   12  N5  UNL     1      29.335  27.472   8.547  1.00  0.00    -0.332 N
ATOM     13  H5  UNL     1      30.166  28.060   8.610  1.00  0.00     0.180 HD
BRANCH  12  14
HETATM   14  N6  UNL     1      29.379  26.146   8.955  1.00  0.00    -0.280 N
HETATM   15  C6  UNL     1      30.401  25.414   8.689  1.00  0.00     0.215 C
HETATM   16  N7  UNL     1      31.475  26.023   7.961  1.00  0.00    -0.065 NA
HETATM   17  N8  UNL     1      30.485  24.047   9.090  1.00  0.00    -0.065 NA
ATOM     18  H6  UNL     1      28.593  25.749   9.470  1.00  0.00     0.189 HD
ENDBRANCH  12  14
ENDBRANCH  11  12
ENDBRANCH   1  11
BRANCH   1  19
HETATM   19  N9  UNL     1      26.750  29.816   8.908  1.00  0.00    -0.355 N
HETATM   20  C7  UNL     1      27.487  30.831   9.163  1.00  0.00     0.197 C
HETATM   21  N10 UNL     1      28.773  30.636   9.710  1.00  0.00    -0.067 NA
HETATM   22  N11 UNL     1      27.031  32.141   8.906  1.00  0.00    -0.067 NA
ATOM     23  H9  UNL     1      25.820  29.960   8.513  1.00  0.00     0.162 HD
ENDBRANCH   1  19
TORSDOF 6
ENDMDL