MODEL 2
REMARK VINA RESULT: -4.915707358      2.610      6.502
REMARK  7 active torsions:
REMARK  status: ('A' for Active; 'I' for Inactive)
REMARK    1  A    between atoms: C4_12  and  O1_13
REMARK    2  A    between atoms: C5_15  and  N4_16
REMARK    3  A    between atoms: N5_18  and  C6_20
REMARK    4  A    between atoms: C6_20  and  C7_21
REMARK    5  A    between atoms: C7_21  and  C8_22
REMARK    6  A    between atoms: C8_22  and  N6_23
REMARK    7  A    between atoms: N6_23  and  C9_25
ROOT
HETATM    1  N1  UNL     1      23.347  27.481   7.980  1.00  0.00    -0.235 N
ATOM      2  H11 UNL     1      23.520  27.610   6.984  1.00  0.00     0.174 HD
ATOM      3  H12 UNL     1      22.377  27.390   8.280  1.00  0.00     0.174 HD
HETATM    4  C1  UNL     1      24.329  27.438   8.806  1.00  0.00     0.669 C
HETATM    5  N2  UNL     1      24.090  27.260  10.186  1.00  0.00    -0.225 N
ATOM      6  H2  UNL     1      23.171  27.448  10.586  1.00  0.00     0.177 HD
HETATM    7  C2  UNL     1      25.173  26.808  11.012  1.00  0.00     0.176 C
HETATM    8  C3  UNL     1      26.406  27.593  10.729  1.00  0.00     0.262 C
HETATM    9  N3  UNL     1      26.203  29.025  10.487  1.00  0.00    -0.034 N
ATOM     10  H31 UNL     1      26.200  29.708  11.245  1.00  0.00     0.281 HD
ATOM     11  H32 UNL     1      25.299  29.403  10.203  1.00  0.00     0.281 HD
HETATM   12  C4  UNL     1      27.331  28.902   9.547  1.00  0.00     0.372 C
HETATM   13  C5  UNL     1      26.791  27.494   9.282  1.00  0.00     0.215 C
HETATM   14  N7  UNL     1      25.685  27.566   8.386  1.00  0.00    -0.192 N
ATOM     15  H7  UNL     1      25.874  27.715   7.395  1.00  0.00     0.180 HD
ENDROOT
BRANCH  13  16
HETATM   16  N4  UNL     1      27.792  26.517   9.011  1.00  0.00    -0.305 N
HETATM   17  N5  UNL     1      27.917  25.978   7.928  1.00  0.00    -0.338 N
ATOM     18  H5  UNL     1      27.289  26.219   7.161  1.00  0.00     0.179 HD
ATOM     19  H4  UNL     1      28.433  26.256   9.761  1.00  0.00     0.183 HD
BRANCH  17  20
HETATM   20  C6  UNL     1      28.948  25.003   7.731  1.00  0.00     0.140 C
BRANCH  20  21
HETATM   21  C7  UNL     1      30.108  25.252   8.692  1.00  0.00     0.041 C
BRANCH  21  22
HETATM   22  C8  UNL     1      31.207  26.037   8.026  1.00  0.00     0.123 C
BRANCH  22  23
HETATM   23  N6  UNL     1      32.504  25.477   8.348  1.00  0.00    -0.368 N
ATOM     24  H6  UNL     1      33.280  25.633   7.704  1.00  0.00     0.161 HD
BRANCH  23  25
HETATM   25  C9  UNL     1      32.736  24.722   9.521  1.00  0.00     0.348 C
HETATM   26  O2  UNL     1      33.030  23.503   9.556  1.00  0.00    -0.284 OA
ENDBRANCH  23  25
ENDBRANCH  22  23
ENDBRANCH  21  22
ENDBRANCH  20  21
ENDBRANCH  17  20
ENDBRANCH  13  16
BRANCH  12  27
HETATM   27  O1  UNL     1      27.267  29.752   8.472  1.00  0.00    -0.366 OA
ATOM     28  H1  UNL     1      27.973  29.645   7.845  1.00  0.00     0.212 HD
ENDBRANCH  12  27
TORSDOF 7
ENDMDL