MODEL 1
REMARK VINA RESULT: -5.021568322      0.000      0.000
REMARK  7 active torsions:
REMARK  status: ('A' for Active; 'I' for Inactive)
REMARK    1  A    between atoms: N1_2  and  N2_3
REMARK       I    between atoms: N2_3  and  C2_5
REMARK       I    between atoms: C2_5  and  N4_9
REMARK    2  A    between atoms: N4_9  and  C3_11
REMARK    3  A    between atoms: C3_11  and  C4_12
REMARK       I    between atoms: C4_12  and  N5_14
REMARK    4  A    between atoms: N5_14  and  C5_16
REMARK    5  A    between atoms: C5_16  and  C6_17
REMARK       I    between atoms: C6_17  and  N6_19
REMARK    6  A    between atoms: N6_19  and  C7_21
REMARK    7  A    between atoms: N7_22  and  N8_24
ROOT
HETATM    1  C4  UNL     1      27.394  26.239   8.615  1.00  0.00     0.236 C
HETATM    2  O1  UNL     1      27.918  27.142   9.319  1.00  0.00    -0.272 OA
HETATM    3  N5  UNL     1      28.220  25.506   7.716  1.00  0.00    -0.351 N
ATOM      4  H5  UNL     1      27.829  24.766   7.131  1.00  0.00     0.163 HD
ENDROOT
BRANCH   1   5
HETATM    5  C3  UNL     1      25.947  25.926   8.705  1.00  0.00     0.240 C
BRANCH   5   6
HETATM    6  N4  UNL     1      25.207  27.035   8.158  1.00  0.00    -0.217 N
HETATM    7  C2  UNL     1      23.971  27.401   8.755  1.00  0.00     0.683 C
HETATM    8  N2  UNL     1      23.829  27.431  10.186  1.00  0.00    -0.137 N
HETATM    9  N3  UNL     1      22.987  27.701   7.981  1.00  0.00    -0.234 N
ATOM     10  H2  UNL     1      23.544  26.592  10.690  1.00  0.00     0.201 HD
ATOM     11  H32 UNL     1      22.099  27.964   8.409  1.00  0.00     0.174 HD
ATOM     12  H31 UNL     1      23.088  27.680   6.966  1.00  0.00     0.174 HD
ATOM     13  H4  UNL     1      25.566  27.551   7.354  1.00  0.00     0.178 HD
BRANCH   8  14
HETATM   14  N1  UNL     1      24.082  28.611  10.879  1.00  0.00    -0.131 NA
HETATM   15  C1  UNL     1      25.418  28.572  11.467  1.00  0.00     0.159 C
ENDBRANCH   8  14
ENDBRANCH   5   6
ENDBRANCH   1   5
BRANCH   3  16
HETATM   16  C5  UNL     1      29.607  25.830   7.655  1.00  0.00     0.225 C
BRANCH  16  17
HETATM   17  C6  UNL     1      30.497  25.152   8.582  1.00  0.00     0.240 C
HETATM   18  O2  UNL     1      30.147  23.991   8.986  1.00  0.00    -0.271 OA
HETATM   19  N6  UNL     1      31.703  25.710   9.045  1.00  0.00    -0.321 N
ATOM     20  H6  UNL     1      31.975  26.637   8.717  1.00  0.00     0.169 HD
BRANCH  19  21
HETATM   21  C7  UNL     1      32.563  25.021   9.959  1.00  0.00     0.199 C
HETATM   22  N7  UNL     1      32.159  24.784  11.148  1.00  0.00    -0.303 N
ATOM     23  H7  UNL     1      31.225  25.095  11.418  1.00  0.00     0.187 HD
BRANCH  22  24
HETATM   24  N8  UNL     1      32.941  24.118  12.093  1.00  0.00    -0.344 N
ATOM     25  H82 UNL     1      33.920  23.952  11.862  1.00  0.00     0.176 HD
ATOM     26  H81 UNL     1      32.573  23.799  12.989  1.00  0.00     0.176 HD
ENDBRANCH  22  24
ENDBRANCH  19  21
ENDBRANCH  16  17
ENDBRANCH   3  16
TORSDOF 7
ENDMDL