MODEL 1
REMARK VINA RESULT: -4.964257277      0.000      0.000
REMARK  7 active torsions:
REMARK  status: ('A' for Active; 'I' for Inactive)
REMARK    1  A    between atoms: C1_4  and  C2_6
REMARK    2  A    between atoms: C2_6  and  C3_7
REMARK    3  A    between atoms: C3_7  and  N3_8
REMARK       I    between atoms: N3_8  and  C4_10
REMARK       I    between atoms: C4_10  and  N8_22
REMARK    4  A    between atoms: N4_11  and  C5_13
REMARK    5  A    between atoms: N8_22  and  C8_24
REMARK    6  A    between atoms: C8_24  and  C9_25
REMARK    7  A    between atoms: C9_25  and  N9_26
ROOT
HETATM    1  N3  UNL     1      25.908  28.740  10.085  1.00  0.00    -0.226 N
ATOM      2  H3  UNL     1      26.558  29.520   9.996  1.00  0.00     0.177 HD
HETATM    3  C4  UNL     1      26.278  27.561  10.815  1.00  0.00     0.672 C
HETATM    4  N4  UNL     1      27.162  26.750  10.352  1.00  0.00    -0.187 N
ATOM      5  H4  UNL     1      27.421  25.914  10.877  1.00  0.00     0.181 HD
HETATM    6  N8  UNL     1      25.633  27.331  12.040  1.00  0.00    -0.225 N
ATOM      7  H8  UNL     1      25.255  28.133  12.544  1.00  0.00     0.177 HD
ENDROOT
BRANCH   1   8
HETATM    8  C3  UNL     1      24.611  28.801   9.485  1.00  0.00     0.145 C
BRANCH   8   9
HETATM    9  C2  UNL     1      24.189  27.495   8.850  1.00  0.00     0.092 C
BRANCH   9  10
HETATM   10  C1  UNL     1      22.724  27.518   8.612  1.00  0.00     0.088 C
HETATM   11  N1  UNL     1      22.271  27.874   7.473  1.00  0.00    -0.391 N
ATOM     12  H12 UNL     1      21.264  27.890   7.310  1.00  0.00     0.157 HD
ATOM     13  H11 UNL     1      22.929  28.139   6.740  1.00  0.00     0.157 HD
HETATM   14  N2  UNL     1      21.799  27.146   9.643  1.00  0.00    -0.088 NA
ENDBRANCH   9  10
ENDBRANCH   8   9
ENDBRANCH   1   8
BRANCH   4  15
HETATM   15  C5  UNL     1      27.790  27.038   9.069  1.00  0.00     0.319 A
HETATM   16  N5  UNL     1      29.111  27.554   9.219  1.00  0.00    -0.295 N
HETATM   17  N6  UNL     1      30.185  26.983   8.569  1.00  0.00    -0.312 N
ATOM     18  H5  UNL     1      29.264  28.363   9.821  1.00  0.00     0.184 HD
HETATM   19  C6  UNL     1      30.111  25.963   7.788  1.00  0.00     0.123 A
ATOM     20  H6  UNL     1      31.104  27.400   8.718  1.00  0.00     0.185 HD
HETATM   21  C7  UNL     1      28.769  25.416   7.618  1.00  0.00     0.105 A
HETATM   22  N7  UNL     1      27.744  25.909   8.196  1.00  0.00    -0.359 N
ATOM     23  H7  UNL     1      26.839  25.471   8.026  1.00  0.00     0.162 HD
ENDBRANCH   4  15
BRANCH   6  24
HETATM   24  C8  UNL     1      25.479  26.042  12.614  1.00  0.00     0.165 C
BRANCH  24  25
HETATM   25  C9  UNL     1      24.108  25.823  13.176  1.00  0.00     0.249 C
BRANCH  25  26
HETATM   26  N9  UNL     1      23.187  26.692  12.463  1.00  0.00    -0.078 N
ATOM     27  H93 UNL     1      22.444  27.054  13.060  1.00  0.00     0.274 HD
ATOM     28  H92 UNL     1      23.605  27.587  12.209  1.00  0.00     0.274 HD
ATOM     29  H91 UNL     1      22.832  26.178  11.656  1.00  0.00     0.274 HD
ENDBRANCH  25  26
ENDBRANCH  24  25
ENDBRANCH   6  24
TORSDOF 7
ENDMDL