MODEL 5
REMARK VINA RESULT: -5.161071784      3.008      6.906
REMARK  6 active torsions:
REMARK  status: ('A' for Active; 'I' for Inactive)
REMARK    1  A    between atoms: N2_4  and  N3_6
REMARK    2  A    between atoms: N3_6  and  C1_8
REMARK    3  A    between atoms: C1_8  and  C2_9
REMARK    4  A    between atoms: C2_9  and  N4_10
REMARK    5  A    between atoms: C2_9  and  N8_22
REMARK    6  A    between atoms: C3_12  and  C4_13
ROOT
HETATM    1  C2  UNL     1      26.291  27.168   9.895  1.00  0.00     0.202 C
ENDROOT
BRANCH   1   2
HETATM    2  C1  UNL     1      25.695  26.408   8.731  1.00  0.00     0.187 C
BRANCH   2   3
HETATM    3  N3  UNL     1      24.743  27.177   7.998  1.00  0.00    -0.319 N
ATOM      4  H3  UNL     1      25.059  27.848   7.297  1.00  0.00     0.181 HD
BRANCH   3   5
HETATM    5  N2  UNL     1      23.381  27.012   8.237  1.00  0.00    -0.254 N
HETATM    6  N1  UNL     1      22.573  27.732   7.570  1.00  0.00    -0.331 N
ATOM      7  H12 UNL     1      22.925  28.402   6.887  1.00  0.00     0.178 HD
ATOM      8  H11 UNL     1      21.575  27.612   7.745  1.00  0.00     0.178 HD
ATOM      9  H2  UNL     1      23.043  26.337   8.924  1.00  0.00     0.207 HD
ENDBRANCH   3   5
ENDBRANCH   2   3
ENDBRANCH   1   2
BRANCH   1  10
HETATM   10  N4  UNL     1      27.733  27.162   9.866  1.00  0.00    -0.374 N
HETATM   11  C3  UNL     1      28.328  26.638   8.854  1.00  0.00     0.118 C
ATOM     12  H4  UNL     1      28.271  27.566  10.633  1.00  0.00     0.161 HD
BRANCH  11  13
HETATM   13  C4  UNL     1      29.797  26.600   8.763  1.00  0.00     0.093 A
HETATM   14  N5  UNL     1      30.644  27.617   8.707  1.00  0.00    -0.304 N
HETATM   15  C5  UNL     1      31.898  27.146   8.631  1.00  0.00     0.326 A
ATOM     16  H5  UNL     1      30.384  28.603   8.719  1.00  0.00     0.171 HD
HETATM   17  O1  UNL     1      32.933  27.859   8.564  1.00  0.00    -0.247 OA
HETATM   18  N6  UNL     1      31.802  25.807   8.641  1.00  0.00    -0.295 N
HETATM   19  C6  UNL     1      30.514  25.424   8.723  1.00  0.00     0.148 A
ATOM     20  H6  UNL     1      32.596  25.167   8.593  1.00  0.00     0.172 HD
HETATM   21  N7  UNL     1      30.017  24.101   8.757  1.00  0.00    -0.080 NA
ENDBRANCH  11  13
ENDBRANCH   1  10
BRANCH   1  22
HETATM   22  N8  UNL     1      25.895  26.540  11.147  1.00  0.00    -0.344 N
HETATM   23  C7  UNL     1      24.811  26.858  11.778  1.00  0.00     0.198 C
HETATM   24  N9  UNL     1      24.528  26.184  12.983  1.00  0.00    -0.067 NA
HETATM   25  N10 UNL     1      23.990  27.863  11.211  1.00  0.00    -0.067 NA
ATOM     26  H8  UNL     1      26.497  25.818  11.544  1.00  0.00     0.164 HD
ENDBRANCH   1  22
TORSDOF 6
ENDMDL