MODEL 3
REMARK VINA RESULT: -5.845770214      2.875      5.341
REMARK  5 active torsions:
REMARK  status: ('A' for Active; 'I' for Inactive)
REMARK       I    between atoms: C1_4  and  N3_6
REMARK    1  A    between atoms: N3_6  and  C2_8
REMARK    2  A    between atoms: C3_9  and  C4_10
REMARK    3  A    between atoms: C4_10  and  C5_11
REMARK    4  A    between atoms: C6_17  and  N6_18
REMARK       I    between atoms: C7_20  and  N8_22
REMARK    5  A    between atoms: N8_22  and  C8_24
ROOT
HETATM    1  C2  UNL     1      25.796  26.751   9.641  1.00  0.00     0.165 C
HETATM    2  C3  UNL     1      24.845  27.390   8.698  1.00  0.00     0.223 C
HETATM    3  N5  UNL     1      24.571  28.488   9.602  1.00  0.00    -0.045 N
ATOM      4  H51 UNL     1      23.627  28.861   9.707  1.00  0.00     0.280 HD
ATOM      5  H52 UNL     1      24.897  29.432   9.397  1.00  0.00     0.280 HD
HETATM    6  C6  UNL     1      25.187  27.692  10.657  1.00  0.00     0.311 C
ENDROOT
BRANCH   6   7
HETATM    7  N6  UNL     1      24.189  27.127  11.516  1.00  0.00    -0.335 N
HETATM    8  C7  UNL     1      23.663  27.884  12.428  1.00  0.00     0.192 C
HETATM    9  N7  UNL     1      24.053  29.241  12.584  1.00  0.00    -0.063 NA
HETATM   10  N8  UNL     1      22.669  27.351  13.296  1.00  0.00    -0.309 N
ATOM     11  H8  UNL     1      22.384  26.377  13.189  1.00  0.00     0.170 HD
ATOM     12  H6  UNL     1      23.900  26.155  11.413  1.00  0.00     0.164 HD
BRANCH  10  13
HETATM   13  C8  UNL     1      22.070  28.138  14.300  1.00  0.00     0.355 C
HETATM   14  O2  UNL     1      21.110  28.900  14.043  1.00  0.00    -0.283 OA
ENDBRANCH  10  13
ENDBRANCH   6   7
BRANCH   1  15
HETATM   15  N3  UNL     1      27.161  27.131   9.381  1.00  0.00    -0.354 N
HETATM   16  C1  UNL     1      28.084  26.274   8.715  1.00  0.00     0.182 C
HETATM   17  N1  UNL     1      27.765  25.557   7.704  1.00  0.00    -0.374 N
HETATM   18  N2  UNL     1      29.408  26.221   9.204  1.00  0.00    -0.064 NA
ATOM     19  H12 UNL     1      28.425  24.943   7.227  1.00  0.00     0.158 HD
ATOM     20  H11 UNL     1      26.808  25.595   7.351  1.00  0.00     0.158 HD
ATOM     21  H3  UNL     1      27.480  28.052   9.685  1.00  0.00     0.162 HD
ENDBRANCH   1  15
BRANCH   2  22
HETATM   22  C4  UNL     1      23.644  26.580   8.294  1.00  0.00     0.134 C
BRANCH  22  23
HETATM   23  C5  UNL     1      22.441  27.400   8.615  1.00  0.00     0.233 C
HETATM   24  N4  UNL     1      22.034  28.464   7.749  1.00  0.00    -0.062 NA
HETATM   25  O1  UNL     1      21.733  27.211   9.636  1.00  0.00    -0.277 OA
ENDBRANCH  22  23
ENDBRANCH   2  22
TORSDOF 5
ENDMDL