MODEL 2
REMARK VINA RESULT: -4.887205377      1.445      2.158
REMARK  8 active torsions:
REMARK  status: ('A' for Active; 'I' for Inactive)
REMARK    1  A    between atoms: N1_1  and  N2_4
REMARK    2  A    between atoms: C1_6  and  C2_7
REMARK    3  A    between atoms: C2_7  and  N4_11
REMARK    4  A    between atoms: N4_11  and  C3_13
REMARK    5  A    between atoms: C3_13  and  C4_14
REMARK    6  A    between atoms: C4_14  and  N5_15
REMARK    7  A    between atoms: N5_15  and  C5_18
REMARK    8  A    between atoms: C5_18  and  N6_19
ROOT
HETATM    1  C4  UNL     1      27.118  27.873  11.652  1.00  0.00     0.253 C
ENDROOT
BRANCH   1   2
HETATM    2  C3  UNL     1      27.883  28.387  10.457  1.00  0.00     0.149 C
BRANCH   2   3
HETATM    3  N4  UNL     1      28.482  27.333   9.712  1.00  0.00    -0.374 N
ATOM      4  H4  UNL     1      28.883  26.519  10.179  1.00  0.00     0.161 HD
BRANCH   3   5
HETATM    5  C2  UNL     1      28.504  27.455   8.258  1.00  0.00     0.111 C
HETATM    6  N3  UNL     1      27.793  28.335   7.747  1.00  0.00    -0.385 N
ATOM      7  H32 UNL     1      27.808  28.420   6.730  1.00  0.00     0.157 HD
ATOM      8  H31 UNL     1      27.181  29.000   8.220  1.00  0.00     0.157 HD
BRANCH   5   9
HETATM    9  C1  UNL     1      29.375  26.509   7.584  1.00  0.00     0.154 C
HETATM   10  N2  UNL     1      29.019  25.364   7.158  1.00  0.00    -0.315 N
ATOM     11  H2  UNL     1      29.713  24.776   6.697  1.00  0.00     0.185 HD
BRANCH  10  12
HETATM   12  N1  UNL     1      27.739  24.885   7.294  1.00  0.00    -0.345 N
ATOM     13  H12 UNL     1      26.979  25.566   7.309  1.00  0.00     0.176 HD
ATOM     14  H11 UNL     1      27.528  23.891   7.378  1.00  0.00     0.176 HD
ENDBRANCH  10  12
ENDBRANCH   5   9
ENDBRANCH   3   5
ENDBRANCH   2   3
ENDBRANCH   1   2
BRANCH   1  15
HETATM   15  N5  UNL     1      25.701  27.822  11.431  1.00  0.00    -0.056 N
ATOM     16  H52 UNL     1      25.373  26.876  11.230  1.00  0.00     0.279 HD
ATOM     17  H51 UNL     1      25.169  27.979  12.287  1.00  0.00     0.279 HD
BRANCH  15  18
HETATM   18  C5  UNL     1      25.355  28.750  10.394  1.00  0.00     0.383 C
BRANCH  18  19
HETATM   19  N6  UNL     1      24.420  28.216   9.424  1.00  0.00    -0.234 N
HETATM   20  N7  UNL     1      23.273  28.787   9.083  1.00  0.00    -0.245 N
HETATM   21  C6  UNL     1      22.627  28.058   8.162  1.00  0.00     0.341 A
ATOM     22  H7  UNL     1      22.928  29.665   9.471  1.00  0.00     0.192 HD
HETATM   23  O1  UNL     1      21.500  28.350   7.639  1.00  0.00    -0.245 OA
HETATM   24  N8  UNL     1      23.406  26.996   7.927  1.00  0.00    -0.280 N
HETATM   25  C7  UNL     1      24.496  27.091   8.694  1.00  0.00     0.215 A
ATOM     26  H8  UNL     1      23.202  26.241   7.272  1.00  0.00     0.173 HD
HETATM   27  N9  UNL     1      25.558  26.167   8.737  1.00  0.00    -0.061 NA
ENDBRANCH  18  19
ENDBRANCH  15  18
ENDBRANCH   1  15
TORSDOF 8
ENDMDL