MODEL 2
REMARK VINA RESULT: -5.571001649      1.557      1.949
REMARK  6 active torsions:
REMARK  status: ('A' for Active; 'I' for Inactive)
REMARK    1  A    between atoms: C1_4  and  N2_5
REMARK    2  A    between atoms: N2_5  and  C2_7
REMARK    3  A    between atoms: C4_9  and  C5_10
REMARK       I    between atoms: C5_10  and  N3_12
REMARK    4  A    between atoms: N3_12  and  C6_13
REMARK    5  A    between atoms: C6_13  and  C7_14
REMARK    6  A    between atoms: C8_20  and  N6_21
ROOT
HETATM    1  C2  UNL     1      25.237  26.683  10.343  1.00  0.00     0.135 C
HETATM    2  C3  UNL     1      26.532  26.577   9.550  1.00  0.00     0.073 C
HETATM    3  C4  UNL     1      26.586  27.856   8.766  1.00  0.00     0.296 C
HETATM    4  N5  UNL     1      25.845  28.821   9.565  1.00  0.00    -0.038 N
ATOM      5  H51 UNL     1      25.632  29.698   9.089  1.00  0.00     0.280 HD
ATOM      6  H52 UNL     1      26.375  29.246  10.325  1.00  0.00     0.280 HD
HETATM    7  C8  UNL     1      24.667  28.047   9.991  1.00  0.00     0.309 C
ENDROOT
BRANCH   3   8
HETATM    8  C5  UNL     1      28.026  28.333   8.728  1.00  0.00     0.322 C
HETATM    9  O1  UNL     1      28.110  29.598   8.780  1.00  0.00    -0.255 OA
HETATM   10  N3  UNL     1      29.068  27.436   8.640  1.00  0.00    -0.377 NA
BRANCH  10  11
HETATM   11  C6  UNL     1      30.099  26.561   8.555  1.00  0.00     0.257 C
BRANCH  11  12
HETATM   12  C7  UNL     1      29.759  25.145   8.324  1.00  0.00     0.283 C
HETATM   13  N4  UNL     1      30.456  24.096   9.038  1.00  0.00    -0.056 NA
HETATM   14  O2  UNL     1      28.883  24.746   7.522  1.00  0.00    -0.269 OA
ENDBRANCH  11  12
ENDBRANCH  10  11
ENDBRANCH   3   8
BRANCH   1  15
HETATM   15  N2  UNL     1      25.575  26.612  11.740  1.00  0.00    -0.378 N
ATOM     16  H2  UNL     1      26.526  26.359  12.009  1.00  0.00     0.160 HD
BRANCH  15  17
HETATM   17  C1  UNL     1      24.629  26.883  12.744  1.00  0.00     0.169 C
HETATM   18  N1  UNL     1      23.486  26.311  12.868  1.00  0.00    -0.396 N
ATOM     19  H12 UNL     1      23.260  25.603  12.169  1.00  0.00     0.156 HD
ATOM     20  H11 UNL     1      22.799  26.507  13.596  1.00  0.00     0.156 HD
ENDBRANCH  15  17
ENDBRANCH   1  15
BRANCH   7  21
HETATM   21  N6  UNL     1      23.802  27.914   8.851  1.00  0.00    -0.338 N
HETATM   22  C9  UNL     1      22.600  27.518   8.871  1.00  0.00     0.198 C
HETATM   23  N7  UNL     1      21.968  27.149  10.107  1.00  0.00    -0.067 NA
HETATM   24  N8  UNL     1      21.855  27.431   7.636  1.00  0.00    -0.067 NA
ATOM     25  H6  UNL     1      24.193  28.161   7.942  1.00  0.00     0.164 HD
ENDBRANCH   7  21
TORSDOF 6
ENDMDL