MODEL 1
REMARK VINA RESULT: -4.894106364      0.000      0.000
REMARK  7 active torsions:
REMARK  status: ('A' for Active; 'I' for Inactive)
REMARK    1  A    between atoms: C1_4  and  N2_5
REMARK    2  A    between atoms: N2_5  and  C2_7
REMARK    3  A    between atoms: C3_8  and  O1_9
REMARK    4  A    between atoms: C4_11  and  O2_12
REMARK    5  A    between atoms: C5_14  and  N3_15
REMARK    6  A    between atoms: N3_15  and  C6_17
REMARK    7  A    between atoms: C7_19  and  N4_20
ROOT
HETATM    1  C2  UNL     1      25.969  27.019   9.731  1.00  0.00     0.138 C
HETATM    2  C3  UNL     1      26.677  27.688  10.885  1.00  0.00     0.173 C
HETATM    3  C4  UNL     1      25.701  27.851  11.999  1.00  0.00     0.173 C
HETATM    4  C5  UNL     1      24.318  27.624  11.418  1.00  0.00     0.140 C
HETATM    5  C7  UNL     1      24.491  27.024  10.063  1.00  0.00     0.134 C
ENDROOT
BRANCH   1   6
HETATM    6  N2  UNL     1      26.258  27.651   8.471  1.00  0.00    -0.377 N
ATOM      7  H2  UNL     1      25.581  27.553   7.714  1.00  0.00     0.160 HD
BRANCH   6   8
HETATM    8  C1  UNL     1      27.436  28.403   8.228  1.00  0.00     0.169 C
HETATM    9  N1  UNL     1      28.434  27.808   7.672  1.00  0.00    -0.396 N
ATOM     10  H12 UNL     1      28.363  26.823   7.420  1.00  0.00     0.156 HD
ATOM     11  H11 UNL     1      29.281  28.349   7.498  1.00  0.00     0.156 HD
ENDBRANCH   6   8
ENDBRANCH   1   6
BRANCH   2  12
HETATM   12  O1  UNL     1      27.785  26.919  11.228  1.00  0.00    -0.391 OA
ATOM     13  H1  UNL     1      27.677  26.617  12.122  1.00  0.00     0.210 HD
ENDBRANCH   2  12
BRANCH   5  14
HETATM   14  N4  UNL     1      23.813  27.709   9.014  1.00  0.00    -0.358 N
HETATM   15  C8  UNL     1      22.587  27.753   8.763  1.00  0.00     0.197 C
HETATM   16  N5  UNL     1      22.088  28.490   7.670  1.00  0.00    -0.067 NA
HETATM   17  N6  UNL     1      21.678  27.056   9.584  1.00  0.00    -0.067 NA
ATOM     18  H4  UNL     1      24.410  28.237   8.377  1.00  0.00     0.162 HD
ENDBRANCH   5  14
BRANCH   3  19
HETATM   19  O2  UNL     1      25.802  29.152  12.547  1.00  0.00    -0.391 OA
ATOM     20  H2  UNL     1      25.977  29.784  11.860  1.00  0.00     0.210 HD
ENDBRANCH   3  19
BRANCH   4  21
HETATM   21  N3  UNL     1      23.605  26.758  12.312  1.00  0.00    -0.359 N
ATOM     22  H3  UNL     1      23.824  25.762  12.337  1.00  0.00     0.162 HD
BRANCH  21  23
HETATM   23  C6  UNL     1      22.608  27.276  13.154  1.00  0.00     0.349 C
HETATM   24  O3  UNL     1      22.389  28.488  13.390  1.00  0.00    -0.284 OA
ENDBRANCH  21  23
ENDBRANCH   4  21
TORSDOF 7
ENDMDL