MODEL 2
REMARK VINA RESULT: -5.530459160      1.947      4.034
REMARK  5 active torsions:
REMARK  status: ('A' for Active; 'I' for Inactive)
REMARK       I    between atoms: C1_4  and  N3_6
REMARK    1  A    between atoms: C4_12  and  C5_13
REMARK    2  A    between atoms: C4_12  and  C7_19
REMARK    3  A    between atoms: C5_13  and  N5_14
REMARK    4  A    between atoms: C7_19  and  N8_20
REMARK    5  A    between atoms: N8_20  and  C8_22
ROOT
HETATM    1  N1  UNL     1      24.044  26.054  13.083  1.00  0.00    -0.373 N
ATOM      2  H11 UNL     1      23.423  26.700  12.596  1.00  0.00     0.158 HD
ATOM      3  H12 UNL     1      23.647  25.446  13.800  1.00  0.00     0.158 HD
HETATM    4  C1  UNL     1      25.291  25.979  12.830  1.00  0.00     0.200 C
HETATM    5  N2  UNL     1      26.154  25.081  13.507  1.00  0.00    -0.062 NA
HETATM    6  N3  UNL     1      25.844  26.825  11.832  1.00  0.00    -0.258 N
HETATM    7  C2  UNL     1      27.157  27.382  12.057  1.00  0.00     0.250 C
HETATM    8  C3  UNL     1      27.401  28.498  11.110  1.00  0.00     0.238 C
HETATM    9  O1  UNL     1      28.129  29.469  11.461  1.00  0.00    -0.272 OA
HETATM   10  N4  UNL     1      26.788  28.415   9.830  1.00  0.00    -0.332 N
ATOM     11  H4  UNL     1      27.027  29.101   9.113  1.00  0.00     0.164 HD
HETATM   12  C4  UNL     1      25.831  27.375   9.528  1.00  0.00     0.156 C
HETATM   13  N9  UNL     1      25.061  27.049  10.709  1.00  0.00    -0.100 NA
ENDROOT
BRANCH  12  14
HETATM   14  C5  UNL     1      24.849  27.866   8.491  1.00  0.00     0.174 C
BRANCH  14  15
HETATM   15  N5  UNL     1      23.748  26.928   8.401  1.00  0.00    -0.363 N
HETATM   16  C6  UNL     1      22.552  27.396   8.296  1.00  0.00     0.197 C
HETATM   17  N6  UNL     1      22.259  28.784   8.264  1.00  0.00    -0.067 NA
HETATM   18  N7  UNL     1      21.465  26.483   8.206  1.00  0.00    -0.067 NA
ATOM     19  H5  UNL     1      23.914  25.921   8.420  1.00  0.00     0.161 HD
ENDBRANCH  14  15
ENDBRANCH  12  14
BRANCH  12  20
HETATM   20  C7  UNL     1      26.518  26.098   9.084  1.00  0.00     0.174 C
BRANCH  20  21
HETATM   21  N8  UNL     1      27.510  26.338   8.076  1.00  0.00    -0.364 N
ATOM     22  H8  UNL     1      27.242  26.741   7.178  1.00  0.00     0.161 HD
BRANCH  21  23
HETATM   23  C8  UNL     1      28.846  26.014   8.331  1.00  0.00     0.348 C
HETATM   24  O2  UNL     1      29.325  26.183   9.475  1.00  0.00    -0.284 OA
ENDBRANCH  21  23
ENDBRANCH  20  21
ENDBRANCH  12  20
TORSDOF 5
ENDMDL