MODEL 4
REMARK VINA RESULT: -8.867752773      0.580      3.956
REMARK  5 active torsions:
REMARK  status: ('A' for Active; 'I' for Inactive)
REMARK    1  A    between atoms: C2_2  and  C3_3
REMARK    2  A    between atoms: C6_6  and  N1_7
REMARK    3  A    between atoms: N1_7  and  C7_9
REMARK    4  A    between atoms: C7_9  and  C8_10
REMARK    5  A    between atoms: C7_9  and  C14_16
ROOT
HETATM    1  C7  UNL     1      17.665  -0.222  -9.149  1.00  0.00     0.148 C
ENDROOT
BRANCH   1   2
HETATM    2  N1  UNL     1      18.026  -1.292 -10.032  1.00  0.00    -0.377 N
ATOM      3  H1  UNL     1      19.017  -1.488 -10.174  1.00  0.00     0.160 HD
BRANCH   2   4
HETATM    4  C6  UNL     1      17.077  -2.091 -10.715  1.00  0.00     0.028 A
HETATM    5  C5  UNL     1      16.016  -2.660 -10.002  1.00  0.00     0.030 A
HETATM    6  C4  UNL     1      15.091  -3.450 -10.635  1.00  0.00     0.013 A
HETATM    7  C3  UNL     1      15.124  -3.741 -11.976  1.00  0.00    -0.037 A
HETATM    8  C21 UNL     1      16.190  -3.170 -12.692  1.00  0.00     0.013 A
HETATM    9  C20 UNL     1      17.116  -2.379 -12.056  1.00  0.00     0.030 A
BRANCH   7  10
HETATM   10  C2  UNL     1      14.161  -4.574 -12.678  1.00  0.00     0.001 C
HETATM   11  C1  UNL     1      13.843  -4.352 -13.919  1.00  0.00     0.012 C
ENDBRANCH   7  10
ENDBRANCH   2   4
ENDBRANCH   1   2
BRANCH   1  12
HETATM   12  C8  UNL     1      18.634  -0.112  -8.040  1.00  0.00    -0.031 A
HETATM   13  C9  UNL     1      18.320   0.529  -6.876  1.00  0.00     0.009 A
HETATM   14  C10 UNL     1      19.194   0.653  -5.819  1.00  0.00     0.001 A
HETATM   15  C11 UNL     1      20.453   0.114  -5.913  1.00  0.00     0.000 A
HETATM   16  C12 UNL     1      20.794  -0.542  -7.085  1.00  0.00     0.001 A
HETATM   17  C13 UNL     1      19.898  -0.659  -8.147  1.00  0.00     0.009 A
ENDBRANCH   1  12
BRANCH   1  18
HETATM   18  C14 UNL     1      17.550   1.068  -9.886  1.00  0.00    -0.031 A
HETATM   19  C15 UNL     1      16.374   1.369 -10.530  1.00  0.00     0.009 A
HETATM   20  C16 UNL     1      16.231   2.569 -11.233  1.00  0.00     0.001 A
HETATM   21  C17 UNL     1      17.261   3.457 -11.284  1.00  0.00     0.000 A
HETATM   22  C18 UNL     1      18.443   3.171 -10.645  1.00  0.00     0.001 A
HETATM   23  C19 UNL     1      18.580   1.980  -9.952  1.00  0.00     0.009 A
ENDBRANCH   1  18
TORSDOF 5
ENDMDL