MODEL 2
REMARK VINA RESULT: -9.432954581      0.028      1.033
REMARK  5 active torsions:
REMARK  status: ('A' for Active; 'I' for Inactive)
REMARK    1  A    between atoms: C2_4  and  C3_5
REMARK    2  A    between atoms: C3_5  and  C4_6
REMARK    3  A    between atoms: C4_6  and  C5_7
REMARK    4  A    between atoms: C5_7  and  C6_8
REMARK    5  A    between atoms: C13_15  and  C14_16
ROOT
HETATM    1  N1  UNL     1      20.043   3.207  -8.913  1.00  0.00    -0.093 NA
HETATM    2  C1  UNL     1      18.905   2.391  -9.272  1.00  0.00     0.098 A
HETATM    3  S1  UNL     1      17.704   2.702 -10.439  1.00  0.00    -0.079 SA
HETATM    4  C2  UNL     1      16.759   1.294 -10.247  1.00  0.00    -0.015 A
HETATM    5  C12 UNL     1      17.420   0.616  -9.265  1.00  0.00     0.029 A
HETATM    6  C13 UNL     1      18.526   1.180  -8.760  1.00  0.00     0.006 A
ENDROOT
BRANCH   4   7
HETATM    7  C3  UNL     1      15.507   0.849 -10.949  1.00  0.00     0.046 C
BRANCH   7   8
HETATM    8  C4  UNL     1      15.327  -0.614 -10.763  1.00  0.00     0.010 C
BRANCH   8   9
HETATM    9  C5  UNL     1      16.073  -1.439 -11.772  1.00  0.00     0.039 C
BRANCH   9  10
HETATM   10  C6  UNL     1      15.152  -2.133 -12.699  1.00  0.00    -0.058 A
HETATM   11  C7  UNL     1      14.425  -1.401 -13.618  1.00  0.00     0.007 A
HETATM   12  C8  UNL     1      13.562  -2.008 -14.480  1.00  0.00     0.001 A
HETATM   13  C9  UNL     1      13.391  -3.363 -14.460  1.00  0.00     0.000 A
HETATM   14  C10 UNL     1      14.106  -4.133 -13.549  1.00  0.00     0.001 A
HETATM   15  C11 UNL     1      14.961  -3.496 -12.700  1.00  0.00     0.007 A
ENDBRANCH   9  10
ENDBRANCH   8   9
ENDBRANCH   7   8
ENDBRANCH   4   7
BRANCH   6  16
HETATM   16  C14 UNL     1      19.353   0.556  -7.681  1.00  0.00    -0.024 A
HETATM   17  C15 UNL     1      19.062   0.857  -6.367  1.00  0.00     0.012 A
HETATM   18  C16 UNL     1      19.765   0.334  -5.306  1.00  0.00     0.001 A
HETATM   19  C17 UNL     1      20.797  -0.522  -5.572  1.00  0.00     0.000 A
HETATM   20  C18 UNL     1      21.106  -0.838  -6.884  1.00  0.00     0.001 A
HETATM   21  C19 UNL     1      20.379  -0.295  -7.950  1.00  0.00     0.012 A
ENDBRANCH   6  16
TORSDOF 5
ENDMDL