MODEL 4
REMARK VINA RESULT: -9.145052145      0.082      1.008
REMARK  5 active torsions:
REMARK  status: ('A' for Active; 'I' for Inactive)
REMARK    1  A    between atoms: C2_2  and  C3_3
REMARK    2  A    between atoms: C8_8  and  N1_9
REMARK    3  A    between atoms: N1_9  and  C9_11
REMARK    4  A    between atoms: C9_11  and  C10_12
REMARK    5  A    between atoms: C13_15  and  C14_16
ROOT
HETATM    1  C10 UNL     1      15.677  -3.985 -11.865  1.00  0.00    -0.041 A
HETATM    2  C11 UNL     1      16.820  -3.409 -12.339  1.00  0.00     0.009 A
HETATM    3  C12 UNL     1      17.443  -2.329 -11.729  1.00  0.00     0.013 A
HETATM    4  C13 UNL     1      16.895  -1.790 -10.579  1.00  0.00    -0.026 A
HETATM    5  C20 UNL     1      15.739  -2.353 -10.077  1.00  0.00     0.013 A
HETATM    6  C21 UNL     1      15.144  -3.422 -10.702  1.00  0.00     0.009 A
ENDROOT
BRANCH   1   7
HETATM    7  C9  UNL     1      14.945  -5.113 -12.423  1.00  0.00     0.158 C
BRANCH   7   8
HETATM    8  N1  UNL     1      13.858  -4.797 -13.305  1.00  0.00    -0.385 N
ATOM      9  H1  UNL     1      12.902  -4.732 -12.955  1.00  0.00     0.160 HD
BRANCH   8  10
HETATM   10  C8  UNL     1      14.150  -4.579 -14.668  1.00  0.00     0.034 A
HETATM   11  C3  UNL     1      13.877  -3.345 -15.206  1.00  0.00    -0.032 A
HETATM   12  C4  UNL     1      14.156  -3.130 -16.539  1.00  0.00     0.009 A
HETATM   13  C5  UNL     1      14.699  -4.123 -17.331  1.00  0.00     0.001 A
HETATM   14  C6  UNL     1      14.976  -5.374 -16.791  1.00  0.00     0.002 A
HETATM   15  C7  UNL     1      14.701  -5.602 -15.458  1.00  0.00     0.029 A
BRANCH  11  16
HETATM   16  C2  UNL     1      13.314  -2.294 -14.381  1.00  0.00     0.036 C
HETATM   17  C1  UNL     1      14.276  -1.234 -13.936  1.00  0.00     0.010 C
ENDBRANCH  11  16
ENDBRANCH   8  10
ENDBRANCH   7   8
ENDBRANCH   1   7
BRANCH   4  18
HETATM   18  C14 UNL     1      17.534  -0.651  -9.920  1.00  0.00    -0.026 A
HETATM   19  C15 UNL     1      18.586  -0.806  -9.045  1.00  0.00     0.012 A
HETATM   20  C16 UNL     1      19.179   0.284  -8.431  1.00  0.00     0.001 A
HETATM   21  C17 UNL     1      18.726   1.565  -8.682  1.00  0.00     0.000 A
HETATM   22  C18 UNL     1      17.674   1.733  -9.556  1.00  0.00     0.001 A
HETATM   23  C19 UNL     1      17.101   0.649 -10.153  1.00  0.00     0.012 A
ENDBRANCH   4  18
TORSDOF 5
ENDMDL