MODEL 2
REMARK VINA RESULT: -9.609342213      0.031      1.013
REMARK  5 active torsions:
REMARK  status: ('A' for Active; 'I' for Inactive)
REMARK    1  A    between atoms: C2_2  and  N1_3
REMARK    2  A    between atoms: C2_2  and  C16_18
REMARK    3  A    between atoms: N1_3  and  C3_5
REMARK    4  A    between atoms: C7_9  and  C8_10
REMARK    5  A    between atoms: C8_10  and  C9_11
ROOT
HETATM    1  C3  UNL     1      16.118  -2.573 -11.157  1.00  0.00     0.029 A
HETATM    2  C4  UNL     1      15.420  -3.075 -10.088  1.00  0.00     0.029 A
HETATM    3  C5  UNL     1      15.611  -2.561  -8.798  1.00  0.00     0.003 A
HETATM    4  C6  UNL     1      16.511  -1.538  -8.594  1.00  0.00     0.007 A
HETATM    5  C7  UNL     1      17.213  -1.027  -9.642  1.00  0.00    -0.052 A
HETATM    6  C15 UNL     1      17.005  -1.551 -10.906  1.00  0.00     0.036 A
ENDROOT
BRANCH   1   7
HETATM    7  N1  UNL     1      15.906  -3.121 -12.444  1.00  0.00    -0.382 N
ATOM      8  H1  UNL     1      16.707  -3.136 -13.075  1.00  0.00     0.160 HD
BRANCH   7   9
HETATM    9  C2  UNL     1      14.682  -3.655 -12.945  1.00  0.00     0.111 C
HETATM   10  C1  UNL     1      14.750  -5.110 -13.288  1.00  0.00     0.037 C
BRANCH   9  11
HETATM   11  C16 UNL     1      14.205  -2.885 -14.112  1.00  0.00    -0.036 A
HETATM   12  C17 UNL     1      13.691  -3.614 -15.190  1.00  0.00     0.009 A
HETATM   13  C18 UNL     1      13.232  -2.974 -16.309  1.00  0.00     0.001 A
HETATM   14  C19 UNL     1      13.249  -1.602 -16.433  1.00  0.00     0.000 A
HETATM   15  C20 UNL     1      13.759  -0.899 -15.362  1.00  0.00     0.001 A
HETATM   16  C21 UNL     1      14.224  -1.531 -14.232  1.00  0.00     0.009 A
ENDBRANCH   9  11
ENDBRANCH   7   9
ENDBRANCH   1   7
BRANCH   5  17
HETATM   17  C8  UNL     1      18.200   0.070  -9.534  1.00  0.00     0.077 C
BRANCH  17  18
HETATM   18  C9  UNL     1      18.958   0.048  -8.278  1.00  0.00    -0.054 A
HETATM   19  C10 UNL     1      18.452   0.741  -7.203  1.00  0.00     0.007 A
HETATM   20  C11 UNL     1      19.118   0.765  -5.979  1.00  0.00     0.001 A
HETATM   21  C12 UNL     1      20.302   0.074  -5.869  1.00  0.00     0.000 A
HETATM   22  C13 UNL     1      20.806  -0.618  -6.945  1.00  0.00     0.001 A
HETATM   23  C14 UNL     1      20.137  -0.629  -8.138  1.00  0.00     0.007 A
ENDBRANCH  17  18
ENDBRANCH   5  17
TORSDOF 5
ENDMDL