MODEL 1
REMARK VINA RESULT: -8.516558308      0.000      0.000
REMARK  6 active torsions:
REMARK  status: ('A' for Active; 'I' for Inactive)
REMARK    1  A    between atoms: C4_4  and  C5_5
REMARK    2  A    between atoms: C5_5  and  C6_6
REMARK    3  A    between atoms: C6_6  and  C7_7
REMARK    4  A    between atoms: C7_7  and  N2_16
REMARK    5  A    between atoms: N1_8  and  C8_10
REMARK    6  A    between atoms: N2_16  and  C14_18
ROOT
HETATM    1  C7  UNL     1      15.417  -1.826 -11.169  1.00  0.00     0.082 C
HETATM    2  N1  UNL     1      15.134  -3.012 -10.800  1.00  0.00    -0.346 N
ATOM      3  H1  UNL     1      14.903  -3.192  -9.823  1.00  0.00     0.167 HD
ENDROOT
BRANCH   1   4
HETATM    4  C6  UNL     1      15.753  -1.538 -12.568  1.00  0.00     0.081 C
BRANCH   4   5
HETATM    5  C5  UNL     1      14.547  -0.981 -13.335  1.00  0.00     0.046 C
BRANCH   5   6
HETATM    6  C4  UNL     1      14.362  -1.865 -14.521  1.00  0.00    -0.058 A
HETATM    7  C3  UNL     1      15.439  -2.575 -14.964  1.00  0.00     0.007 A
HETATM    8  C2  UNL     1      15.325  -3.404 -16.051  1.00  0.00     0.001 A
HETATM    9  C1  UNL     1      14.111  -3.532 -16.714  1.00  0.00     0.000 A
HETATM   10  C21 UNL     1      13.043  -2.806 -16.247  1.00  0.00     0.001 A
HETATM   11  C20 UNL     1      13.150  -1.970 -15.154  1.00  0.00     0.007 A
ENDBRANCH   5   6
ENDBRANCH   4   5
ENDBRANCH   1   4
BRANCH   1  12
HETATM   12  N2  UNL     1      15.403  -0.792 -10.213  1.00  0.00    -0.346 N
ATOM     13  H2  UNL     1      14.609  -0.738  -9.573  1.00  0.00     0.167 HD
BRANCH  12  14
HETATM   14  C14 UNL     1      16.431   0.179 -10.088  1.00  0.00     0.033 A
HETATM   15  C15 UNL     1      16.284   1.462 -10.510  1.00  0.00     0.029 A
HETATM   16  C16 UNL     1      17.327   2.363 -10.359  1.00  0.00     0.002 A
HETATM   17  C17 UNL     1      18.523   1.978  -9.783  1.00  0.00     0.000 A
HETATM   18  C18 UNL     1      18.684   0.696  -9.356  1.00  0.00     0.002 A
HETATM   19  C19 UNL     1      17.623  -0.191  -9.518  1.00  0.00     0.029 A
ENDBRANCH  12  14
ENDBRANCH   1  12
BRANCH   2  20
HETATM   20  C8  UNL     1      15.135  -4.092 -11.727  1.00  0.00     0.033 A
HETATM   21  C9  UNL     1      16.276  -4.782 -12.083  1.00  0.00     0.029 A
HETATM   22  C10 UNL     1      16.264  -5.821 -12.978  1.00  0.00     0.002 A
HETATM   23  C11 UNL     1      15.079  -6.224 -13.569  1.00  0.00     0.000 A
HETATM   24  C12 UNL     1      13.927  -5.557 -13.235  1.00  0.00     0.002 A
HETATM   25  C13 UNL     1      13.955  -4.512 -12.331  1.00  0.00     0.029 A
ENDBRANCH   2  20
TORSDOF 6
ENDMDL