MODEL 1
REMARK VINA RESULT: -8.104780417      0.000      0.000
REMARK  7 active torsions:
REMARK  status: ('A' for Active; 'I' for Inactive)
REMARK    1  A    between atoms: C2_2  and  C3_3
REMARK    2  A    between atoms: C3_3  and  C4_4
REMARK    3  A    between atoms: C4_4  and  C5_5
REMARK    4  A    between atoms: C4_4  and  C11_17
REMARK    5  A    between atoms: C8_8  and  N1_9
REMARK    6  A    between atoms: N1_9  and  N2_11
REMARK    7  A    between atoms: N2_11  and  N3_12
ROOT
HETATM    1  C4  UNL     1      15.059  -2.712 -11.615  1.00  0.00     0.057 C
ENDROOT
BRANCH   1   2
HETATM    2  C3  UNL     1      15.359  -3.849 -10.677  1.00  0.00     0.040 C
BRANCH   2   3
HETATM    3  C2  UNL     1      14.670  -3.705  -9.376  1.00  0.00    -0.036 C
HETATM    4  C1  UNL     1      15.327  -3.795  -8.238  1.00  0.00     0.007 C
ENDBRANCH   2   3
ENDBRANCH   1   2
BRANCH   1   5
HETATM    5  C5  UNL     1      15.772  -1.497 -11.122  1.00  0.00    -0.049 A
HETATM    6  C6  UNL     1      17.052  -1.506 -10.632  1.00  0.00     0.010 A
HETATM    7  C7  UNL     1      17.689  -0.376 -10.178  1.00  0.00     0.032 A
HETATM    8  C8  UNL     1      17.025   0.824 -10.211  1.00  0.00     0.062 A
HETATM    9  C9  UNL     1      15.740   0.884 -10.695  1.00  0.00     0.032 A
HETATM   10  C10 UNL     1      15.108  -0.267 -11.151  1.00  0.00     0.010 A
BRANCH   8  11
HETATM   11  N1  UNL     1      17.678   1.987  -9.743  1.00  0.00    -0.217 N
ATOM     12  H1  UNL     1      18.383   1.925  -9.008  1.00  0.00     0.203 HD
BRANCH  11  13
HETATM   13  N2  UNL     1      17.385   3.067 -10.232  1.00  0.00    -0.243 NA
BRANCH  13  14
HETATM   14  N3  UNL     1      17.258   4.143 -10.827  1.00  0.00    -0.260 N
ATOM     15  H32 UNL     1      18.008   4.507 -10.239  1.00  0.00     0.193 HD
ATOM     16  H31 UNL     1      17.035   4.955 -11.403  1.00  0.00     0.193 HD
ENDBRANCH  13  14
ENDBRANCH  11  13
ENDBRANCH   8  11
ENDBRANCH   1   5
BRANCH   1  17
HETATM   17  C11 UNL     1      15.352  -2.992 -13.027  1.00  0.00    -0.021 A
HETATM   18  C12 UNL     1      16.466  -3.661 -13.481  1.00  0.00     0.097 A
HETATM   19  N4  UNL     1      16.381  -3.721 -14.836  1.00  0.00    -0.365 N
HETATM   20  C13 UNL     1      15.238  -3.105 -15.241  1.00  0.00     0.042 A
ATOM     21  H4  UNL     1      17.066  -4.158 -15.453  1.00  0.00     0.165 HD
HETATM   22  C14 UNL     1      14.719  -2.913 -16.503  1.00  0.00     0.030 A
HETATM   23  C18 UNL     1      14.575  -2.638 -14.113  1.00  0.00    -0.001 A
HETATM   24  C15 UNL     1      13.516  -2.244 -16.671  1.00  0.00     0.002 A
HETATM   25  C16 UNL     1      12.854  -1.777 -15.538  1.00  0.00     0.001 A
HETATM   26  C17 UNL     1      13.380  -1.974 -14.284  1.00  0.00     0.014 A
ENDBRANCH   1  17
TORSDOF 7
ENDMDL