MODEL 1
REMARK VINA RESULT: -9.483387597      0.000      0.000
REMARK  5 active torsions:
REMARK  status: ('A' for Active; 'I' for Inactive)
REMARK    1  A    between atoms: C2_2  and  C3_3
REMARK    2  A    between atoms: C3_3  and  C4_4
REMARK    3  A    between atoms: C3_3  and  C10_10
REMARK    4  A    between atoms: C14_14  and  N1_15
REMARK    5  A    between atoms: N1_15  and  C15_17
ROOT
HETATM    1  C10 UNL     1      15.992  -0.509 -10.698  1.00  0.00    -0.044 A
HETATM    2  C11 UNL     1      15.517   0.762 -10.953  1.00  0.00     0.008 A
HETATM    3  C12 UNL     1      16.250   1.878 -10.600  1.00  0.00     0.003 A
HETATM    4  C13 UNL     1      17.474   1.701  -9.983  1.00  0.00     0.029 A
HETATM    5  C14 UNL     1      18.001   0.464  -9.704  1.00  0.00     0.033 A
HETATM    6  C21 UNL     1      17.210  -0.626 -10.085  1.00  0.00     0.037 A
ENDROOT
BRANCH   1   7
HETATM    7  C3  UNL     1      15.172  -1.692 -11.095  1.00  0.00     0.073 C
BRANCH   7   8
HETATM    8  C2  UNL     1      15.515  -2.899 -10.294  1.00  0.00    -0.023 C
HETATM    9  C1  UNL     1      14.732  -3.378  -9.349  1.00  0.00     0.008 C
ENDBRANCH   7   8
BRANCH   7  10
HETATM   10  C4  UNL     1      15.265  -1.976 -12.543  1.00  0.00    -0.046 A
HETATM   11  C5  UNL     1      14.352  -1.455 -13.429  1.00  0.00     0.008 A
HETATM   12  C6  UNL     1      14.432  -1.715 -14.790  1.00  0.00     0.001 A
HETATM   13  C7  UNL     1      15.441  -2.510 -15.269  1.00  0.00     0.000 A
HETATM   14  C8  UNL     1      16.370  -3.047 -14.408  1.00  0.00     0.001 A
HETATM   15  C9  UNL     1      16.272  -2.771 -13.038  1.00  0.00     0.008 A
ENDBRANCH   7  10
ENDBRANCH   1   7
BRANCH   5  16
HETATM   16  N1  UNL     1      19.260   0.274  -9.092  1.00  0.00    -0.356 N
ATOM     17  H1  UNL     1      20.054   0.201  -9.729  1.00  0.00     0.166 HD
BRANCH  16  18
HETATM   18  C15 UNL     1      19.565   0.173  -7.732  1.00  0.00     0.032 A
HETATM   19  C16 UNL     1      20.668  -0.526  -7.317  1.00  0.00     0.029 A
HETATM   20  C17 UNL     1      20.967  -0.591  -5.957  1.00  0.00     0.002 A
HETATM   21  C18 UNL     1      20.176   0.033  -5.005  1.00  0.00     0.000 A
HETATM   22  C19 UNL     1      19.081   0.721  -5.460  1.00  0.00     0.002 A
HETATM   23  C20 UNL     1      18.743   0.816  -6.787  1.00  0.00     0.029 A
ENDBRANCH  16  18
ENDBRANCH   5  16
TORSDOF 5
ENDMDL