MODEL 4
REMARK VINA RESULT: -8.840020777      3.141      7.669
REMARK  6 active torsions:
REMARK  status: ('A' for Active; 'I' for Inactive)
REMARK    1  A    between atoms: C2_2  and  C3_3
REMARK    2  A    between atoms: C3_3  and  C4_4
REMARK    3  A    between atoms: C3_3  and  C5_9
REMARK    4  A    between atoms: C4_4  and  N1_5
REMARK    5  A    between atoms: C5_9  and  C6_10
REMARK    6  A    between atoms: C10_14  and  C11_15
ROOT
HETATM    1  C6  UNL     1      15.557  -3.563 -13.397  1.00  0.00    -0.057 A
HETATM    2  C7  UNL     1      16.437  -2.505 -13.306  1.00  0.00     0.008 A
HETATM    3  C8  UNL     1      16.721  -1.923 -12.063  1.00  0.00     0.013 A
HETATM    4  C9  UNL     1      16.153  -2.364 -10.888  1.00  0.00    -0.015 A
HETATM    5  C10 UNL     1      16.461  -1.778  -9.688  1.00  0.00    -0.015 A
HETATM    6  C17 UNL     1      15.844  -2.304  -8.536  1.00  0.00     0.013 A
HETATM    7  C18 UNL     1      14.967  -3.363  -8.633  1.00  0.00     0.002 A
HETATM    8  C19 UNL     1      14.675  -3.930  -9.843  1.00  0.00     0.012 A
HETATM    9  C20 UNL     1      15.265  -3.435 -10.985  1.00  0.00    -0.025 A
HETATM   10  C21 UNL     1      14.991  -4.003 -12.226  1.00  0.00     0.019 A
ENDROOT
BRANCH   1  11
HETATM   11  C5  UNL     1      15.265  -4.159 -14.733  1.00  0.00     0.045 C
BRANCH  11  12
HETATM   12  C3  UNL     1      13.853  -3.929 -15.132  1.00  0.00     0.015 C
BRANCH  12  13
HETATM   13  C2  UNL     1      13.501  -4.743 -16.380  1.00  0.00     0.002 C
HETATM   14  C1  UNL     1      14.727  -5.527 -16.810  1.00  0.00     0.005 C
ENDBRANCH  12  13
BRANCH  12  15
HETATM   15  C4  UNL     1      13.460  -2.501 -15.349  1.00  0.00     0.234 C
BRANCH  15  16
HETATM   16  N1  UNL     1      14.169  -1.890 -16.476  1.00  0.00    -0.079 N
ATOM     17  H13 UNL     1      15.128  -2.234 -16.536  1.00  0.00     0.274 HD
ATOM     18  H12 UNL     1      13.812  -2.239 -17.366  1.00  0.00     0.274 HD
ATOM     19  H11 UNL     1      14.145  -0.871 -16.445  1.00  0.00     0.274 HD
ENDBRANCH  15  16
ENDBRANCH  12  15
ENDBRANCH  11  12
ENDBRANCH   1  11
BRANCH   5  20
HETATM   20  C11 UNL     1      17.349  -0.635  -9.564  1.00  0.00    -0.025 A
HETATM   21  C12 UNL     1      18.511  -0.850  -8.852  1.00  0.00     0.012 A
HETATM   22  C13 UNL     1      19.447   0.138  -8.605  1.00  0.00     0.001 A
HETATM   23  C14 UNL     1      19.169   1.387  -9.112  1.00  0.00     0.000 A
HETATM   24  C15 UNL     1      18.013   1.627  -9.827  1.00  0.00     0.001 A
HETATM   25  C16 UNL     1      17.117   0.620 -10.047  1.00  0.00     0.012 A
ENDBRANCH   5  20
TORSDOF 6
ENDMDL