MODEL 1
REMARK VINA RESULT: -9.712670005      0.000      0.000
REMARK  5 active torsions:
REMARK  status: ('A' for Active; 'I' for Inactive)
REMARK    1  A    between atoms: C2_2  and  C3_3
REMARK    2  A    between atoms: C6_6  and  N1_7
REMARK    3  A    between atoms: N1_7  and  C7_9
REMARK    4  A    between atoms: C7_9  and  C8_10
REMARK    5  A    between atoms: C11_13  and  C12_14
ROOT
HETATM    1  C8  UNL     1      16.010  -4.843 -12.221  1.00  0.00    -0.041 A
HETATM    2  C9  UNL     1      17.064  -4.046 -12.690  1.00  0.00     0.009 A
HETATM    3  C10 UNL     1      17.243  -2.760 -12.233  1.00  0.00     0.013 A
HETATM    4  C11 UNL     1      16.407  -2.193 -11.302  1.00  0.00    -0.026 A
HETATM    5  C18 UNL     1      15.372  -2.957 -10.834  1.00  0.00     0.013 A
HETATM    6  C19 UNL     1      15.186  -4.266 -11.296  1.00  0.00     0.009 A
ENDROOT
BRANCH   1   7
HETATM    7  C7  UNL     1      15.899  -6.209 -12.761  1.00  0.00     0.158 C
BRANCH   7   8
HETATM    8  N1  UNL     1      15.551  -6.278 -14.159  1.00  0.00    -0.386 N
ATOM      9  H1  UNL     1      15.809  -7.082 -14.732  1.00  0.00     0.160 HD
BRANCH   8  10
HETATM   10  C6  UNL     1      14.828  -5.170 -14.711  1.00  0.00     0.028 A
HETATM   11  C5  UNL     1      15.313  -4.517 -15.848  1.00  0.00     0.029 A
HETATM   12  C4  UNL     1      14.607  -3.446 -16.375  1.00  0.00     0.009 A
HETATM   13  C3  UNL     1      13.431  -2.997 -15.812  1.00  0.00    -0.058 A
HETATM   14  C21 UNL     1      12.980  -3.664 -14.692  1.00  0.00     0.009 A
HETATM   15  C20 UNL     1      13.669  -4.729 -14.155  1.00  0.00     0.029 A
BRANCH  13  16
HETATM   16  C2  UNL     1      12.649  -1.878 -16.324  1.00  0.00     0.034 C
HETATM   17  C1  UNL     1      13.330  -0.545 -16.236  1.00  0.00     0.010 C
ENDBRANCH  13  16
ENDBRANCH   8  10
ENDBRANCH   7   8
ENDBRANCH   1   7
BRANCH   4  18
HETATM   18  C12 UNL     1      16.633  -0.825 -10.846  1.00  0.00    -0.026 A
HETATM   19  C13 UNL     1      15.730   0.186 -11.085  1.00  0.00     0.012 A
HETATM   20  C14 UNL     1      15.975   1.480 -10.638  1.00  0.00     0.001 A
HETATM   21  C15 UNL     1      17.130   1.782  -9.946  1.00  0.00     0.000 A
HETATM   22  C16 UNL     1      18.044   0.770  -9.704  1.00  0.00     0.001 A
HETATM   23  C17 UNL     1      17.788  -0.523 -10.156  1.00  0.00     0.012 A
ENDBRANCH   4  18
TORSDOF 5
ENDMDL