MODEL 2
REMARK VINA RESULT: -8.481232165      3.698      6.648
REMARK  6 active torsions:
REMARK  status: ('A' for Active; 'I' for Inactive)
REMARK    1  A    between atoms: N1_1  and  C1_4
REMARK    2  A    between atoms: C3_8  and  C4_9
REMARK    3  A    between atoms: C4_9  and  C5_10
REMARK    4  A    between atoms: C5_10  and  C6_11
REMARK    5  A    between atoms: C6_11  and  C7_12
REMARK    6  A    between atoms: C7_12  and  C8_13
ROOT
HETATM    1  C6  UNL     1      14.254  -1.967 -15.680  1.00  0.00     0.005 C
ENDROOT
BRANCH   1   2
HETATM    2  C5  UNL     1      13.824  -3.127 -16.507  1.00  0.00     0.005 C
BRANCH   2   3
HETATM    3  C4  UNL     1      14.928  -4.075 -16.865  1.00  0.00     0.048 C
BRANCH   3   4
HETATM    4  C3  UNL     1      15.674  -4.580 -15.687  1.00  0.00     0.001 A
HETATM    5  C2  UNL     1      16.979  -4.382 -15.359  1.00  0.00     0.104 A
HETATM    6  N2  UNL     1      17.433  -4.929 -14.259  1.00  0.00    -0.346 N
HETATM    7  C1  UNL     1      16.593  -5.652 -13.518  1.00  0.00     0.142 A
ATOM      8  H2  UNL     1      18.404  -4.805 -13.976  1.00  0.00     0.167 HD
HETATM    9  S1  UNL     1      15.131  -5.554 -14.399  1.00  0.00    -0.058 SA
BRANCH   7  10
HETATM   10  N1  UNL     1      16.846  -6.280 -12.388  1.00  0.00    -0.380 N
ATOM     11  H12 UNL     1      17.491  -7.050 -12.207  1.00  0.00     0.158 HD
ATOM     12  H11 UNL     1      16.435  -6.109 -11.470  1.00  0.00     0.158 HD
ENDBRANCH   7  10
ENDBRANCH   3   4
ENDBRANCH   2   3
ENDBRANCH   1   2
BRANCH   1  13
HETATM   13  C7  UNL     1      13.636  -1.976 -14.331  1.00  0.00     0.038 C
BRANCH  13  14
HETATM   14  C8  UNL     1      14.441  -1.422 -13.247  1.00  0.00    -0.057 A
HETATM   15  C9  UNL     1      14.105  -0.199 -12.717  1.00  0.00     0.008 A
HETATM   16  C10 UNL     1      14.841   0.354 -11.695  1.00  0.00     0.013 A
HETATM   17  C11 UNL     1      15.941  -0.284 -11.156  1.00  0.00    -0.026 A
HETATM   18  C12 UNL     1      16.692   0.246 -10.138  1.00  0.00     0.012 A
HETATM   19  C16 UNL     1      16.290  -1.504 -11.673  1.00  0.00    -0.025 A
HETATM   20  C13 UNL     1      17.779  -0.396  -9.612  1.00  0.00     0.001 A
HETATM   21  C14 UNL     1      18.126  -1.622 -10.136  1.00  0.00     0.001 A
HETATM   22  C15 UNL     1      17.383  -2.171 -11.161  1.00  0.00     0.012 A
HETATM   23  C17 UNL     1      15.549  -2.053 -12.697  1.00  0.00     0.019 A
ENDBRANCH  13  14
ENDBRANCH   1  13
TORSDOF 6
ENDMDL