MODEL 3
REMARK VINA RESULT: -6.251492248      2.496      5.800
REMARK  5 active torsions:
REMARK  status: ('A' for Active; 'I' for Inactive)
REMARK    1  A    between atoms: C2_2  and  C3_3
REMARK    2  A    between atoms: C3_3  and  N1_4
REMARK       I    between atoms: N1_4  and  C4_6
REMARK       I    between atoms: C4_6  and  N3_10
REMARK    3  A    between atoms: C5_11  and  C6_12
REMARK    4  A    between atoms: C9_15  and  C10_16
REMARK       I    between atoms: C10_16  and  N4_18
REMARK    5  A    between atoms: N4_18  and  C11_20
ROOT
HETATM    1  N1  UNL     1      20.990   2.778  55.223  1.00  0.00    -0.227 N
ATOM      2  H1  UNL     1      20.500   1.888  55.136  1.00  0.00     0.177 HD
HETATM    3  C4  UNL     1      21.502   3.174  56.482  1.00  0.00     0.670 C
HETATM    4  N2  UNL     1      21.713   4.431  56.653  1.00  0.00    -0.235 N
ATOM      5  H21 UNL     1      22.081   4.715  57.560  1.00  0.00     0.174 HD
ATOM      6  H22 UNL     1      21.496   5.059  55.879  1.00  0.00     0.174 HD
HETATM    7  N3  UNL     1      21.801   2.303  57.554  1.00  0.00    -0.203 N
HETATM    8  C5  UNL     1      22.964   1.417  57.477  1.00  0.00     0.103 C
HETATM    9  C8  UNL     1      23.094   0.745  58.796  1.00  0.00     0.042 C
HETATM   10  C9  UNL     1      22.029   1.336  59.698  1.00  0.00     0.109 C
HETATM   11  C14 UNL     1      21.126   2.145  58.787  1.00  0.00     0.065 C
HETATM   12  C15 UNL     1      20.623   3.406  59.460  1.00  0.00     0.033 C
HETATM   13  C16 UNL     1      19.263   3.078  58.835  1.00  0.00     0.009 C
HETATM   14  C17 UNL     1      19.740   1.628  58.851  1.00  0.00     0.011 C
HETATM   15  C18 UNL     1      19.208   0.759  57.776  1.00  0.00     0.012 C
ENDROOT
BRANCH   8  16
HETATM   16  C6  UNL     1      22.928   0.491  56.303  1.00  0.00     0.021 C
HETATM   17  C7  UNL     1      22.359  -0.867  56.651  1.00  0.00     0.007 C
ENDBRANCH   8  16
BRANCH   1  18
HETATM   18  C3  UNL     1      21.156   3.631  54.041  1.00  0.00     0.137 C
BRANCH  18  19
HETATM   19  C2  UNL     1      20.642   2.961  52.809  1.00  0.00     0.016 C
HETATM   20  C1  UNL     1      20.950   3.709  51.554  1.00  0.00     0.006 C
ENDBRANCH  18  19
ENDBRANCH   1  18
BRANCH  10  21
HETATM   21  C10 UNL     1      22.691   2.281  60.634  1.00  0.00     0.224 C
HETATM   22  O1  UNL     1      22.098   2.509  61.720  1.00  0.00    -0.273 OA
HETATM   23  N4  UNL     1      23.925   2.874  60.288  1.00  0.00    -0.356 N
ATOM     24  H4  UNL     1      24.337   2.633  59.387  1.00  0.00     0.162 HD
BRANCH  23  25
HETATM   25  C11 UNL     1      24.638   3.801  61.136  1.00  0.00     0.084 A
HETATM   26  C12 UNL     1      25.732   4.623  60.483  1.00  0.00     0.027 A
HETATM   27  C13 UNL     1      26.016   3.569  61.570  1.00  0.00     0.027 A
ENDBRANCH  23  25
ENDBRANCH  10  21
TORSDOF 5
ENDMDL