MODEL 1
REMARK VINA RESULT: -7.273146014      0.000      0.000
REMARK  7 active torsions:
REMARK  status: ('A' for Active; 'I' for Inactive)
REMARK    1  A    between atoms: C3_3  and  C4_4
REMARK    2  A    between atoms: C4_4  and  C5_5
REMARK    3  A    between atoms: C6_6  and  C7_7
REMARK    4  A    between atoms: C7_7  and  C8_8
REMARK    5  A    between atoms: C8_8  and  N1_9
REMARK       I    between atoms: N1_9  and  C9_11
REMARK    6  A    between atoms: C9_11  and  C10_13
REMARK    7  A    between atoms: C16_19  and  C17_20
ROOT
HETATM    1  C1  UNL     1      25.019   4.102  61.463  1.00  0.00     0.012 C
HETATM    2  C2  UNL     1      26.089   3.806  60.987  1.00  0.00    -0.117 C
HETATM    3  C3  UNL     1      27.382   3.425  60.409  1.00  0.00     0.105 C
ENDROOT
BRANCH   3   4
HETATM    4  C4  UNL     1      28.177   4.692  60.221  1.00  0.00     0.106 C
BRANCH   4   5
HETATM    5  C5  UNL     1      27.427   5.510  59.266  1.00  0.00    -0.106 C
HETATM    6  C6  UNL     1      26.793   6.172  58.483  1.00  0.00    -0.105 C
BRANCH   6   7
HETATM    7  C7  UNL     1      25.992   6.975  57.526  1.00  0.00     0.113 C
BRANCH   7   8
HETATM    8  C8  UNL     1      25.281   6.008  56.608  1.00  0.00     0.134 C
BRANCH   8   9
HETATM    9  N1  UNL     1      24.698   4.889  57.257  1.00  0.00    -0.360 N
HETATM   10  C9  UNL     1      24.493   3.637  56.625  1.00  0.00     0.226 C
HETATM   11  O1  UNL     1      24.852   3.535  55.426  1.00  0.00    -0.273 OA
ATOM     12  H1  UNL     1      24.411   4.991  58.231  1.00  0.00     0.162 HD
BRANCH  10  13
HETATM   13  C10 UNL     1      23.875   2.488  57.351  1.00  0.00     0.043 C
HETATM   14  C11 UNL     1      24.966   1.659  57.949  1.00  0.00     0.024 C
HETATM   15  C12 UNL     1      24.372   0.543  58.756  1.00  0.00    -0.012 C
HETATM   16  C13 UNL     1      23.503  -0.334  57.874  1.00  0.00     0.009 C
HETATM   17  C18 UNL     1      23.513   1.121  59.838  1.00  0.00     0.023 C
HETATM   18  C14 UNL     1      22.423   0.538  57.282  1.00  0.00    -0.012 C
HETATM   19  C15 UNL     1      21.529   1.128  58.352  1.00  0.00     0.023 C
HETATM   20  C20 UNL     1      23.033   1.631  56.458  1.00  0.00     0.024 C
HETATM   21  C16 UNL     1      22.401   1.969  59.255  1.00  0.00     0.040 C
HETATM   22  C19 UNL     1      22.970   3.087  58.409  1.00  0.00     0.038 C
BRANCH  21  23
HETATM   23  C17 UNL     1      21.627   2.515  60.395  1.00  0.00     0.239 C
HETATM   24  N2  UNL     1      21.937   2.213  61.744  1.00  0.00    -0.061 NA
HETATM   25  O2  UNL     1      20.658   3.274  60.145  1.00  0.00    -0.276 OA
ENDBRANCH  21  23
ENDBRANCH  10  13
ENDBRANCH   8   9
ENDBRANCH   7   8
ENDBRANCH   6   7
ENDBRANCH   4   5
ENDBRANCH   3   4
TORSDOF 7
ENDMDL