MODEL 1
REMARK VINA RESULT: -7.468792125      0.000      0.000
REMARK  5 active torsions:
REMARK  status: ('A' for Active; 'I' for Inactive)
REMARK    1  A    between atoms: C1_2  and  C2_4
REMARK    2  A    between atoms: C2_4  and  C3_5
REMARK    3  A    between atoms: C3_5  and  N1_6
REMARK       I    between atoms: N1_6  and  C4_8
REMARK       I    between atoms: C4_8  and  N2_10
REMARK    4  A    between atoms: C7_13  and  C8_14
REMARK       I    between atoms: C8_14  and  N3_16
REMARK    5  A    between atoms: N3_16  and  C9_18
ROOT
HETATM    1  N1  UNL     1      21.776   3.847  56.197  1.00  0.00    -0.342 N
ATOM      2  H1  UNL     1      21.421   4.357  57.006  1.00  0.00     0.164 HD
HETATM    3  C4  UNL     1      22.323   2.579  56.428  1.00  0.00     0.318 C
HETATM    4  O3  UNL     1      22.772   1.917  55.471  1.00  0.00    -0.247 OA
HETATM    5  N2  UNL     1      22.384   2.023  57.726  1.00  0.00    -0.334 N
HETATM    6  C5  UNL     1      22.952   0.703  57.981  1.00  0.00     0.128 C
HETATM    7  C6  UNL     1      23.896   0.713  59.163  1.00  0.00     0.034 C
HETATM    8  C7  UNL     1      23.337   1.434  60.345  1.00  0.00     0.081 C
HETATM    9  C15 UNL     1      21.888   1.825  60.060  1.00  0.00     0.034 C
HETATM   10  C16 UNL     1      21.880   2.742  58.885  1.00  0.00     0.128 C
ENDROOT
BRANCH   8  11
HETATM   11  C8  UNL     1      24.066   2.688  60.657  1.00  0.00     0.222 C
HETATM   12  O4  UNL     1      23.569   3.467  61.507  1.00  0.00    -0.273 OA
HETATM   13  N3  UNL     1      25.280   3.045  60.052  1.00  0.00    -0.356 N
ATOM     14  H3  UNL     1      25.679   2.407  59.363  1.00  0.00     0.162 HD
BRANCH  13  15
HETATM   15  C9  UNL     1      26.001   4.267  60.347  1.00  0.00     0.084 C
HETATM   16  C10 UNL     1      25.663   5.267  59.288  1.00  0.00     0.025 C
HETATM   17  C11 UNL     1      26.634   6.438  59.304  1.00  0.00     0.002 C
HETATM   18  C12 UNL     1      27.986   5.844  58.943  1.00  0.00     0.000 C
HETATM   19  C13 UNL     1      28.407   4.970  60.068  1.00  0.00     0.002 C
HETATM   20  C14 UNL     1      27.434   3.951  60.501  1.00  0.00     0.025 C
ENDBRANCH  13  15
ENDBRANCH   8  11
BRANCH   1  21
HETATM   21  C3  UNL     1      21.673   4.488  54.922  1.00  0.00     0.135 C
BRANCH  21  22
HETATM   22  C2  UNL     1      22.546   5.699  54.763  1.00  0.00     0.133 C
BRANCH  22  23
HETATM   23  C1  UNL     1      23.819   5.294  54.150  1.00  0.00     0.174 C
HETATM   24  O1  UNL     1      24.628   4.585  54.773  1.00  0.00    -0.648 OA
HETATM   25  O2  UNL     1      24.119   5.702  52.869  1.00  0.00    -0.648 OA
ENDBRANCH  22  23
ENDBRANCH  21  22
ENDBRANCH   1  21
TORSDOF 5
ENDMDL