MODEL 1
REMARK VINA RESULT: -7.389317378      0.000      0.000
REMARK  8 active torsions:
REMARK  status: ('A' for Active; 'I' for Inactive)
REMARK    1  A    between atoms: N3_4  and  C2_6
REMARK    2  A    between atoms: C2_6  and  C3_7
REMARK    3  A    between atoms: C3_7  and  C4_8
REMARK    4  A    between atoms: C4_8  and  C5_9
REMARK    5  A    between atoms: C5_9  and  C6_10
REMARK    6  A    between atoms: N4_13  and  C9_14
REMARK    7  A    between atoms: C9_14  and  N5_16
REMARK    8  A    between atoms: N5_16  and  C10_18
ROOT
HETATM    1  C6  UNL     1      26.299   2.927  61.447  1.00  0.00    -0.008 C
HETATM    2  C7  UNL     1      25.227   3.987  61.318  1.00  0.00     0.025 C
HETATM    3  C8  UNL     1      23.930   3.247  61.003  1.00  0.00     0.131 C
HETATM    4  N4  UNL     1      24.177   2.794  59.595  1.00  0.00    -0.338 N
HETATM    5  C15 UNL     1      25.130   1.760  59.512  1.00  0.00     0.067 C
HETATM    6  C16 UNL     1      26.040   1.672  60.722  1.00  0.00     0.049 C
ENDROOT
BRANCH   1   7
HETATM    7  C5  UNL     1      27.592   3.590  60.998  1.00  0.00     0.005 C
BRANCH   7   8
HETATM    8  C4  UNL     1      27.406   4.691  60.013  1.00  0.00     0.002 C
BRANCH   8   9
HETATM    9  C3  UNL     1      28.717   5.159  59.449  1.00  0.00     0.020 C
BRANCH   9  10
HETATM   10  C2  UNL     1      28.854   6.653  59.606  1.00  0.00     0.122 C
BRANCH  10  11
HETATM   11  N3  UNL     1      28.470   7.322  58.372  1.00  0.00    -0.367 N
HETATM   12  C1  UNL     1      27.369   7.981  58.258  1.00  0.00     0.196 C
HETATM   13  N1  UNL     1      27.107   8.591  56.996  1.00  0.00    -0.067 NA
HETATM   14  N2  UNL     1      26.461   8.099  59.325  1.00  0.00    -0.067 NA
ATOM     15  H3  UNL     1      29.095   7.267  57.568  1.00  0.00     0.161 HD
ENDBRANCH  10  11
ENDBRANCH   9  10
ENDBRANCH   8   9
ENDBRANCH   7   8
ENDBRANCH   1   7
BRANCH   4  16
HETATM   16  C9  UNL     1      23.442   3.462  58.609  1.00  0.00     0.173 C
HETATM   17  S1  UNL     1      22.132   2.627  57.932  1.00  0.00    -0.041 SA
BRANCH  16  18
HETATM   18  N5  UNL     1      23.599   4.739  58.067  1.00  0.00    -0.362 N
ATOM     19  H5  UNL     1      22.900   5.422  58.359  1.00  0.00     0.162 HD
BRANCH  18  20
HETATM   20  C10 UNL     1      24.590   5.234  57.166  1.00  0.00     0.083 C
HETATM   21  C11 UNL     1      24.134   6.620  56.667  1.00  0.00     0.025 C
HETATM   22  C12 UNL     1      24.532   6.667  55.208  1.00  0.00     0.002 C
HETATM   23  C13 UNL     1      24.118   5.267  54.768  1.00  0.00     0.002 C
HETATM   24  C14 UNL     1      24.647   4.440  55.900  1.00  0.00     0.025 C
ENDBRANCH  18  20
ENDBRANCH  16  18
ENDBRANCH   4  16
TORSDOF 8
ENDMDL