MODEL 3
REMARK VINA RESULT: -7.699638657      4.169      9.380
REMARK  5 active torsions:
REMARK  status: ('A' for Active; 'I' for Inactive)
REMARK    1  A    between atoms: C2_2  and  C3_3
REMARK    2  A    between atoms: C3_3  and  C4_4
REMARK    3  A    between atoms: C4_4  and  N1_5
REMARK       I    between atoms: N1_5  and  C5_7
REMARK       I    between atoms: C5_7  and  N2_9
REMARK    4  A    between atoms: C8_12  and  N3_13
REMARK       I    between atoms: N3_13  and  C9_15
REMARK       I    between atoms: C9_15  and  N4_17
REMARK    5  A    between atoms: N4_17  and  C10_19
ROOT
HETATM    1  N1  UNL     1      26.161   9.636  57.519  1.00  0.00    -0.319 N
ATOM      2  H1  UNL     1      26.927  10.300  57.634  1.00  0.00     0.169 HD
HETATM    3  C5  UNL     1      26.482   8.340  57.931  1.00  0.00     0.322 C
HETATM    4  O1  UNL     1      25.686   7.397  57.884  1.00  0.00    -0.247 OA
HETATM    5  N2  UNL     1      27.799   8.031  58.445  1.00  0.00    -0.334 N
HETATM    6  C6  UNL     1      28.095   6.691  58.857  1.00  0.00     0.129 C
HETATM    7  C7  UNL     1      28.840   6.585  60.147  1.00  0.00     0.045 C
HETATM    8  C8  UNL     1      29.513   7.894  60.494  1.00  0.00     0.089 C
HETATM    9  C16 UNL     1      30.010   8.494  59.189  1.00  0.00     0.045 C
HETATM   10  C17 UNL     1      28.771   9.103  58.520  1.00  0.00     0.129 C
ENDROOT
BRANCH   8  11
HETATM   11  N3  UNL     1      30.551   7.748  61.462  1.00  0.00    -0.338 N
HETATM   12  C9  UNL     1      30.758   8.720  62.480  1.00  0.00     0.316 C
HETATM   13  O2  UNL     1      29.982   9.732  62.496  1.00  0.00    -0.247 OA
HETATM   14  N4  UNL     1      31.788   8.592  63.454  1.00  0.00    -0.338 N
ATOM     15  H4  UNL     1      32.414   7.787  63.448  1.00  0.00     0.164 HD
ATOM     16  H3  UNL     1      31.157   6.929  61.424  1.00  0.00     0.164 HD
BRANCH  14  17
HETATM   17  C10 UNL     1      31.923   9.622  64.444  1.00  0.00     0.090 C
HETATM   18  C11 UNL     1      31.133   9.288  65.726  1.00  0.00     0.030 C
HETATM   19  C12 UNL     1      32.261   9.205  66.696  1.00  0.00    -0.012 C
HETATM   20  C13 UNL     1      33.125  10.402  66.296  1.00  0.00     0.011 C
HETATM   21  C15 UNL     1      33.284   8.377  65.907  1.00  0.00     0.011 C
HETATM   22  C14 UNL     1      33.311   9.593  65.004  1.00  0.00     0.009 C
ENDBRANCH  14  17
ENDBRANCH   8  11
BRANCH   1  23
HETATM   23  C4  UNL     1      24.993  10.216  56.977  1.00  0.00     0.088 C
BRANCH  23  24
HETATM   24  C3  UNL     1      24.817  11.659  56.851  1.00  0.00    -0.010 C
BRANCH  24  25
HETATM   25  C2  UNL     1      23.527  12.339  57.001  1.00  0.00     0.024 C
HETATM   26  C1  UNL     1      23.598  13.795  57.414  1.00  0.00     0.009 C
ENDBRANCH  24  25
ENDBRANCH  23  24
ENDBRANCH   1  23
TORSDOF 5
ENDMDL