MODEL 1
REMARK VINA RESULT: -8.195376768      0.000      0.000
REMARK  5 active torsions:
REMARK  status: ('A' for Active; 'I' for Inactive)
REMARK    1  A    between atoms: C10_10  and  C12_12
REMARK    2  A    between atoms: C12_12  and  C13_13
REMARK    3  A    between atoms: C13_13  and  C14_14
REMARK    4  A    between atoms: C14_14  and  N1_15
REMARK    5  A    between atoms: N2_17  and  N3_19
ROOT
HETATM    1  C1  UNL     1      26.228   3.174  62.033  1.00  0.00     0.028 C
HETATM    2  C2  UNL     1      26.569   3.047  60.574  1.00  0.00     0.012 C
HETATM    3  C3  UNL     1      27.479   4.015  60.078  1.00  0.00    -0.173 C
HETATM    4  C4  UNL     1      28.581   4.855  59.918  1.00  0.00     0.081 C
HETATM    5  C5  UNL     1      28.139   5.891  58.828  1.00  0.00     0.011 C
HETATM    6  C6  UNL     1      26.733   6.328  58.896  1.00  0.00     0.001 C
HETATM    7  C7  UNL     1      25.607   5.476  58.378  1.00  0.00     0.000 C
HETATM    8  C8  UNL     1      24.920   4.665  59.493  1.00  0.00     0.007 C
HETATM    9  C9  UNL     1      25.310   3.251  59.674  1.00  0.00     0.013 C
HETATM   10  C10 UNL     1      24.246   2.259  59.855  1.00  0.00    -0.039 C
HETATM   11  C11 UNL     1      23.237   2.728  60.880  1.00  0.00     0.015 C
HETATM   12  C16 UNL     1      24.659   0.857  60.071  1.00  0.00     0.010 C
HETATM   13  C17 UNL     1      26.017   0.610  60.639  1.00  0.00     0.002 C
HETATM   14  C18 UNL     1      27.033   1.661  60.293  1.00  0.00     0.022 C
ENDROOT
BRANCH  10  15
HETATM   15  C12 UNL     1      23.450   2.227  58.533  1.00  0.00     0.014 C
BRANCH  15  16
HETATM   16  C13 UNL     1      24.337   1.488  57.518  1.00  0.00     0.047 C
BRANCH  16  17
HETATM   17  C14 UNL     1      24.022   1.953  56.117  1.00  0.00     0.081 C
BRANCH  17  18
HETATM   18  N1  UNL     1      24.651   3.162  55.787  1.00  0.00    -0.301 N
HETATM   19  N2  UNL     1      24.303   4.202  55.237  1.00  0.00    -0.241 N
ATOM     20  H2  UNL     1      25.032   4.910  55.152  1.00  0.00     0.208 HD
ATOM     21  H1  UNL     1      25.630   3.182  56.071  1.00  0.00     0.187 HD
BRANCH  19  22
HETATM   22  N3  UNL     1      23.069   4.565  54.714  1.00  0.00    -0.261 N
HETATM   23  C15 UNL     1      23.021   5.266  53.624  1.00  0.00     0.216 C
HETATM   24  N4  UNL     1      21.789   5.667  53.039  1.00  0.00    -0.065 NA
HETATM   25  N5  UNL     1      24.224   5.662  52.967  1.00  0.00    -0.065 NA
ATOM     26  H3  UNL     1      22.208   4.283  55.183  1.00  0.00     0.190 HD
ENDBRANCH  19  22
ENDBRANCH  17  18
ENDBRANCH  16  17
ENDBRANCH  15  16
ENDBRANCH  10  15
TORSDOF 5
ENDMDL