MODEL 2
REMARK VINA RESULT: -8.561993668      1.807      2.270
REMARK  5 active torsions:
REMARK  status: ('A' for Active; 'I' for Inactive)
REMARK       I    between atoms: C1_2  and  N3_14
REMARK       I    between atoms: N2_3  and  C2_5
REMARK    1  A    between atoms: C2_5  and  C3_7
REMARK    2  A    between atoms: C3_7  and  C4_8
REMARK    3  A    between atoms: N3_14  and  C10_16
REMARK    4  A    between atoms: C10_16  and  C11_17
REMARK       I    between atoms: C11_17  and  N4_19
REMARK    5  A    between atoms: N4_19  and  C12_21
ROOT
HETATM    1  N1  UNL     1      30.928   9.575  59.595  1.00  0.00    -0.063 NA
HETATM    2  C1  UNL     1      30.284   8.425  60.122  1.00  0.00     0.191 C
HETATM    3  N2  UNL     1      30.044   8.297  61.366  1.00  0.00    -0.301 N
ATOM      4  H2  UNL     1      29.578   7.443  61.669  1.00  0.00     0.171 HD
HETATM    5  C2  UNL     1      30.373   9.242  62.353  1.00  0.00     0.224 C
HETATM    6  O1  UNL     1      29.497   9.664  63.158  1.00  0.00    -0.273 OA
HETATM    7  N3  UNL     1      29.901   7.363  59.220  1.00  0.00    -0.356 N
ATOM      8  H3  UNL     1      29.598   7.554  58.265  1.00  0.00     0.162 HD
ENDROOT
BRANCH   7   9
HETATM    9  C10 UNL     1      29.970   6.029  59.736  1.00  0.00     0.225 C
BRANCH   9  10
HETATM   10  C11 UNL     1      28.739   5.246  59.687  1.00  0.00     0.235 C
HETATM   11  O2  UNL     1      27.879   5.610  58.802  1.00  0.00    -0.272 OA
HETATM   12  N4  UNL     1      28.404   4.138  60.506  1.00  0.00    -0.355 N
ATOM     13  H4  UNL     1      29.054   3.810  61.221  1.00  0.00     0.162 HD
BRANCH  12  14
HETATM   14  C12 UNL     1      27.140   3.482  60.317  1.00  0.00     0.084 C
HETATM   15  C13 UNL     1      27.270   1.963  60.177  1.00  0.00     0.025 C
HETATM   16  C14 UNL     1      25.950   1.519  59.583  1.00  0.00     0.002 C
HETATM   17  C15 UNL     1      24.759   1.920  60.364  1.00  0.00     0.000 C
HETATM   18  C16 UNL     1      24.812   3.226  61.046  1.00  0.00     0.002 C
HETATM   19  C17 UNL     1      26.169   3.691  61.460  1.00  0.00     0.025 C
ENDBRANCH  12  14
ENDBRANCH   9  10
ENDBRANCH   7   9
BRANCH   5  20
HETATM   20  C3  UNL     1      31.762   9.804  62.523  1.00  0.00     0.108 C
BRANCH  20  21
HETATM   21  C4  UNL     1      31.965   9.889  64.026  1.00  0.00    -0.006 C
HETATM   22  C5  UNL     1      32.827   8.732  64.495  1.00  0.00     0.005 C
HETATM   23  C6  UNL     1      32.838   8.739  65.999  1.00  0.00     0.000 C
HETATM   24  C7  UNL     1      33.521  10.026  66.455  1.00  0.00     0.000 C
HETATM   25  C8  UNL     1      32.803  11.232  65.908  1.00  0.00     0.000 C
HETATM   26  C9  UNL     1      32.643  11.171  64.409  1.00  0.00     0.005 C
ENDBRANCH  20  21
ENDBRANCH   5  20
TORSDOF 5
ENDMDL