MODEL 5
REMARK VINA RESULT: -7.472088511      1.188      1.495
REMARK  5 active torsions:
REMARK  status: ('A' for Active; 'I' for Inactive)
REMARK    1  A    between atoms: C1_2  and  C2_4
REMARK    2  A    between atoms: C2_4  and  C3_5
REMARK    3  A    between atoms: C3_5  and  N1_6
REMARK       I    between atoms: N1_6  and  C4_8
REMARK       I    between atoms: C4_8  and  N2_10
REMARK    4  A    between atoms: C9_15  and  C10_16
REMARK       I    between atoms: C10_16  and  N3_18
REMARK    5  A    between atoms: N3_18  and  C11_20
ROOT
HETATM    1  N1  UNL     1      23.886   4.555  58.470  1.00  0.00    -0.342 N
ATOM      2  H1  UNL     1      23.670   4.270  59.425  1.00  0.00     0.164 HD
HETATM    3  C4  UNL     1      25.167   5.096  58.206  1.00  0.00     0.319 C
HETATM    4  O3  UNL     1      25.355   5.428  56.980  1.00  0.00    -0.247 OA
HETATM    5  N2  UNL     1      26.190   5.281  59.159  1.00  0.00    -0.321 N
HETATM    6  C5  UNL     1      25.996   4.921  60.530  1.00  0.00     0.128 C
HETATM    7  C6  UNL     1      26.992   3.783  60.798  1.00  0.00     0.020 C
HETATM    8  C7  UNL     1      28.359   4.437  60.642  1.00  0.00     0.004 C
HETATM    9  C8  UNL     1      28.575   4.998  59.278  1.00  0.00     0.035 C
HETATM   10  C9  UNL     1      27.449   5.838  58.745  1.00  0.00     0.180 C
ENDROOT
BRANCH  10  11
HETATM   11  C10 UNL     1      27.524   7.247  59.114  1.00  0.00     0.241 C
HETATM   12  O4  UNL     1      26.501   7.790  59.607  1.00  0.00    -0.271 OA
HETATM   13  N3  UNL     1      28.685   8.056  58.953  1.00  0.00    -0.355 N
ATOM     14  H3  UNL     1      29.521   7.629  58.555  1.00  0.00     0.162 HD
BRANCH  13  15
HETATM   15  C11 UNL     1      28.735   9.441  59.321  1.00  0.00     0.084 C
HETATM   16  C12 UNL     1      30.071   9.702  60.031  1.00  0.00     0.025 C
HETATM   17  C13 UNL     1      31.098   9.917  58.940  1.00  0.00     0.002 C
HETATM   18  C14 UNL     1      30.965  11.345  58.442  1.00  0.00     0.000 C
HETATM   19  C15 UNL     1      29.481  11.642  58.369  1.00  0.00     0.002 C
HETATM   20  C16 UNL     1      28.681  10.375  58.147  1.00  0.00     0.025 C
ENDBRANCH  13  15
ENDBRANCH  10  11
BRANCH   1  21
HETATM   21  C3  UNL     1      22.878   4.386  57.469  1.00  0.00     0.135 C
BRANCH  21  22
HETATM   22  C2  UNL     1      21.806   3.415  57.895  1.00  0.00     0.133 C
BRANCH  22  23
HETATM   23  C1  UNL     1      22.169   2.657  59.093  1.00  0.00     0.174 C
HETATM   24  O1  UNL     1      22.902   1.658  59.003  1.00  0.00    -0.648 OA
HETATM   25  O2  UNL     1      21.690   3.060  60.326  1.00  0.00    -0.648 OA
ENDBRANCH  22  23
ENDBRANCH  21  22
ENDBRANCH   1  21
TORSDOF 5
ENDMDL