MODEL 4
REMARK VINA RESULT: -7.063530847      2.660      7.947
REMARK  5 active torsions:
REMARK  status: ('A' for Active; 'I' for Inactive)
REMARK    1  A    between atoms: C2_2  and  N1_3
REMARK       I    between atoms: C3_5  and  N2_6
REMARK       I    between atoms: C3_5  and  N4_18
REMARK    2  A    between atoms: N2_6  and  C4_8
REMARK    3  A    between atoms: C4_8  and  C5_9
REMARK    4  A    between atoms: C5_9  and  C6_10
REMARK    5  A    between atoms: C6_10  and  C7_11
REMARK       I    between atoms: N4_18  and  C13_20
REMARK       I    between atoms: C13_20  and  N6_24
ROOT
HETATM    1  N1  UNL     1      25.590   6.686  57.345  1.00  0.00    -0.226 N
ATOM      2  H1  UNL     1      25.842   7.618  57.675  1.00  0.00     0.177 HD
HETATM    3  C3  UNL     1      25.854   5.698  58.137  1.00  0.00     0.688 C
HETATM    4  N2  UNL     1      26.474   6.105  59.377  1.00  0.00    -0.226 N
ATOM      5  H2  UNL     1      26.079   6.849  59.952  1.00  0.00     0.177 HD
HETATM    6  N4  UNL     1      25.582   4.342  57.851  1.00  0.00    -0.023 N
ATOM      7  H4  UNL     1      26.189   3.816  57.222  1.00  0.00     0.203 HD
HETATM    8  C13 UNL     1      24.461   3.722  58.444  1.00  0.00     0.688 C
HETATM    9  N5  UNL     1      23.331   4.365  58.417  1.00  0.00    -0.234 N
ATOM     10  H51 UNL     1      22.521   3.917  58.845  1.00  0.00     0.174 HD
ATOM     11  H52 UNL     1      23.289   5.285  57.979  1.00  0.00     0.174 HD
HETATM   12  N6  UNL     1      24.519   2.446  59.051  1.00  0.00    -0.218 N
HETATM   13  C14 UNL     1      25.296   1.301  58.576  1.00  0.00     0.141 C
HETATM   14  C15 UNL     1      24.316   0.167  58.835  1.00  0.00     0.022 C
HETATM   15  C16 UNL     1      23.808   0.505  60.218  1.00  0.00     0.022 C
HETATM   16  C17 UNL     1      23.846   2.003  60.247  1.00  0.00     0.141 C
ENDROOT
BRANCH   1  17
HETATM   17  C2  UNL     1      24.983   6.606  56.057  1.00  0.00     0.133 C
HETATM   18  C1  UNL     1      24.909   8.028  55.481  1.00  0.00     0.027 C
ENDBRANCH   1  17
BRANCH   4  19
HETATM   19  C4  UNL     1      27.693   5.401  59.769  1.00  0.00     0.138 C
BRANCH  19  20
HETATM   20  C5  UNL     1      28.747   6.409  60.181  1.00  0.00     0.022 C
BRANCH  20  21
HETATM   21  C6  UNL     1      28.811   7.568  59.228  1.00  0.00     0.035 C
BRANCH  21  22
HETATM   22  C7  UNL     1      29.114   8.896  59.810  1.00  0.00     0.189 C
HETATM   23  C8  UNL     1      30.598   8.799  60.280  1.00  0.00     0.035 C
HETATM   24  C9  UNL     1      31.340   9.003  59.003  1.00  0.00     0.030 C
HETATM   25  C10 UNL     1      30.379   9.758  58.095  1.00  0.00     0.237 C
HETATM   26  N3  UNL     1      29.214  10.010  58.948  1.00  0.00    -0.070 N
HETATM   27  C11 UNL     1      28.129  10.380  58.125  1.00  0.00     0.272 C
HETATM   28  C12 UNL     1      29.504  11.199  59.787  1.00  0.00     0.272 C
ENDBRANCH  21  22
ENDBRANCH  20  21
ENDBRANCH  19  20
ENDBRANCH   4  19
TORSDOF 5
ENDMDL