MODEL 2
REMARK VINA RESULT: -5.561318742      3.498      6.334
REMARK  3 active torsions:
REMARK  status: ('A' for Active; 'I' for Inactive)
REMARK    1  A    between atoms: C2_2  and  O2_4
REMARK    2  A    between atoms: O2_4  and  C3_5
REMARK    3  A    between atoms: C8_10  and  O3_11
ROOT
HETATM    1  C3  UNL     1      -3.785 -21.126 -11.221  1.00  0.00     0.140 C
HETATM    2  C4  UNL     1      -2.466 -20.514 -11.602  1.00  0.00     0.034 C
HETATM    3  C5  UNL     1      -1.479 -21.193 -10.655  1.00  0.00     0.008 C
HETATM    4  C6  UNL     1      -2.292 -21.216  -9.375  1.00  0.00     0.003 C
HETATM    5  C7  UNL     1      -1.708 -22.118  -8.326  1.00  0.00     0.024 C
HETATM    6  C8  UNL     1      -0.229 -21.939  -8.301  1.00  0.00     0.123 C
HETATM    7  C9  UNL     1       0.513 -23.088  -7.629  1.00  0.00     0.038 C
HETATM    8  C10 UNL     1      -0.463 -23.840  -6.843  1.00  0.00     0.010 C
HETATM    9  C11 UNL     1      -1.454 -24.547  -7.731  1.00  0.00    -0.030 C
HETATM   10  C12 UNL     1      -0.850 -25.585  -8.614  1.00  0.00     0.016 C
HETATM   11  C13 UNL     1      -2.287 -25.237  -6.686  1.00  0.00     0.089 C
HETATM   12  C14 UNL     1      -1.251 -25.711  -5.686  1.00  0.00     0.251 C
HETATM   13  F1  UNL     1      -1.035 -27.049  -5.713  1.00  0.00    -0.205 F
HETATM   14  F2  UNL     1      -1.777 -25.407  -4.424  1.00  0.00    -0.205 F
HETATM   15  C15 UNL     1      -0.003 -24.885  -5.925  1.00  0.00     0.023 C
HETATM   16  C16 UNL     1       1.164 -25.698  -6.361  1.00  0.00     0.021 C
HETATM   17  C17 UNL     1       0.391 -24.213  -4.600  1.00  0.00     0.021 C
HETATM   18  C18 UNL     1      -2.164 -23.535  -8.539  1.00  0.00     0.001 C
HETATM   19  C19 UNL     1      -3.681 -23.531  -8.306  1.00  0.00     0.007 C
HETATM   20  C20 UNL     1      -4.243 -22.808  -9.516  1.00  0.00     0.012 C
HETATM   21  C21 UNL     1      -3.695 -21.456  -9.732  1.00  0.00    -0.013 C
HETATM   22  C22 UNL     1      -4.617 -20.457  -9.020  1.00  0.00     0.018 C
ENDROOT
BRANCH   1  23
HETATM   23  O2  UNL     1      -3.971 -22.274 -12.008  1.00  0.00    -0.316 OA
BRANCH  23  24
HETATM   24  C2  UNL     1      -5.157 -22.628 -12.588  1.00  0.00     0.255 C
HETATM   25  C1  UNL     1      -5.392 -23.971 -13.208  1.00  0.00     0.126 C
HETATM   26  O1  UNL     1      -6.098 -21.805 -12.611  1.00  0.00    -0.266 OA
ENDBRANCH  23  24
ENDBRANCH   1  23
BRANCH   6  27
HETATM   27  O3  UNL     1       0.030 -20.795  -7.508  1.00  0.00    -0.395 OA
ATOM     28  H3  UNL     1       0.344 -20.119  -8.096  1.00  0.00     0.210 HD
ENDBRANCH   6  27
TORSDOF 3
ENDMDL