MODEL 5
REMARK VINA RESULT: -3.925967933      1.872      4.349
REMARK  3 active torsions:
REMARK  status: ('A' for Active; 'I' for Inactive)
REMARK    1  A    between atoms: C2_2  and  C3_4
REMARK    2  A    between atoms: C10_11  and  C11_12
REMARK    3  A    between atoms: C22_25  and  O3_26
ROOT
HETATM    1  C3  UNL     1      -2.626 -21.719  -9.036  1.00  0.00     0.061 C
HETATM    2  C4  UNL     1      -1.644 -20.577  -9.131  1.00  0.00     0.021 C
HETATM    3  C5  UNL     1      -2.325 -19.757 -10.223  1.00  0.00     0.002 C
HETATM    4  C6  UNL     1      -3.250 -20.717 -10.995  1.00  0.00     0.011 C
HETATM    5  C7  UNL     1      -2.737 -22.013 -10.522  1.00  0.00    -0.022 C
HETATM    6  C8  UNL     1      -1.272 -21.940 -11.046  1.00  0.00     0.017 C
HETATM    7  C9  UNL     1      -3.266 -23.287 -10.929  1.00  0.00     0.011 C
HETATM    8  C10 UNL     1      -4.528 -23.667 -11.520  1.00  0.00     0.009 C
HETATM    9  C13 UNL     1      -4.206 -25.134 -11.903  1.00  0.00     0.007 C
HETATM   10  C14 UNL     1      -2.937 -25.521 -11.105  1.00  0.00     0.012 C
HETATM   11  C15 UNL     1      -3.133 -24.464  -9.986  1.00  0.00    -0.010 C
HETATM   12  C16 UNL     1      -4.290 -25.022  -9.296  1.00  0.00     0.018 C
HETATM   13  C17 UNL     1      -2.002 -24.208  -9.118  1.00  0.00     0.167 C
HETATM   14  O2  UNL     1      -1.919 -25.061  -7.974  1.00  0.00    -0.371 OA
HETATM   15  C18 UNL     1      -0.953 -24.468  -7.156  1.00  0.00     0.065 A
HETATM   16  C19 UNL     1      -1.060 -24.781  -5.687  1.00  0.00     0.046 C
HETATM   17  C20 UNL     1       0.215 -23.769  -7.694  1.00  0.00     0.049 A
HETATM   18  C21 UNL     1      -0.954 -22.941  -7.530  1.00  0.00     0.061 A
HETATM   19  C22 UNL     1      -2.183 -22.940  -8.361  1.00  0.00     0.106 C
ENDROOT
BRANCH   1  20
HETATM   20  C2  UNL     1      -3.739 -21.089  -8.343  1.00  0.00     0.135 C
HETATM   21  C1  UNL     1      -3.859 -19.898  -7.507  1.00  0.00     0.091 C
HETATM   22  O1  UNL     1      -4.841 -21.631  -8.457  1.00  0.00    -0.297 OA
ENDBRANCH   1  20
BRANCH  19  23
HETATM   23  O3  UNL     1      -3.210 -23.261  -7.414  1.00  0.00    -0.385 OA
ATOM     24  H3  UNL     1      -2.777 -23.722  -6.705  1.00  0.00     0.210 HD
ENDBRANCH  19  23
BRANCH   8  25
HETATM   25  C11 UNL     1      -4.957 -22.975 -12.780  1.00  0.00     0.082 C
HETATM   26  C12 UNL     1      -6.089 -22.000 -12.507  1.00  0.00     0.027 C
HETATM   27 CL1  UNL     1      -5.641 -24.124 -13.974  1.00  0.00    -0.125 Cl
ENDBRANCH   8  25
TORSDOF 3
ENDMDL