MODEL 3
REMARK VINA RESULT: -6.749664290      1.956      2.937
REMARK  5 active torsions:
REMARK  status: ('A' for Active; 'I' for Inactive)
REMARK    1  A    between atoms: C5_5  and  O1_6
REMARK    2  A    between atoms: C17_19  and  N1_20
REMARK    3  A    between atoms: N1_20  and  N2_22
REMARK    4  A    between atoms: N2_22  and  N3_23
REMARK    5  A    between atoms: C18_26  and  O2_27
ROOT
HETATM    1  C1  UNL     1      -6.738 -27.951 -12.786  1.00  0.00     0.010 C
HETATM    2  C2  UNL     1      -6.313 -27.599 -11.379  1.00  0.00    -0.018 C
HETATM    3  C3  UNL     1      -4.882 -27.984 -11.103  1.00  0.00     0.007 C
HETATM    4  C4  UNL     1      -4.192 -26.995 -10.175  1.00  0.00     0.039 C
HETATM    5  C5  UNL     1      -3.951 -25.695 -10.961  1.00  0.00     0.065 C
HETATM    6  C6  UNL     1      -5.094 -25.565 -11.914  1.00  0.00     0.021 C
HETATM    7  C7  UNL     1      -5.256 -24.161 -12.388  1.00  0.00     0.008 C
HETATM    8  C8  UNL     1      -4.081 -23.325 -11.989  1.00  0.00     0.006 C
HETATM    9  C9  UNL     1      -3.974 -23.230 -10.455  1.00  0.00    -0.001 C
HETATM   10  C10 UNL     1      -2.913 -22.265 -10.107  1.00  0.00     0.024 C
HETATM   11  C11 UNL     1      -1.570 -22.774  -9.803  1.00  0.00     0.019 C
HETATM   12  C12 UNL     1      -1.595 -22.959  -8.303  1.00  0.00    -0.018 C
HETATM   13  C13 UNL     1      -0.243 -23.204  -7.713  1.00  0.00     0.017 C
HETATM   14  C14 UNL     1      -2.641 -23.940  -7.849  1.00  0.00     0.012 C
HETATM   15  C15 UNL     1      -2.873 -24.931  -8.935  1.00  0.00     0.009 C
HETATM   16  C16 UNL     1      -3.954 -24.576  -9.905  1.00  0.00     0.025 C
HETATM   17  C17 UNL     1      -2.138 -21.576  -7.904  1.00  0.00     0.153 C
HETATM   18  C18 UNL     1      -3.267 -21.387  -8.914  1.00  0.00     0.175 C
HETATM   19  C19 UNL     1      -6.376 -26.069 -11.286  1.00  0.00     0.012 C
ENDROOT
BRANCH  17  20
HETATM   20  N1  UNL     1      -1.109 -20.582  -8.097  1.00  0.00    -0.244 N
ATOM     21  H1  UNL     1      -0.329 -20.748  -8.733  1.00  0.00     0.197 HD
BRANCH  20  22
HETATM   22  N2  UNL     1      -1.204 -19.528  -7.470  1.00  0.00    -0.248 NA
BRANCH  22  23
HETATM   23  N3  UNL     1      -1.448 -18.353  -7.175  1.00  0.00    -0.261 N
ATOM     24  H32 UNL     1      -1.708 -18.548  -6.208  1.00  0.00     0.193 HD
ATOM     25  H31 UNL     1      -1.565 -17.342  -7.236  1.00  0.00     0.193 HD
ENDBRANCH  22  23
ENDBRANCH  20  22
ENDBRANCH  17  20
BRANCH  18  26
HETATM   26  O2  UNL     1      -3.304 -20.047  -9.213  1.00  0.00    -0.276 OA
HETATM   27 CL1  UNL     1      -4.579 -19.206  -8.524  1.00  0.00     0.062 Cl
ENDBRANCH  18  26
BRANCH   5  28
HETATM   28  O1  UNL     1      -2.719 -25.837 -11.556  1.00  0.00    -0.389 OA
ATOM     29  H1  UNL     1      -2.768 -26.634 -12.072  1.00  0.00     0.210 HD
ENDBRANCH   5  28
TORSDOF 5
ENDMDL