MODEL 1
REMARK VINA RESULT: -7.782351455      0.000      0.000
REMARK  4 active torsions:
REMARK  status: ('A' for Active; 'I' for Inactive)
REMARK    1  A    between atoms: C2_2  and  O2_4
REMARK    2  A    between atoms: O2_4  and  C3_5
REMARK    3  A    between atoms: C13_15  and  O3_16
REMARK    4  A    between atoms: C13_15  and  C14_18
ROOT
HETATM    1  C14 UNL     1      -2.606 -19.818  -8.691  1.00  0.00    -0.050 C
HETATM    2  C15 UNL     1      -2.857 -18.982  -7.855  1.00  0.00     0.008 C
HETATM    3 CL1  UNL     1      -3.234 -17.801  -6.659  1.00  0.00    -0.023 Cl
ENDROOT
BRANCH   1   4
HETATM    4  C13 UNL     1      -2.287 -20.813  -9.715  1.00  0.00     0.130 C
HETATM    5  C11 UNL     1      -3.371 -21.896  -9.800  1.00  0.00     0.007 C
HETATM    6  C10 UNL     1      -3.814 -22.077 -11.216  1.00  0.00     0.014 C
HETATM    7  C12 UNL     1      -4.559 -21.365  -9.028  1.00  0.00     0.020 C
HETATM    8  C18 UNL     1      -2.694 -23.065  -9.211  1.00  0.00    -0.025 C
HETATM    9  C9  UNL     1      -4.142 -23.441 -11.667  1.00  0.00     0.007 C
HETATM   10  C8  UNL     1      -3.478 -24.586 -10.983  1.00  0.00     0.005 C
HETATM   11  C6  UNL     1      -3.265 -24.424  -9.526  1.00  0.00    -0.031 C
HETATM   12  C20 UNL     1      -4.190 -25.862 -11.370  1.00  0.00    -0.017 C
HETATM   13  C5  UNL     1      -4.439 -24.758  -8.653  1.00  0.00     0.013 C
HETATM   14  C7  UNL     1      -2.144 -25.401  -9.117  1.00  0.00     0.016 C
HETATM   15  C4  UNL     1      -5.628 -25.297  -9.377  1.00  0.00     0.034 C
HETATM   16  C3  UNL     1      -5.311 -26.252 -10.479  1.00  0.00     0.140 C
HETATM   17  C21 UNL     1      -4.772 -25.719 -12.788  1.00  0.00     0.018 C
HETATM   18  C22 UNL     1      -3.231 -27.041 -11.496  1.00  0.00     0.018 C
HETATM   19  C17 UNL     1      -1.311 -22.956  -9.878  1.00  0.00     0.014 C
HETATM   20  C19 UNL     1      -2.432 -22.987  -7.744  1.00  0.00     0.017 C
HETATM   21  C16 UNL     1      -0.985 -21.510  -9.492  1.00  0.00     0.053 C
BRANCH  16  22
HETATM   22  O2  UNL     1      -6.533 -26.471 -11.196  1.00  0.00    -0.316 OA
BRANCH  22  23
HETATM   23  C2  UNL     1      -7.033 -27.704 -11.510  1.00  0.00     0.255 C
HETATM   24  C1  UNL     1      -6.204 -28.936 -11.309  1.00  0.00     0.126 C
HETATM   25  O1  UNL     1      -8.190 -27.792 -11.966  1.00  0.00    -0.266 OA
ENDBRANCH  22  23
ENDBRANCH  16  22
BRANCH   4  26
HETATM   26  O3  UNL     1      -2.171 -20.106 -10.908  1.00  0.00    -0.377 OA
ATOM     27  H3  UNL     1      -1.286 -20.137 -11.250  1.00  0.00     0.211 HD
ENDBRANCH   4  26
ENDBRANCH   1   4
TORSDOF 4
ENDMDL