MODEL 5
REMARK VINA RESULT: -4.255613311      2.387      4.962
REMARK  3 active torsions:
REMARK  status: ('A' for Active; 'I' for Inactive)
REMARK    1  A    between atoms: C2_2  and  O2_4
REMARK    2  A    between atoms: O2_4  and  C3_5
REMARK    3  A    between atoms: C20_23  and  O3_24
ROOT
HETATM    1  C3  UNL     1      -1.546 -23.453  -9.252  1.00  0.00     0.166 C
HETATM    2  C4  UNL     1      -2.220 -24.385 -10.226  1.00  0.00     0.024 C
HETATM    3  C5  UNL     1      -2.251 -25.816  -9.884  1.00  0.00     0.017 C
HETATM    4  C6  UNL     1      -3.467 -26.268 -10.718  1.00  0.00    -0.040 C
HETATM    5  C7  UNL     1      -3.066 -26.450 -12.162  1.00  0.00     0.015 C
HETATM    6  C8  UNL     1      -3.865 -27.615 -10.172  1.00  0.00     0.015 C
HETATM    7  C9  UNL     1      -4.478 -25.202 -10.515  1.00  0.00    -0.033 C
HETATM    8  C10 UNL     1      -5.518 -25.564  -9.471  1.00  0.00     0.016 C
HETATM    9  C11 UNL     1      -5.200 -24.733 -11.737  1.00  0.00     0.011 C
HETATM   10  C12 UNL     1      -5.251 -23.198 -11.624  1.00  0.00     0.006 C
HETATM   11  C13 UNL     1      -3.895 -22.914 -11.073  1.00  0.00    -0.004 C
HETATM   12  C14 UNL     1      -3.735 -21.545 -10.530  1.00  0.00     0.002 C
HETATM   13  C15 UNL     1      -4.681 -21.246  -9.361  1.00  0.00     0.007 C
HETATM   14  C16 UNL     1      -4.100 -19.880  -8.953  1.00  0.00     0.021 C
HETATM   15  C17 UNL     1      -2.624 -20.286  -8.823  1.00  0.00     0.093 C
HETATM   16 CL1  UNL     1      -2.410 -21.034  -7.279  1.00  0.00    -0.124 Cl
HETATM   17  C18 UNL     1      -2.410 -21.166 -10.030  1.00  0.00     0.005 C
HETATM   18  C19 UNL     1      -1.855 -20.163 -11.083  1.00  0.00     0.020 C
HETATM   19  C20 UNL     1      -1.348 -22.163  -9.927  1.00  0.00     0.158 C
HETATM   20  C21 UNL     1      -3.707 -24.016 -10.086  1.00  0.00     0.005 C
ENDROOT
BRANCH   1  21
HETATM   21  O2  UNL     1      -0.252 -23.966  -8.889  1.00  0.00    -0.313 OA
BRANCH  21  22
HETATM   22  C2  UNL     1       0.284 -23.875  -7.645  1.00  0.00     0.255 C
HETATM   23  C1  UNL     1      -0.387 -24.533  -6.493  1.00  0.00     0.126 C
HETATM   24  O1  UNL     1       1.337 -23.240  -7.469  1.00  0.00    -0.266 OA
ENDBRANCH  21  22
ENDBRANCH   1  21
BRANCH  19  25
HETATM   25  O3  UNL     1      -0.222 -21.534  -9.342  1.00  0.00    -0.392 OA
ATOM     26  H3  UNL     1       0.107 -22.103  -8.656  1.00  0.00     0.210 HD
ENDBRANCH  19  25
TORSDOF 3
ENDMDL