MODEL 4
REMARK VINA RESULT: -6.463409169      3.055      7.141
REMARK  2 active torsions:
REMARK  status: ('A' for Active; 'I' for Inactive)
REMARK    1  A    between atoms: C2_2  and  C3_4
REMARK    2  A    between atoms: C3_4  and  O2_5
ROOT
HETATM    1  C3  UNL     1      -2.897 -17.067  -8.059  1.00  0.00     0.125 C
HETATM    2  C4  UNL     1      -3.978 -17.198  -9.104  1.00  0.00     0.047 C
HETATM    3  C5  UNL     1      -4.132 -18.670  -9.371  1.00  0.00     0.009 C
HETATM    4  C6  UNL     1      -3.749 -19.267  -8.042  1.00  0.00     0.002 C
HETATM    5  C7  UNL     1      -3.541 -20.744  -8.053  1.00  0.00    -0.003 C
HETATM    6  C8  UNL     1      -4.150 -21.437  -9.232  1.00  0.00     0.006 C
HETATM    7  C9  UNL     1      -3.238 -22.200 -10.119  1.00  0.00     0.013 C
HETATM    8  C10 UNL     1      -2.644 -23.433  -9.501  1.00  0.00    -0.002 C
HETATM    9  C11 UNL     1      -2.797 -24.701 -10.262  1.00  0.00     0.019 C
HETATM   10  C12 UNL     1      -2.911 -23.521  -8.012  1.00  0.00     0.054 C
HETATM   11  C13 UNL     1      -1.779 -22.558  -7.845  1.00  0.00     0.103 C
HETATM   12  O3  UNL     1      -0.923 -23.039  -6.823  1.00  0.00    -0.365 OA
HETATM   13  C14 UNL     1      -0.418 -24.235  -7.234  1.00  0.00     0.065 A
HETATM   14  C15 UNL     1       0.811 -24.725  -6.535  1.00  0.00     0.041 A
HETATM   15  C16 UNL     1      -0.468 -25.478  -6.455  1.00  0.00     0.041 A
HETATM   16  C17 UNL     1      -0.340 -24.198  -8.720  1.00  0.00     0.085 C
HETATM   17  C18 UNL     1      -1.224 -23.055  -9.125  1.00  0.00     0.145 C
HETATM   18  F1  UNL     1      -0.599 -22.213  -9.968  1.00  0.00    -0.239 F
HETATM   19  C19 UNL     1      -2.137 -21.133  -7.739  1.00  0.00     0.028 C
HETATM   20  C20 UNL     1      -1.133 -20.176  -8.346  1.00  0.00     0.009 C
HETATM   21  C21 UNL     1      -1.290 -18.875  -7.540  1.00  0.00     0.013 C
HETATM   22  C22 UNL     1      -2.679 -18.419  -7.428  1.00  0.00    -0.002 C
HETATM   23  C23 UNL     1      -3.013 -18.199  -5.913  1.00  0.00     0.019 C
ENDROOT
BRANCH   1  24
HETATM   24  C2  UNL     1      -1.734 -16.394  -8.616  1.00  0.00     0.158 C
HETATM   25  C1  UNL     1      -1.610 -16.169 -10.080  1.00  0.00     0.094 C
HETATM   26  O1  UNL     1      -0.817 -15.984  -7.891  1.00  0.00    -0.295 OA
ENDBRANCH   1  24
BRANCH   1  27
HETATM   27  O2  UNL     1      -3.414 -16.168  -7.069  1.00  0.00    -0.381 OA
ATOM     28  H2  UNL     1      -2.649 -15.756  -6.684  1.00  0.00     0.211 HD
ENDBRANCH   1  27
TORSDOF 2
ENDMDL