MODEL 4
REMARK VINA RESULT: -6.351622838      1.056      1.069
REMARK  3 active torsions:
REMARK  status: ('A' for Active; 'I' for Inactive)
REMARK    1  A    between atoms: S1_2  and  C2_3
REMARK    2  A    between atoms: C2_3  and  N2_7
REMARK    3  A    between atoms: N3_9  and  C3_11
ROOT
HETATM    1  C3  UNL     1      -3.374 -23.312  -9.531  1.00  0.00     0.102 C
HETATM    2  C4  UNL     1      -3.979 -21.912  -9.383  1.00  0.00     0.030 C
HETATM    3  C5  UNL     1      -2.841 -20.920  -9.594  1.00  0.00     0.029 C
HETATM    4  C6  UNL     1      -2.234 -20.517  -8.296  1.00  0.00    -0.030 C
HETATM    5  C7  UNL     1      -0.973 -20.708  -7.942  1.00  0.00    -0.026 C
HETATM    6  C8  UNL     1       0.056 -21.360  -8.784  1.00  0.00     0.071 C
HETATM    7  C9  UNL     1       0.043 -22.836  -8.766  1.00  0.00     0.068 C
HETATM    8  N4  UNL     1      -0.723 -23.452  -7.757  1.00  0.00    -0.354 N
HETATM    9  C10 UNL     1      -0.321 -23.283  -6.428  1.00  0.00     0.065 C
HETATM   10  C11 UNL     1      -0.303 -24.467  -5.532  1.00  0.00     0.045 C
HETATM   11  C12 UNL     1      -0.419 -25.721  -6.371  1.00  0.00     0.008 C
HETATM   12  C13 UNL     1      -1.768 -25.577  -7.093  1.00  0.00     0.044 C
HETATM   13  C14 UNL     1      -1.648 -24.441  -8.086  1.00  0.00     0.095 C
HETATM   14 BR1  UNL     1      -1.245 -25.262  -9.793  1.00  0.00    -0.061 Br
HETATM   15  C15 UNL     1      -3.044 -23.805  -8.164  1.00  0.00     0.070 C
ENDROOT
BRANCH   1  16
HETATM   16  N3  UNL     1      -4.387 -24.206 -10.113  1.00  0.00    -0.330 N
HETATM   17  N2  UNL     1      -4.101 -24.759 -11.218  1.00  0.00    -0.284 N
ATOM     18  H2  UNL     1      -3.202 -24.577 -11.665  1.00  0.00     0.188 HD
ATOM     19  H3  UNL     1      -5.279 -24.373  -9.648  1.00  0.00     0.180 HD
BRANCH  17  20
HETATM   20  C2  UNL     1      -5.039 -25.636 -11.831  1.00  0.00     0.151 C
HETATM   21  N1  UNL     1      -5.814 -25.166 -12.749  1.00  0.00    -0.379 N
ATOM     22  H12 UNL     1      -6.486 -25.794 -13.188  1.00  0.00     0.158 HD
ATOM     23  H11 UNL     1      -5.777 -24.191 -13.047  1.00  0.00     0.158 HD
BRANCH  20  24
HETATM   24  S1  UNL     1      -5.104 -27.345 -11.307  1.00  0.00    -0.098 SA
HETATM   25  C1  UNL     1      -3.430 -28.034 -11.413  1.00  0.00     0.099 C
ENDBRANCH  20  24
ENDBRANCH  17  20
ENDBRANCH   1  16
TORSDOF 3
ENDMDL