MODEL 4
REMARK VINA RESULT: -3.561843825      1.365      1.835
REMARK  2 active torsions:
REMARK  status: ('A' for Active; 'I' for Inactive)
REMARK    1  A    between atoms: C5_5  and  O1_6
REMARK    2  A    between atoms: N1_18  and  O2_20
ROOT
HETATM    1  C1  UNL     1      -4.396 -23.115 -11.972  1.00  0.00     0.015 C
HETATM    2  C2  UNL     1      -4.534 -23.257 -10.673  1.00  0.00    -0.084 C
HETATM    3  C3  UNL     1      -5.410 -24.392 -10.167  1.00  0.00     0.036 C
HETATM    4  C4  UNL     1      -4.546 -25.255  -9.301  1.00  0.00     0.036 C
HETATM    5  C5  UNL     1      -3.941 -24.423  -8.198  1.00  0.00     0.127 C
HETATM    6  C7  UNL     1      -3.129 -23.278  -8.626  1.00  0.00     0.036 C
HETATM    7  C8  UNL     1      -3.943 -22.435  -9.598  1.00  0.00     0.028 C
HETATM    8  C9  UNL     1      -3.312 -21.163  -9.961  1.00  0.00     0.022 C
HETATM    9  C10 UNL     1      -4.062 -19.956  -9.348  1.00  0.00     0.064 C
HETATM   10 BR1  UNL     1      -4.751 -20.348  -7.600  1.00  0.00    -0.091 Br
HETATM   11  C11 UNL     1      -2.991 -18.860  -9.268  1.00  0.00     0.017 C
HETATM   12  C12 UNL     1      -1.826 -19.706  -8.786  1.00  0.00     0.017 C
HETATM   13  C13 UNL     1      -1.893 -20.961  -9.687  1.00  0.00     0.003 C
HETATM   14  C14 UNL     1      -1.068 -20.593 -10.898  1.00  0.00     0.022 C
HETATM   15  C15 UNL     1      -1.158 -22.052  -8.965  1.00  0.00     0.027 C
HETATM   16  N1  UNL     1      -0.112 -21.657  -8.366  1.00  0.00    -0.276 N
ATOM     17  H1  UNL     1       0.104 -20.663  -8.443  1.00  0.00     0.193 HD
HETATM   18  C16 UNL     1      -1.719 -23.431  -9.026  1.00  0.00     0.000 C
HETATM   19  C17 UNL     1      -1.457 -23.928 -10.421  1.00  0.00     0.021 C
HETATM   20  C18 UNL     1      -0.974 -24.329  -8.102  1.00  0.00     0.021 C
ENDROOT
BRANCH  16  21
HETATM   21  O2  UNL     1       0.736 -22.389  -7.649  1.00  0.00    -0.290 OA
ATOM     22  H2  UNL     1       0.824 -22.411  -6.703  1.00  0.00     0.244 HD
ENDBRANCH  16  21
BRANCH   5  23
HETATM   23  O1  UNL     1      -3.458 -25.244  -7.224  1.00  0.00    -0.390 OA
HETATM   24  C6  UNL     1      -3.167 -24.644  -6.024  1.00  0.00     0.202 C
ENDBRANCH   5  23
TORSDOF 2
ENDMDL