MODEL 2
REMARK VINA RESULT: -6.189118331      1.902      6.931
REMARK  3 active torsions:
REMARK  status: ('A' for Active; 'I' for Inactive)
REMARK    1  A    between atoms: O1_2  and  C2_3
REMARK    2  A    between atoms: C2_3  and  C3_5
REMARK    3  A    between atoms: C19_22  and  O3_23
ROOT
HETATM    1  C3  UNL     1      -1.699 -22.019  -8.286  1.00  0.00     0.049 C
HETATM    2  C4  UNL     1      -0.648 -22.860  -7.570  1.00  0.00     0.026 C
HETATM    3  C5  UNL     1      -2.644 -21.330  -7.336  1.00  0.00     0.020 C
HETATM    4  C6  UNL     1      -3.727 -20.641  -8.074  1.00  0.00     0.002 C
HETATM    5  C7  UNL     1      -4.193 -21.087  -9.364  1.00  0.00     0.010 C
HETATM    6  C8  UNL     1      -3.592 -22.372  -9.963  1.00  0.00    -0.033 C
HETATM    7  C9  UNL     1      -2.923 -21.923 -11.245  1.00  0.00     0.016 C
HETATM    8  C10 UNL     1      -2.534 -22.937  -9.076  1.00  0.00     0.012 C
HETATM    9  C11 UNL     1      -3.295 -23.818  -8.099  1.00  0.00     0.010 C
HETATM   10  C12 UNL     1      -3.449 -25.121  -8.901  1.00  0.00     0.045 C
HETATM   11  C13 UNL     1      -4.533 -24.795  -9.887  1.00  0.00     0.115 C
HETATM   12  F1  UNL     1      -5.707 -25.228  -9.209  1.00  0.00    -0.242 F
HETATM   13  C14 UNL     1      -4.711 -23.397 -10.255  1.00  0.00     0.035 C
HETATM   14  C15 UNL     1      -5.355 -23.190 -11.579  1.00  0.00     0.009 C
HETATM   15  C16 UNL     1      -5.146 -24.242 -12.620  1.00  0.00     0.006 C
HETATM   16  C17 UNL     1      -5.588 -25.552 -11.959  1.00  0.00    -0.001 C
HETATM   17  C18 UNL     1      -5.826 -26.635 -12.952  1.00  0.00     0.037 C
HETATM   18  C19 UNL     1      -6.374 -27.832 -12.203  1.00  0.00     0.118 C
HETATM   19  C20 UNL     1      -6.165 -27.678 -10.713  1.00  0.00     0.032 C
HETATM   20  C21 UNL     1      -4.764 -27.198 -10.394  1.00  0.00     0.015 C
HETATM   21  C22 UNL     1      -4.461 -25.836 -10.990  1.00  0.00    -0.004 C
HETATM   22  C23 UNL     1      -3.124 -25.931 -11.632  1.00  0.00     0.019 C
ENDROOT
BRANCH   1  23
HETATM   23  C2  UNL     1      -0.922 -20.989  -8.970  1.00  0.00     0.267 C
HETATM   24  O2  UNL     1       0.150 -21.290  -9.601  1.00  0.00    -0.264 OA
BRANCH  23  25
HETATM   25  O1  UNL     1      -1.212 -19.630  -9.032  1.00  0.00    -0.326 OA
HETATM   26  C1  UNL     1      -1.237 -18.780  -7.923  1.00  0.00     0.213 C
ENDBRANCH  23  25
ENDBRANCH   1  23
BRANCH  18  27
HETATM   27  O3  UNL     1      -7.705 -27.965 -12.513  1.00  0.00    -0.396 OA
ATOM     28  H3  UNL     1      -8.204 -27.394 -11.940  1.00  0.00     0.210 HD
ENDBRANCH  18  27
TORSDOF 3
ENDMDL