MODEL 1
REMARK VINA RESULT: -8.040352038      0.000      0.000
REMARK  16 active torsions:
REMARK  status: ('A' for Active; 'I' for Inactive)
REMARK    1  A    between atoms: C2_2  and  O2_4
REMARK    2  A    between atoms: O2_4  and  C3_5
REMARK    3  A    between atoms: C4_6  and  C5_7
REMARK    4  A    between atoms: C5_7  and  O3_8
REMARK    5  A    between atoms: O3_8  and  C6_9
REMARK    6  A    between atoms: C6_9  and  C7_11
REMARK    7  A    between atoms: C12_16  and  O5_17
REMARK    8  A    between atoms: O5_17  and  C13_18
REMARK    9  A    between atoms: C13_18  and  C14_20
REMARK   10  A    between atoms: C15_21  and  C16_22
REMARK   11  A    between atoms: C20_26  and  O7_27
REMARK   12  A    between atoms: C22_30  and  O8_31
REMARK   13  A    between atoms: C23_33  and  O9_34
REMARK   14  A    between atoms: O9_34  and  C24_35
REMARK   15  A    between atoms: C26_38  and  O11_39
REMARK   16  A    between atoms: O11_39  and  C27_40
ROOT
HETATM    1  C3  UNL     1     -49.744  -2.925 -19.291  1.00  0.00     0.170 C
HETATM    2  C4  UNL     1     -50.166  -2.931 -20.735  1.00  0.00     0.045 C
HETATM    3  C11 UNL     1     -51.555  -2.419 -20.821  1.00  0.00     0.044 C
HETATM    4  C12 UNL     1     -51.468  -0.947 -20.410  1.00  0.00     0.165 C
HETATM    5  C23 UNL     1     -51.052  -0.786 -18.992  1.00  0.00     0.193 C
HETATM    6  C26 UNL     1     -50.516  -2.049 -18.372  1.00  0.00     0.194 C
ENDROOT
BRANCH   4   7
HETATM    7  O5  UNL     1     -52.639  -0.242 -20.648  1.00  0.00    -0.310 OA
BRANCH   7   8
HETATM    8  C13 UNL     1     -52.844   0.733 -21.572  1.00  0.00     0.283 C
HETATM    9  O6  UNL     1     -53.145   1.866 -21.221  1.00  0.00    -0.260 OA
BRANCH   8  10
HETATM   10  C14 UNL     1     -52.699   0.403 -23.012  1.00  0.00     0.083 C
HETATM   11  C15 UNL     1     -53.073  -0.746 -23.475  1.00  0.00     0.020 C
BRANCH  11  12
HETATM   12  C16 UNL     1     -53.037  -1.293 -24.803  1.00  0.00    -0.002 A
HETATM   13  C17 UNL     1     -52.045  -2.212 -25.178  1.00  0.00     0.023 A
HETATM   14  C18 UNL     1     -51.927  -2.781 -26.401  1.00  0.00    -0.028 A
HETATM   15  C19 UNL     1     -50.844  -3.757 -26.741  1.00  0.00     0.051 C
HETATM   16  C20 UNL     1     -52.850  -2.438 -27.364  1.00  0.00     0.074 A
HETATM   17  C21 UNL     1     -53.850  -1.545 -27.071  1.00  0.00     0.074 A
HETATM   18  C22 UNL     1     -53.933  -0.977 -25.782  1.00  0.00     0.078 A
BRANCH  16  19
HETATM   19  O7  UNL     1     -52.778  -2.991 -28.643  1.00  0.00    -0.360 OA
ATOM     20  H7  UNL     1     -53.295  -2.632 -29.354  1.00  0.00     0.217 HD
ENDBRANCH  16  19
BRANCH  18  21
HETATM   21  O8  UNL     1     -54.962  -0.080 -25.537  1.00  0.00    -0.360 OA
ATOM     22  H8  UNL     1     -55.102   0.666 -26.109  1.00  0.00     0.217 HD
ENDBRANCH  18  21
ENDBRANCH  11  12
ENDBRANCH   8  10
ENDBRANCH   7   8
ENDBRANCH   4   7
BRANCH   5  23
HETATM   23  O9  UNL     1     -52.145  -0.260 -18.257  1.00  0.00    -0.311 OA
BRANCH  23  24
HETATM   24  C24 UNL     1     -52.053   0.822 -17.395  1.00  0.00     0.255 C
HETATM   25  C25 UNL     1     -53.082   1.898 -17.338  1.00  0.00     0.126 C
HETATM   26  O10 UNL     1     -51.052   0.880 -16.635  1.00  0.00    -0.266 OA
ENDBRANCH  23  24
ENDBRANCH   5  23
BRANCH   2  27
HETATM   27  C5  UNL     1     -49.849  -4.277 -21.277  1.00  0.00     0.186 C
BRANCH  27  28
HETATM   28  O3  UNL     1     -49.764  -4.529 -22.598  1.00  0.00    -0.318 OA
BRANCH  28  29
HETATM   29  C6  UNL     1     -50.616  -5.272 -23.361  1.00  0.00     0.283 C
HETATM   30  O4  UNL     1     -51.885  -5.172 -23.220  1.00  0.00    -0.260 OA
BRANCH  29  31
HETATM   31  C7  UNL     1     -50.186  -6.216 -24.373  1.00  0.00     0.084 C
HETATM   32  C8  UNL     1     -49.717  -7.400 -24.063  1.00  0.00    -0.082 C
HETATM   33  C9  UNL     1     -49.594  -7.853 -22.656  1.00  0.00     0.043 C
HETATM   34  C10 UNL     1     -49.274  -8.365 -25.135  1.00  0.00     0.043 C
ENDBRANCH  29  31
ENDBRANCH  28  29
ENDBRANCH  27  28
ENDBRANCH   2  27
BRANCH   6  35
HETATM   35  O11 UNL     1     -51.494  -2.768 -17.669  1.00  0.00    -0.311 OA
BRANCH  35  36
HETATM   36  C27 UNL     1     -51.378  -3.047 -16.336  1.00  0.00     0.255 C
HETATM   37  C28 UNL     1     -50.313  -2.507 -15.467  1.00  0.00     0.126 C
HETATM   38  O12 UNL     1     -52.237  -3.805 -15.841  1.00  0.00    -0.266 OA
ENDBRANCH  35  36
ENDBRANCH   6  35
BRANCH   1  39
HETATM   39  O2  UNL     1     -48.340  -2.660 -19.160  1.00  0.00    -0.313 OA
BRANCH  39  40
HETATM   40  C2  UNL     1     -47.451  -3.425 -18.473  1.00  0.00     0.255 C
HETATM   41  C1  UNL     1     -46.497  -4.355 -19.117  1.00  0.00     0.126 C
HETATM   42  O1  UNL     1     -47.431  -3.343 -17.222  1.00  0.00    -0.266 OA
ENDBRANCH  39  40
ENDBRANCH   1  39
TORSDOF 16
ENDMDL