MODEL 3
REMARK VINA RESULT: -7.673947497      2.294      8.251
REMARK  10 active torsions:
REMARK  status: ('A' for Active; 'I' for Inactive)
REMARK    1  A    between atoms: O1_2  and  C2_3
REMARK    2  A    between atoms: C2_3  and  C3_4
REMARK    3  A    between atoms: C3_4  and  N1_5
REMARK    4  A    between atoms: C7_10  and  O3_11
REMARK    5  A    between atoms: C12_16  and  O4_17
REMARK    6  A    between atoms: C13_19  and  O5_20
REMARK    7  A    between atoms: C20_29  and  O7_30
REMARK    8  A    between atoms: C22_32  and  O8_33
REMARK    9  A    between atoms: C24_35  and  O9_36
REMARK   10  A    between atoms: C27_39  and  O10_40
ROOT
HETATM    1  N1  UNL     1     -47.024  -4.817 -17.849  1.00  0.00    -0.278 N
HETATM    2  C4  UNL     1     -47.335  -5.906 -18.685  1.00  0.00     0.261 A
HETATM    3  O2  UNL     1     -46.914  -7.111 -18.607  1.00  0.00    -0.267 OA
HETATM    4  C5  UNL     1     -48.264  -5.446 -19.724  1.00  0.00     0.051 A
HETATM    5  C6  UNL     1     -48.870  -6.101 -20.776  1.00  0.00     0.055 A
HETATM    6  C7  UNL     1     -49.719  -5.465 -21.639  1.00  0.00     0.083 A
HETATM    7  C9  UNL     1     -49.946  -4.130 -21.411  1.00  0.00     0.046 A
HETATM    8  C10 UNL     1     -50.782  -3.479 -22.244  1.00  0.00     0.100 A
HETATM    9  C11 UNL     1     -51.020  -2.120 -22.012  1.00  0.00     0.048 A
HETATM   10  C12 UNL     1     -50.460  -1.389 -21.016  1.00  0.00     0.113 A
HETATM   11  C13 UNL     1     -49.607  -2.081 -20.169  1.00  0.00     0.112 A
HETATM   12  C14 UNL     1     -49.346  -3.433 -20.352  1.00  0.00     0.032 A
HETATM   13  C15 UNL     1     -48.489  -4.102 -19.490  1.00  0.00     0.062 A
HETATM   14  C16 UNL     1     -47.734  -3.669 -18.329  1.00  0.00     0.262 A
HETATM   15  O6  UNL     1     -47.623  -2.581 -17.755  1.00  0.00    -0.267 OA
HETATM   16  C17 UNL     1     -51.991  -1.327 -22.779  1.00  0.00     0.023 A
HETATM   17  C18 UNL     1     -52.008  -1.313 -24.190  1.00  0.00    -0.037 A
HETATM   18  C19 UNL     1     -52.819  -0.458 -24.807  1.00  0.00     0.048 A
HETATM   19  C20 UNL     1     -53.629   0.395 -24.047  1.00  0.00     0.104 A
HETATM   20  C22 UNL     1     -53.585   0.338 -22.655  1.00  0.00     0.136 A
HETATM   21  C24 UNL     1     -52.748  -0.551 -21.979  1.00  0.00     0.116 A
HETATM   22  C26 UNL     1     -51.257  -2.339 -24.999  1.00  0.00     0.100 C
HETATM   23  C27 UNL     1     -51.721  -3.741 -24.599  1.00  0.00     0.270 C
HETATM   24  O11 UNL     1     -51.352  -4.190 -23.303  1.00  0.00    -0.318 OA
ENDROOT
BRANCH   1  25
HETATM   25  C3  UNL     1     -46.147  -4.829 -16.703  1.00  0.00     0.162 C
BRANCH  25  26
HETATM   26  C2  UNL     1     -44.689  -4.783 -17.082  1.00  0.00     0.187 C
BRANCH  26  27
HETATM   27  O1  UNL     1     -44.493  -3.864 -18.105  1.00  0.00    -0.394 OA
HETATM   28  C1  UNL     1     -43.612  -2.866 -17.648  1.00  0.00     0.201 C
ENDBRANCH  26  27
ENDBRANCH  25  26
ENDBRANCH   1  25
BRANCH   6  29
HETATM   29  O3  UNL     1     -50.346  -6.079 -22.702  1.00  0.00    -0.355 OA
HETATM   30  C8  UNL     1     -50.063  -7.402 -23.101  1.00  0.00     0.210 C
ENDBRANCH   6  29
BRANCH  11  31
HETATM   31  O5  UNL     1     -49.068  -1.325 -19.174  1.00  0.00    -0.357 OA
ATOM     32  H5  UNL     1     -48.452  -0.665 -19.471  1.00  0.00     0.217 HD
ENDBRANCH  11  31
BRANCH  10  33
HETATM   33  O4  UNL     1     -50.694  -0.077 -20.874  1.00  0.00    -0.357 OA
ATOM     34  H4  UNL     1     -50.152   0.478 -20.326  1.00  0.00     0.217 HD
ENDBRANCH  10  33
BRANCH  23  35
HETATM   35  O10 UNL     1     -53.097  -3.852 -24.780  1.00  0.00    -0.365 OA
HETATM   36  C28 UNL     1     -53.492  -5.155 -24.502  1.00  0.00     0.204 C
ENDBRANCH  23  35
BRANCH  21  37
HETATM   37  O9  UNL     1     -52.723  -0.651 -20.618  1.00  0.00    -0.352 OA
HETATM   38  C25 UNL     1     -53.877  -1.083 -19.868  1.00  0.00     0.210 C
ENDBRANCH  21  37
BRANCH  20  39
HETATM   39  O8  UNL     1     -54.368   1.156 -21.845  1.00  0.00    -0.351 OA
HETATM   40  C23 UNL     1     -53.692   2.284 -21.273  1.00  0.00     0.210 C
ENDBRANCH  20  39
BRANCH  19  41
HETATM   41  O7  UNL     1     -54.467   1.287 -24.664  1.00  0.00    -0.353 OA
HETATM   42  C21 UNL     1     -55.750   1.003 -25.130  1.00  0.00     0.210 C
ENDBRANCH  19  41
TORSDOF 10
ENDMDL