MODEL 3
REMARK VINA RESULT: -6.150498910      2.509      6.170
REMARK  13 active torsions:
REMARK  status: ('A' for Active; 'I' for Inactive)
REMARK    1  A    between atoms: C2_2  and  O2_4
REMARK    2  A    between atoms: O2_4  and  C3_5
REMARK    3  A    between atoms: C5_8  and  C6_9
REMARK    4  A    between atoms: C6_9  and  O4_10
REMARK    5  A    between atoms: O4_10  and  C7_11
REMARK    6  A    between atoms: C11_15  and  O5_16
REMARK    7  A    between atoms: O5_16  and  C12_17
REMARK    8  A    between atoms: C12_17  and  C13_19
REMARK    9  A    between atoms: C13_19  and  C14_20
REMARK   10  A    between atoms: N1_21  and  O7_23
REMARK   11  A    between atoms: C16_26  and  O8_27
REMARK   12  A    between atoms: O8_27  and  C17_28
REMARK   13  A    between atoms: C23_35  and  O10_36
ROOT
HETATM    1  C3  UNL     1     -47.852  -1.064 -13.681  1.00  0.00     0.167 C
HETATM    2  C4  UNL     1     -48.185  -1.426 -15.097  1.00  0.00     0.202 C
HETATM    3  O3  UNL     1     -49.333  -2.113 -15.034  1.00  0.00    -0.372 OA
HETATM    4  C5  UNL     1     -50.534  -1.445 -15.277  1.00  0.00     0.118 C
HETATM    5  C11 UNL     1     -50.517  -0.068 -15.694  1.00  0.00     0.172 C
HETATM    6  C15 UNL     1     -49.960   1.047 -14.951  1.00  0.00     0.075 C
HETATM    7  C16 UNL     1     -49.286   1.076 -13.668  1.00  0.00     0.086 C
HETATM    8  C19 UNL     1     -50.386   1.470 -12.624  1.00  0.00     0.018 C
HETATM    9  C20 UNL     1     -50.181   2.754 -11.930  1.00  0.00     0.013 C
HETATM   10  C21 UNL     1     -50.617   0.312 -11.745  1.00  0.00     0.015 C
HETATM   11  C22 UNL     1     -49.836  -0.838 -12.261  1.00  0.00     0.029 C
HETATM   12  C23 UNL     1     -50.543  -1.924 -12.877  1.00  0.00     0.134 C
HETATM   13  C24 UNL     1     -51.379  -1.810 -14.089  1.00  0.00     0.015 C
HETATM   14  C25 UNL     1     -51.773  -3.300 -14.326  1.00  0.00     0.020 C
HETATM   15  C26 UNL     1     -52.698  -1.193 -13.958  1.00  0.00     0.020 C
HETATM   16  C27 UNL     1     -48.737  -0.109 -13.009  1.00  0.00     0.023 C
HETATM   17  C28 UNL     1     -47.831   0.418 -11.863  1.00  0.00     0.022 C
ENDROOT
BRANCH   5  18
HETATM   18  O5  UNL     1     -51.886   0.271 -16.015  1.00  0.00    -0.312 OA
BRANCH  18  19
HETATM   19  C12 UNL     1     -52.276   1.023 -17.094  1.00  0.00     0.264 C
HETATM   20  O6  UNL     1     -53.043   2.012 -16.852  1.00  0.00    -0.265 OA
BRANCH  19  21
HETATM   21  C13 UNL     1     -51.853   0.738 -18.487  1.00  0.00     0.157 C
BRANCH  21  22
HETATM   22  C14 UNL     1     -52.886   0.145 -19.338  1.00  0.00     0.096 C
HETATM   23  N1  UNL     1     -53.865   0.828 -19.851  1.00  0.00    -0.284 N
ATOM     24  H1  UNL     1     -54.550   0.348 -20.435  1.00  0.00     0.192 HD
BRANCH  23  25
HETATM   25  O7  UNL     1     -54.005   2.177 -19.631  1.00  0.00    -0.291 OA
ATOM     26  H7  UNL     1     -54.555   2.722 -20.182  1.00  0.00     0.244 HD
ENDBRANCH  23  25
ENDBRANCH  21  22
ENDBRANCH  19  21
ENDBRANCH  18  19
ENDBRANCH   5  18
BRANCH   4  27
HETATM   27  C6  UNL     1     -50.978  -2.266 -16.499  1.00  0.00     0.209 C
BRANCH  27  28
HETATM   28  O4  UNL     1     -50.002  -1.923 -17.477  1.00  0.00    -0.383 OA
BRANCH  28  29
HETATM   29  C7  UNL     1     -49.986  -2.809 -18.525  1.00  0.00     0.121 C
HETATM   30  C8  UNL     1     -51.378  -3.220 -18.920  1.00  0.00     0.032 C
HETATM   31  C9  UNL     1     -50.866  -3.251 -20.368  1.00  0.00     0.005 C
HETATM   32  C10 UNL     1     -49.859  -2.199 -19.904  1.00  0.00     0.032 C
ENDBRANCH  28  29
ENDBRANCH  27  28
ENDBRANCH   4  27
BRANCH   7  33
HETATM   33  O8  UNL     1     -48.445   2.194 -13.498  1.00  0.00    -0.309 OA
BRANCH  33  34
HETATM   34  C17 UNL     1     -47.622   2.858 -14.290  1.00  0.00     0.255 C
HETATM   35  C18 UNL     1     -47.758   4.311 -14.602  1.00  0.00     0.126 C
HETATM   36  O9  UNL     1     -46.706   2.212 -14.777  1.00  0.00    -0.266 OA
ENDBRANCH  33  34
ENDBRANCH   7  33
BRANCH  12  37
HETATM   37  O10 UNL     1     -51.409  -2.446 -11.873  1.00  0.00    -0.394 OA
ATOM     38  H10 UNL     1     -51.909  -3.137 -12.293  1.00  0.00     0.210 HD
ENDBRANCH  12  37
BRANCH   1  39
HETATM   39  O2  UNL     1     -46.463  -0.848 -13.563  1.00  0.00    -0.313 OA
BRANCH  39  40
HETATM   40  C2  UNL     1     -45.466  -1.513 -14.211  1.00  0.00     0.255 C
HETATM   41  C1  UNL     1     -45.112  -2.937 -13.942  1.00  0.00     0.126 C
HETATM   42  O1  UNL     1     -44.814  -0.868 -15.087  1.00  0.00    -0.266 OA
ENDBRANCH  39  40
ENDBRANCH   1  39
TORSDOF 13
ENDMDL