MODEL 2
REMARK VINA RESULT: -7.320466456      1.787      3.381
REMARK  12 active torsions:
REMARK  status: ('A' for Active; 'I' for Inactive)
REMARK    1  A    between atoms: O1_2  and  C2_3
REMARK    2  A    between atoms: C5_6  and  C6_7
REMARK    3  A    between atoms: C6_7  and  O3_9
REMARK    4  A    between atoms: O3_9  and  C7_10
REMARK    5  A    between atoms: C7_10  and  O4_13
REMARK    6  A    between atoms: O4_13  and  C10_14
REMARK    7  A    between atoms: C10_14  and  C11_16
REMARK    8  A    between atoms: C11_16  and  C12_17
REMARK    9  A    between atoms: C12_17  and  C13_18
REMARK   10  A    between atoms: C22_29  and  O8_30
REMARK   11  A    between atoms: C22_29  and  C23_32
REMARK   12  A    between atoms: C23_32  and  O9_35
ROOT
HETATM    1  C13 UNL     1     -50.722  -4.267 -19.666  1.00  0.00     0.128 C
HETATM    2  C14 UNL     1     -51.974  -3.560 -20.049  1.00  0.00     0.072 C
HETATM    3  C15 UNL     1     -51.822  -2.034 -19.934  1.00  0.00     0.094 C
HETATM    4  C16 UNL     1     -53.178  -1.420 -19.958  1.00  0.00     0.049 C
HETATM    5  O6  UNL     1     -50.974  -1.652 -20.921  1.00  0.00    -0.342 OA
HETATM    6  C17 UNL     1     -49.852  -0.985 -20.629  1.00  0.00     0.161 C
HETATM    7  C18 UNL     1     -48.893  -1.182 -21.817  1.00  0.00     0.078 C
HETATM    8  C19 UNL     1     -50.092   0.514 -20.556  1.00  0.00     0.078 C
HETATM    9  O7  UNL     1     -49.137  -1.353 -19.516  1.00  0.00    -0.317 OA
HETATM   10  C20 UNL     1     -49.765  -2.327 -18.752  1.00  0.00     0.202 C
HETATM   11  C21 UNL     1     -49.341  -2.343 -17.309  1.00  0.00     0.143 C
HETATM   12  C22 UNL     1     -50.656  -2.552 -16.614  1.00  0.00     0.198 C
HETATM   13  O10 UNL     1     -51.664  -2.559 -17.572  1.00  0.00    -0.338 OA
HETATM   14  C26 UNL     1     -51.192  -1.805 -18.593  1.00  0.00     0.222 C
HETATM   15  O11 UNL     1     -49.643  -3.520 -19.350  1.00  0.00    -0.347 OA
ENDROOT
BRANCH   1  16
HETATM   16  C12 UNL     1     -50.284  -5.194 -20.812  1.00  0.00     0.042 C
BRANCH  16  17
HETATM   17  C11 UNL     1     -51.223  -5.111 -21.973  1.00  0.00     0.114 C
BRANCH  17  18
HETATM   18  C10 UNL     1     -50.466  -4.827 -23.201  1.00  0.00     0.261 C
HETATM   19  O5  UNL     1     -49.752  -5.729 -23.703  1.00  0.00    -0.265 OA
BRANCH  18  20
HETATM   20  O4  UNL     1     -50.479  -3.610 -23.869  1.00  0.00    -0.284 OA
BRANCH  20  21
HETATM   21  C7  UNL     1     -51.328  -3.405 -25.009  1.00  0.00     0.175 C
HETATM   22  C8  UNL     1     -50.869  -4.317 -26.126  1.00  0.00     0.080 C
HETATM   23  C9  UNL     1     -52.723  -3.826 -24.618  1.00  0.00     0.080 C
BRANCH  21  24
HETATM   24  O3  UNL     1     -51.260  -2.069 -25.423  1.00  0.00    -0.280 OA
BRANCH  24  25
HETATM   25  C6  UNL     1     -52.428  -1.390 -25.751  1.00  0.00     0.296 C
HETATM   26  O2  UNL     1     -52.886  -1.542 -26.904  1.00  0.00    -0.259 OA
BRANCH  25  27
HETATM   27  C5  UNL     1     -53.123  -0.526 -24.821  1.00  0.00     0.039 A
HETATM   28  C4  UNL     1     -52.564  -0.289 -23.587  1.00  0.00     0.020 A
HETATM   29  C3  UNL     1     -53.181   0.528 -22.657  1.00  0.00     0.038 A
HETATM   30  C2  UNL     1     -54.381   1.105 -23.005  1.00  0.00     0.068 A
HETATM   31  C28 UNL     1     -54.939   0.869 -24.238  1.00  0.00     0.038 A
HETATM   32  C27 UNL     1     -54.331   0.055 -25.170  1.00  0.00     0.020 A
BRANCH  30  33
HETATM   33  O1  UNL     1     -55.016   1.929 -22.086  1.00  0.00    -0.356 OA
HETATM   34  C1  UNL     1     -54.415   2.260 -20.857  1.00  0.00     0.210 C
ENDBRANCH  30  33
ENDBRANCH  25  27
ENDBRANCH  24  25
ENDBRANCH  21  24
ENDBRANCH  20  21
ENDBRANCH  18  20
ENDBRANCH  17  18
ENDBRANCH  16  17
ENDBRANCH   1  16
BRANCH  12  35
HETATM   35  O8  UNL     1     -50.710  -3.828 -16.005  1.00  0.00    -0.363 OA
ATOM     36  H8  UNL     1     -50.341  -4.493 -16.576  1.00  0.00     0.213 HD
ENDBRANCH  12  35
BRANCH  12  37
HETATM   37  C23 UNL     1     -50.870  -1.515 -15.531  1.00  0.00     0.107 C
HETATM   38  C24 UNL     1     -52.135  -1.885 -14.786  1.00  0.00     0.051 C
HETATM   39  C25 UNL     1     -51.002  -0.134 -16.075  1.00  0.00     0.051 C
BRANCH  37  40
HETATM   40  O9  UNL     1     -49.835  -1.521 -14.605  1.00  0.00    -0.385 OA
ATOM     41  H9  UNL     1     -49.848  -2.307 -14.071  1.00  0.00     0.210 HD
ENDBRANCH  37  40
ENDBRANCH  12  37
TORSDOF 12
ENDMDL