MODEL 1
REMARK VINA RESULT: -6.056026077      0.000      0.000
REMARK  14 active torsions:
REMARK  status: ('A' for Active; 'I' for Inactive)
REMARK    1  A    between atoms: O1_2  and  C2_3
REMARK    2  A    between atoms: C2_3  and  C3_5
REMARK    3  A    between atoms: C3_5  and  O3_6
REMARK    4  A    between atoms: C3_5  and  C25_37
REMARK    5  A    between atoms: O3_6  and  C4_7
REMARK    6  A    between atoms: C5_8  and  O4_9
REMARK    7  A    between atoms: O4_9  and  C6_10
REMARK    8  A    between atoms: C8_13  and  C9_14
REMARK    9  A    between atoms: C12_18  and  O7_19
REMARK   10  A    between atoms: O7_19  and  C13_20
REMARK   11  A    between atoms: C17_25  and  O9_27
REMARK   12  A    between atoms: C19_29  and  O10_30
REMARK   13  A    between atoms: O10_30  and  C20_31
REMARK   14  A    between atoms: C25_37  and  O12_40
ROOT
HETATM    1  C4  UNL     1     -49.801  -3.196 -17.770  1.00  0.00     0.161 C
HETATM    2  C5  UNL     1     -50.695  -2.507 -16.746  1.00  0.00     0.170 C
HETATM    3  C8  UNL     1     -51.174  -1.157 -17.059  1.00  0.00     0.056 C
HETATM    4  C15 UNL     1     -50.973  -0.568 -18.400  1.00  0.00     0.020 C
HETATM    5  C16 UNL     1     -50.085  -1.360 -19.265  1.00  0.00     0.034 C
HETATM    6  C17 UNL     1     -50.038  -1.023 -20.705  1.00  0.00     0.085 C
HETATM    7  C18 UNL     1     -51.316  -0.575 -21.324  1.00  0.00     0.049 C
HETATM    8  C19 UNL     1     -49.449  -2.269 -21.326  1.00  0.00     0.167 C
HETATM    9  C22 UNL     1     -49.696  -3.408 -20.318  1.00  0.00     0.048 C
HETATM   10  C23 UNL     1     -50.364  -2.827 -19.139  1.00  0.00    -0.006 C
HETATM   11  C24 UNL     1     -51.832  -3.183 -19.235  1.00  0.00     0.018 C
ENDROOT
BRANCH   1  12
HETATM   12  O3  UNL     1     -48.518  -2.715 -17.599  1.00  0.00    -0.364 OA
BRANCH  12  13
HETATM   13  C3  UNL     1     -47.558  -3.634 -17.205  1.00  0.00     0.255 C
BRANCH  13  14
HETATM   14  C2  UNL     1     -46.772  -4.114 -18.363  1.00  0.00     0.290 C
HETATM   15  O2  UNL     1     -46.084  -3.316 -19.090  1.00  0.00    -0.262 OA
BRANCH  14  16
HETATM   16  O1  UNL     1     -46.722  -5.433 -18.743  1.00  0.00    -0.324 OA
HETATM   17  C1  UNL     1     -47.763  -6.346 -18.429  1.00  0.00     0.213 C
ENDBRANCH  14  16
ENDBRANCH  13  14
BRANCH  13  18
HETATM   18  C25 UNL     1     -46.542  -3.030 -16.252  1.00  0.00     0.086 C
HETATM   19  C26 UNL     1     -47.257  -2.765 -14.930  1.00  0.00     0.049 C
HETATM   20  C27 UNL     1     -45.370  -3.923 -15.975  1.00  0.00     0.049 C
BRANCH  18  21
HETATM   21  O12 UNL     1     -46.055  -1.796 -16.660  1.00  0.00    -0.387 OA
ATOM     22  H12 UNL     1     -45.221  -1.844 -17.111  1.00  0.00     0.210 HD
ENDBRANCH  18  21
ENDBRANCH  13  18
ENDBRANCH  12  13
ENDBRANCH   1  12
BRANCH   2  23
HETATM   23  O4  UNL     1     -51.833  -3.320 -16.461  1.00  0.00    -0.313 OA
BRANCH  23  24
HETATM   24  C6  UNL     1     -52.229  -3.611 -15.175  1.00  0.00     0.255 C
HETATM   25  C7  UNL     1     -51.528  -3.188 -13.954  1.00  0.00     0.126 C
HETATM   26  O5  UNL     1     -53.286  -4.301 -15.052  1.00  0.00    -0.266 OA
ENDBRANCH  23  24
ENDBRANCH   2  23
BRANCH   3  27
HETATM   27  C9  UNL     1     -50.566  -0.178 -16.085  1.00  0.00     0.009 A
HETATM   28  C10 UNL     1     -49.338  -0.069 -15.543  1.00  0.00     0.037 A
HETATM   29  C11 UNL     1     -49.375   1.057 -14.707  1.00  0.00     0.145 A
HETATM   30  O6  UNL     1     -50.577   1.567 -14.774  1.00  0.00    -0.300 OA
HETATM   31  C12 UNL     1     -51.332   0.879 -15.575  1.00  0.00     0.199 A
BRANCH  31  32
HETATM   32  O7  UNL     1     -52.658   1.185 -15.843  1.00  0.00    -0.254 OA
BRANCH  32  33
HETATM   33  C13 UNL     1     -53.015   2.235 -16.690  1.00  0.00     0.261 C
HETATM   34  C14 UNL     1     -53.192   3.606 -16.152  1.00  0.00     0.126 C
HETATM   35  O8  UNL     1     -53.171   1.946 -17.903  1.00  0.00    -0.265 OA
ENDBRANCH  32  33
ENDBRANCH  31  32
ENDBRANCH   3  27
BRANCH   6  36
HETATM   36  O9  UNL     1     -49.124   0.047 -20.855  1.00  0.00    -0.387 OA
ATOM     37  H9  UNL     1     -48.258  -0.333 -20.942  1.00  0.00     0.210 HD
ENDBRANCH   6  36
BRANCH   8  38
HETATM   38  O10 UNL     1     -49.970  -2.537 -22.587  1.00  0.00    -0.313 OA
BRANCH  38  39
HETATM   39  C20 UNL     1     -50.531  -3.768 -22.866  1.00  0.00     0.255 C
HETATM   40  C21 UNL     1     -51.997  -3.955 -22.860  1.00  0.00     0.126 C
HETATM   41  O11 UNL     1     -49.789  -4.741 -23.127  1.00  0.00    -0.266 OA
ENDBRANCH  38  39
ENDBRANCH   8  38
TORSDOF 14
ENDMDL