MODEL 3
REMARK VINA RESULT: -4.964619717      1.887      6.385
REMARK  14 active torsions:
REMARK  status: ('A' for Active; 'I' for Inactive)
REMARK    1  A    between atoms: C2_2  and  O1_3
REMARK    2  A    between atoms: O1_3  and  C3_4
REMARK    3  A    between atoms: C3_4  and  O3_6
REMARK    4  A    between atoms: O3_6  and  C4_7
REMARK    5  A    between atoms: C8_11  and  O4_13
REMARK    6  A    between atoms: C10_15  and  C11_16
REMARK    7  A    between atoms: C15_22  and  C16_23
REMARK    8  A    between atoms: C16_23  and  O7_26
REMARK    9  A    between atoms: C19_28  and  O8_29
REMARK   10  A    between atoms: O8_29  and  C20_30
REMARK   11  A    between atoms: C22_33  and  O10_34
REMARK   12  A    between atoms: O10_34  and  C23_35
REMARK   13  A    between atoms: C23_35  and  C24_37
REMARK   14  A    between atoms: C24_37  and  C25_38
ROOT
HETATM    1  C4  UNL     1     -51.639  -1.459 -14.383  1.00  0.00     0.097 C
HETATM    2  C5  UNL     1     -50.535  -1.903 -13.505  1.00  0.00    -0.030 C
HETATM    3  C6  UNL     1     -50.922  -2.987 -12.483  1.00  0.00     0.050 C
HETATM    4  C7  UNL     1     -49.285  -1.542 -13.444  1.00  0.00     0.020 C
HETATM    5  C8  UNL     1     -48.431  -0.599 -14.155  1.00  0.00     0.090 C
HETATM    6  C9  UNL     1     -47.044  -1.229 -14.455  1.00  0.00     0.051 C
HETATM    7  C10 UNL     1     -48.070   0.541 -13.180  1.00  0.00     0.162 C
HETATM    8  C13 UNL     1     -49.328   0.973 -12.538  1.00  0.00     0.141 C
HETATM    9  O6  UNL     1     -49.597   0.552 -11.437  1.00  0.00    -0.297 OA
HETATM   10  C14 UNL     1     -50.189   1.910 -13.298  1.00  0.00     0.089 C
HETATM   11  C15 UNL     1     -51.623   1.617 -12.912  1.00  0.00     0.059 C
HETATM   12  C19 UNL     1     -52.412   0.943 -14.005  1.00  0.00     0.175 C
HETATM   13  C22 UNL     1     -52.633  -0.528 -13.755  1.00  0.00     0.219 C
ENDROOT
BRANCH  13  14
HETATM   14  O10 UNL     1     -52.727  -0.825 -12.379  1.00  0.00    -0.306 OA
BRANCH  14  15
HETATM   15  C23 UNL     1     -53.921  -1.138 -11.740  1.00  0.00     0.259 C
HETATM   16  O11 UNL     1     -54.025  -2.249 -11.202  1.00  0.00    -0.265 OA
BRANCH  15  17
HETATM   17  C24 UNL     1     -55.065  -0.178 -11.687  1.00  0.00     0.115 C
BRANCH  17  18
HETATM   18  C25 UNL     1     -55.050   0.554 -10.363  1.00  0.00    -0.013 C
HETATM   19  C26 UNL     1     -55.741   1.894 -10.602  1.00  0.00     0.010 C
HETATM   20  C27 UNL     1     -55.796  -0.180  -9.294  1.00  0.00     0.010 C
ENDBRANCH  17  18
ENDBRANCH  15  17
ENDBRANCH  14  15
ENDBRANCH  13  14
BRANCH   1  21
HETATM   21  O3  UNL     1     -51.304  -1.145 -15.693  1.00  0.00    -0.257 OA
BRANCH  21  22
HETATM   22  C3  UNL     1     -50.908  -2.022 -16.691  1.00  0.00     0.411 C
HETATM   23  O2  UNL     1     -51.662  -3.017 -16.894  1.00  0.00    -0.229 OA
BRANCH  22  24
HETATM   24  O1  UNL     1     -49.756  -1.837 -17.436  1.00  0.00    -0.298 OA
BRANCH  24  25
HETATM   25  C2  UNL     1     -49.857  -1.983 -18.841  1.00  0.00     0.176 C
HETATM   26  C1  UNL     1     -50.154  -0.668 -19.521  1.00  0.00     0.034 C
ENDBRANCH  24  25
ENDBRANCH  22  24
ENDBRANCH  21  22
ENDBRANCH   1  21
BRANCH  12  27
HETATM   27  O8  UNL     1     -51.958   1.218 -15.296  1.00  0.00    -0.313 OA
BRANCH  27  28
HETATM   28  C20 UNL     1     -52.628   1.932 -16.271  1.00  0.00     0.255 C
HETATM   29  C21 UNL     1     -52.883   1.431 -17.641  1.00  0.00     0.126 C
HETATM   30  O9  UNL     1     -53.046   3.075 -15.976  1.00  0.00    -0.266 OA
ENDBRANCH  27  28
ENDBRANCH  12  27
BRANCH  11  31
HETATM   31  C16 UNL     1     -52.229   2.944 -12.513  1.00  0.00     0.057 C
HETATM   32  C17 UNL     1     -52.317   3.070 -11.000  1.00  0.00     0.045 C
HETATM   33  C18 UNL     1     -51.355   4.094 -12.960  1.00  0.00     0.045 C
BRANCH  31  34
HETATM   34  O7  UNL     1     -53.492   3.096 -13.034  1.00  0.00    -0.390 OA
ATOM     35  H7  UNL     1     -53.922   3.867 -12.683  1.00  0.00     0.210 HD
ENDBRANCH  31  34
ENDBRANCH  11  31
BRANCH   5  36
HETATM   36  O4  UNL     1     -48.825  -0.044 -15.311  1.00  0.00    -0.385 OA
ATOM     37  H4  UNL     1     -49.715   0.265 -15.429  1.00  0.00     0.211 HD
ENDBRANCH   5  36
BRANCH   7  38
HETATM   38  C11 UNL     1     -47.384   1.641 -13.912  1.00  0.00     0.137 C
HETATM   39  C12 UNL     1     -45.950   1.970 -13.661  1.00  0.00     0.091 C
HETATM   40  O5  UNL     1     -47.932   2.347 -14.757  1.00  0.00    -0.297 OA
ENDBRANCH   7  38
TORSDOF 14
ENDMDL