MODEL 4
REMARK VINA RESULT: -7.062644892      2.864      5.960
REMARK  12 active torsions:
REMARK  status: ('A' for Active; 'I' for Inactive)
REMARK    1  A    between atoms: C2_2  and  C3_3
REMARK    2  A    between atoms: C3_3  and  C4_4
REMARK    3  A    between atoms: C4_4  and  C5_5
REMARK    4  A    between atoms: C5_5  and  C6_6
REMARK    5  A    between atoms: C6_6  and  C7_7
REMARK    6  A    between atoms: C7_7  and  O2_9
REMARK    7  A    between atoms: O2_9  and  C8_10
REMARK    8  A    between atoms: C8_10  and  C9_11
REMARK    9  A    between atoms: C9_11  and  O4_13
REMARK   10  A    between atoms: O4_13  and  C10_14
REMARK   11  A    between atoms: C17_21  and  O5_22
REMARK   12  A    between atoms: C28_40  and  O10_41
ROOT
HETATM    1  C10 UNL     1     -50.030  -4.309 -20.854  1.00  0.00     0.190 C
HETATM    2  C11 UNL     1     -49.718  -5.729 -20.599  1.00  0.00    -0.056 C
HETATM    3  C12 UNL     1     -50.839  -6.665 -21.069  1.00  0.00     0.046 C
HETATM    4  C13 UNL     1     -48.696  -6.316 -20.079  1.00  0.00    -0.017 C
HETATM    5  C14 UNL     1     -47.423  -5.795 -19.528  1.00  0.00     0.007 C
HETATM    6  C15 UNL     1     -46.285  -6.702 -20.076  1.00  0.00     0.014 C
HETATM    7  C16 UNL     1     -47.426  -6.058 -18.033  1.00  0.00     0.040 C
HETATM    8  C17 UNL     1     -46.233  -5.491 -17.339  1.00  0.00     0.124 C
HETATM    9  C18 UNL     1     -45.988  -4.036 -17.561  1.00  0.00     0.086 C
HETATM   10  C19 UNL     1     -46.055  -3.229 -16.326  1.00  0.00     0.011 C
HETATM   11  N1  UNL     1     -45.081  -3.213 -15.514  1.00  0.00    -0.399 N
ATOM     12  H1  UNL     1     -44.267  -3.777 -15.757  1.00  0.00     0.158 HD
HETATM   13  C20 UNL     1     -45.018  -2.486 -14.305  1.00  0.00     0.145 C
HETATM   14  C21 UNL     1     -47.263  -2.432 -16.024  1.00  0.00     0.262 C
HETATM   15  O6  UNL     1     -48.352  -3.297 -16.042  1.00  0.00    -0.227 OA
HETATM   16  O7  UNL     1     -49.404  -2.886 -15.364  1.00  0.00    -0.158 OA
HETATM   17  C22 UNL     1     -50.664  -2.655 -15.893  1.00  0.00     0.299 C
HETATM   18  O8  UNL     1     -51.738  -3.111 -15.431  1.00  0.00    -0.262 OA
HETATM   19  C23 UNL     1     -50.751  -1.797 -17.103  1.00  0.00     0.154 C
HETATM   20  C24 UNL     1     -51.857  -0.791 -16.873  1.00  0.00     0.029 C
HETATM   21  C25 UNL     1     -51.017  -2.604 -18.330  1.00  0.00     0.146 C
HETATM   22  O9  UNL     1     -51.723  -3.578 -18.225  1.00  0.00    -0.297 OA
HETATM   23  C26 UNL     1     -50.439  -2.228 -19.650  1.00  0.00     0.084 C
HETATM   24  C27 UNL     1     -49.797  -0.839 -19.578  1.00  0.00     0.020 C
HETATM   25  C28 UNL     1     -49.369  -3.280 -20.030  1.00  0.00     0.162 C
ENDROOT
BRANCH   1  26
HETATM   26  O4  UNL     1     -49.730  -4.000 -22.229  1.00  0.00    -0.307 OA
BRANCH  26  27
HETATM   27  C9  UNL     1     -50.616  -4.133 -23.262  1.00  0.00     0.284 C
HETATM   28  O3  UNL     1     -50.196  -4.629 -24.342  1.00  0.00    -0.263 OA
BRANCH  27  29
HETATM   29  C8  UNL     1     -52.030  -3.710 -23.142  1.00  0.00     0.289 C
BRANCH  29  30
HETATM   30  O2  UNL     1     -52.542  -3.105 -24.287  1.00  0.00    -0.312 OA
BRANCH  30  31
HETATM   31  C7  UNL     1     -52.294  -1.770 -24.535  1.00  0.00     0.259 C
HETATM   32  O1  UNL     1     -52.028  -1.333 -25.696  1.00  0.00    -0.265 OA
BRANCH  31  33
HETATM   33  C6  UNL     1     -52.349  -0.827 -23.376  1.00  0.00     0.111 C
BRANCH  33  34
HETATM   34  C5  UNL     1     -53.104   0.426 -23.715  1.00  0.00     0.010 C
BRANCH  34  35
HETATM   35  C4  UNL     1     -53.904   0.848 -22.515  1.00  0.00     0.004 C
BRANCH  35  36
HETATM   36  C3  UNL     1     -53.076   1.504 -21.456  1.00  0.00     0.026 C
BRANCH  36  37
HETATM   37  C2  UNL     1     -53.177   0.806 -20.141  1.00  0.00    -0.037 C
HETATM   38  C1  UNL     1     -53.792  -0.363 -20.026  1.00  0.00     0.007 C
ENDBRANCH  36  37
ENDBRANCH  35  36
ENDBRANCH  34  35
ENDBRANCH  33  34
ENDBRANCH  31  33
ENDBRANCH  30  31
ENDBRANCH  29  30
ENDBRANCH  27  29
ENDBRANCH  26  27
ENDBRANCH   1  26
BRANCH  25  39
HETATM   39  O10 UNL     1     -48.448  -2.505 -20.792  1.00  0.00    -0.392 OA
ATOM     40  H10 UNL     1     -48.369  -2.828 -21.682  1.00  0.00     0.210 HD
ENDBRANCH  25  39
BRANCH   8  41
HETATM   41  O5  UNL     1     -45.100  -6.261 -17.691  1.00  0.00    -0.395 OA
ATOM     42  H5  UNL     1     -44.855  -6.794 -16.944  1.00  0.00     0.210 HD
ENDBRANCH   8  41
TORSDOF 12
ENDMDL