MODEL 4
REMARK VINA RESULT: -7.206284762      1.949      2.679
REMARK  12 active torsions:
REMARK  status: ('A' for Active; 'I' for Inactive)
REMARK    1  A    between atoms: O1_2  and  C2_3
REMARK    2  A    between atoms: C6_9  and  O2_10
REMARK    3  A    between atoms: C9_14  and  O4_15
REMARK    4  A    between atoms: C12_20  and  C13_21
REMARK    5  A    between atoms: C13_21  and  O5_22
REMARK    6  A    between atoms: O5_22  and  C14_23
REMARK    7  A    between atoms: C16_26  and  C17_27
REMARK    8  A    between atoms: C17_27  and  O7_28
REMARK    9  A    between atoms: O7_28  and  C18_29
REMARK   10  A    between atoms: C18_29  and  C19_31
REMARK   11  A    between atoms: C25_37  and  O9_38
REMARK   12  A    between atoms: C27_40  and  O10_41
ROOT
HETATM    1  C2  UNL     1     -51.810  -3.896 -24.282  1.00  0.00     0.106 A
HETATM    2  C3  UNL     1     -51.664  -5.139 -23.694  1.00  0.00     0.070 A
HETATM    3  C4  UNL     1     -51.223  -5.200 -22.398  1.00  0.00     0.051 A
HETATM    4  N1  UNL     1     -50.849  -6.467 -22.030  1.00  0.00    -0.351 N
ATOM      5  H1  UNL     1     -51.422  -7.269 -22.292  1.00  0.00     0.166 HD
HETATM    6  C5  UNL     1     -49.691  -6.647 -21.302  1.00  0.00     0.101 A
HETATM    7  C6  UNL     1     -48.781  -7.665 -21.465  1.00  0.00     0.150 A
HETATM    8  C8  UNL     1     -47.724  -7.443 -20.566  1.00  0.00     0.242 A
HETATM    9  O3  UNL     1     -46.767  -8.244 -20.529  1.00  0.00    -0.282 OA
HETATM   10  C9  UNL     1     -47.933  -6.295 -19.817  1.00  0.00     0.149 A
HETATM   11  C10 UNL     1     -49.117  -5.791 -20.243  1.00  0.00     0.106 A
HETATM   12  N2  UNL     1     -49.695  -4.687 -19.705  1.00  0.00    -0.316 N
HETATM   13  C11 UNL     1     -49.588  -4.264 -18.468  1.00  0.00     0.107 A
HETATM   14  C12 UNL     1     -50.534  -3.237 -18.314  1.00  0.00    -0.007 A
HETATM   15  C16 UNL     1     -51.232  -3.051 -19.523  1.00  0.00     0.004 A
HETATM   16  C23 UNL     1     -50.672  -3.950 -20.350  1.00  0.00     0.063 A
HETATM   17  C24 UNL     1     -50.946  -4.016 -21.720  1.00  0.00     0.055 A
HETATM   18  C25 UNL     1     -51.058  -2.776 -22.268  1.00  0.00     0.119 A
HETATM   19  C27 UNL     1     -51.507  -2.715 -23.574  1.00  0.00     0.136 A
ENDROOT
BRANCH  15  20
HETATM   20  C17 UNL     1     -52.342  -2.101 -19.644  1.00  0.00     0.220 C
BRANCH  20  21
HETATM   21  O7  UNL     1     -52.028  -0.804 -19.225  1.00  0.00    -0.316 OA
BRANCH  21  22
HETATM   22  C18 UNL     1     -52.553   0.404 -19.186  1.00  0.00     0.266 C
HETATM   23  O8  UNL     1     -52.417   1.076 -18.134  1.00  0.00    -0.264 OA
BRANCH  22  24
HETATM   24  C19 UNL     1     -53.305   0.998 -20.360  1.00  0.00     0.037 C
HETATM   25  C20 UNL     1     -52.438   1.339 -21.513  1.00  0.00     0.025 C
HETATM   26  C21 UNL     1     -53.912   2.295 -19.849  1.00  0.00     0.025 C
HETATM   27  C22 UNL     1     -54.480   0.106 -20.716  1.00  0.00     0.025 C
ENDBRANCH  22  24
ENDBRANCH  21  22
ENDBRANCH  20  21
ENDBRANCH  15  20
BRANCH  14  28
HETATM   28  C13 UNL     1     -50.857  -2.490 -17.097  1.00  0.00     0.219 C
BRANCH  28  29
HETATM   29  O5  UNL     1     -50.974  -3.349 -15.985  1.00  0.00    -0.317 OA
BRANCH  29  30
HETATM   30  C14 UNL     1     -52.082  -3.347 -15.161  1.00  0.00     0.255 C
HETATM   31  C15 UNL     1     -52.187  -2.304 -14.086  1.00  0.00     0.126 C
HETATM   32  O6  UNL     1     -53.025  -4.165 -15.237  1.00  0.00    -0.266 OA
ENDBRANCH  29  30
ENDBRANCH  28  29
ENDBRANCH  14  28
BRANCH  18  33
HETATM   33  O9  UNL     1     -50.703  -1.654 -21.585  1.00  0.00    -0.352 OA
HETATM   34  C26 UNL     1     -49.364  -1.143 -21.586  1.00  0.00     0.210 C
ENDBRANCH  18  33
BRANCH  10  35
HETATM   35  O4  UNL     1     -47.117  -5.756 -18.838  1.00  0.00    -0.355 OA
ATOM     36  H4  UNL     1     -46.534  -5.009 -18.907  1.00  0.00     0.218 HD
ENDBRANCH  10  35
BRANCH  19  37
HETATM   37  O10 UNL     1     -51.656  -1.489 -24.153  1.00  0.00    -0.351 OA
HETATM   38  C28 UNL     1     -52.772  -0.734 -24.437  1.00  0.00     0.210 C
ENDBRANCH  19  37
BRANCH   7  39
HETATM   39  O2  UNL     1     -48.932  -8.676 -22.362  1.00  0.00    -0.350 OA
HETATM   40  C7  UNL     1     -48.473  -8.945 -23.611  1.00  0.00     0.210 C
ENDBRANCH   7  39
BRANCH   1  41
HETATM   41  O1  UNL     1     -52.259  -3.836 -25.604  1.00  0.00    -0.353 OA
HETATM   42  C1  UNL     1     -51.411  -3.986 -26.716  1.00  0.00     0.210 C
ENDBRANCH   1  41
TORSDOF 12
ENDMDL