MODEL 2
REMARK VINA RESULT: -7.203049654      2.868      5.527
REMARK  13 active torsions:
REMARK  status: ('A' for Active; 'I' for Inactive)
REMARK    1  A    between atoms: C2_2  and  C3_3
REMARK    2  A    between atoms: C3_3  and  C4_4
REMARK    3  A    between atoms: C4_4  and  C5_5
REMARK    4  A    between atoms: C5_5  and  O2_7
REMARK    5  A    between atoms: O2_7  and  C6_8
REMARK    6  A    between atoms: C7_9  and  O3_10
REMARK    7  A    between atoms: C13_17  and  N1_18
REMARK    8  A    between atoms: N2_20  and  C14_22
REMARK    9  A    between atoms: C14_22  and  O5_27
REMARK   10  A    between atoms: N3_23  and  O4_25
REMARK   11  A    between atoms: C19_34  and  C21_36
REMARK   12  A    between atoms: C21_36  and  C22_37
REMARK   13  A    between atoms: C25_40  and  O8_41
ROOT
HETATM    1  C6  UNL     1     -51.548  -2.572 -22.000  1.00  0.00     0.222 C
HETATM    2  C7  UNL     1     -51.874  -2.011 -20.671  1.00  0.00     0.160 C
HETATM    3  C8  UNL     1     -50.921  -2.149 -19.571  1.00  0.00     0.053 C
HETATM    4  C9  UNL     1     -49.730  -1.245 -19.575  1.00  0.00    -0.009 C
HETATM    5  C10 UNL     1     -49.581  -0.248 -20.634  1.00  0.00     0.010 C
HETATM    6  C11 UNL     1     -48.534  -2.206 -19.665  1.00  0.00     0.007 C
HETATM    7  C12 UNL     1     -49.069  -3.266 -18.712  1.00  0.00     0.036 C
HETATM    8  C13 UNL     1     -50.490  -3.536 -19.185  1.00  0.00     0.081 C
HETATM    9  C16 UNL     1     -50.757  -4.680 -19.990  1.00  0.00     0.190 C
HETATM   10  O6  UNL     1     -51.969  -4.476 -20.716  1.00  0.00    -0.342 OA
HETATM   11  C17 UNL     1     -51.566  -4.082 -22.005  1.00  0.00     0.191 C
HETATM   12  C18 UNL     1     -52.469  -4.635 -23.064  1.00  0.00     0.082 C
HETATM   13  O7  UNL     1     -50.240  -4.474 -22.168  1.00  0.00    -0.339 OA
HETATM   14  C19 UNL     1     -49.995  -5.281 -21.074  1.00  0.00     0.095 C
HETATM   15  C20 UNL     1     -50.795  -6.573 -21.430  1.00  0.00     0.049 C
ENDROOT
BRANCH  14  16
HETATM   16  C21 UNL     1     -48.630  -5.761 -20.921  1.00  0.00     0.099 C
BRANCH  16  17
HETATM   17  C22 UNL     1     -48.609  -7.042 -20.153  1.00  0.00     0.029 A
HETATM   18  C23 UNL     1     -48.494  -8.285 -20.682  1.00  0.00     0.031 A
HETATM   19  C24 UNL     1     -48.475  -9.377 -19.843  1.00  0.00     0.059 A
HETATM   20  C25 UNL     1     -48.575  -9.146 -18.488  1.00  0.00     0.156 A
HETATM   21  N4  UNL     1     -48.687  -7.922 -17.992  1.00  0.00    -0.280 N
HETATM   22  N5  UNL     1     -48.704  -6.891 -18.799  1.00  0.00    -0.303 N
ATOM     23  H4  UNL     1     -48.760  -7.783 -16.984  1.00  0.00     0.189 HD
ATOM     24  H5  UNL     1     -48.790  -5.953 -18.408  1.00  0.00     0.186 HD
BRANCH  20  25
HETATM   25  O8  UNL     1     -48.558 -10.226 -17.630  1.00  0.00    -0.340 OA
HETATM   26  C26 UNL     1     -47.760 -11.335 -17.890  1.00  0.00     0.211 C
ENDBRANCH  20  25
ENDBRANCH  16  17
ENDBRANCH  14  16
BRANCH   8  27
HETATM   27  N1  UNL     1     -51.160  -3.804 -17.865  1.00  0.00    -0.320 N
HETATM   28  N2  UNL     1     -50.600  -3.369 -16.812  1.00  0.00    -0.267 N
ATOM     29  H2  UNL     1     -49.721  -2.856 -16.886  1.00  0.00     0.190 HD
ATOM     30  H1  UNL     1     -52.039  -4.320 -17.817  1.00  0.00     0.181 HD
BRANCH  28  31
HETATM   31  C14 UNL     1     -51.173  -3.585 -15.540  1.00  0.00     0.258 C
HETATM   32  N3  UNL     1     -50.427  -3.663 -14.486  1.00  0.00    -0.231 N
ATOM     33  H3  UNL     1     -50.873  -3.819 -13.582  1.00  0.00     0.198 HD
BRANCH  32  34
HETATM   34  O4  UNL     1     -49.063  -3.545 -14.535  1.00  0.00    -0.287 OA
ATOM     35  H4  UNL     1     -48.490  -4.283 -14.704  1.00  0.00     0.244 HD
ENDBRANCH  32  34
BRANCH  31  36
HETATM   36  O5  UNL     1     -52.548  -3.724 -15.341  1.00  0.00    -0.325 OA
HETATM   37  C15 UNL     1     -53.087  -3.950 -14.051  1.00  0.00     0.213 C
ENDBRANCH  31  36
ENDBRANCH  28  31
ENDBRANCH   8  27
BRANCH   1  38
HETATM   38  O2  UNL     1     -52.562  -2.106 -22.875  1.00  0.00    -0.308 OA
BRANCH  38  39
HETATM   39  C5  UNL     1     -52.327  -1.212 -23.917  1.00  0.00     0.259 C
HETATM   40  O1  UNL     1     -51.719  -1.646 -24.906  1.00  0.00    -0.265 OA
BRANCH  39  41
HETATM   41  C4  UNL     1     -52.768   0.194 -23.879  1.00  0.00     0.111 C
BRANCH  41  42
HETATM   42  C3  UNL     1     -53.621   0.422 -22.655  1.00  0.00     0.009 C
BRANCH  42  43
HETATM   43  C2  UNL     1     -52.968   1.334 -21.660  1.00  0.00    -0.004 C
HETATM   44  C1  UNL     1     -54.062   1.977 -20.826  1.00  0.00     0.005 C
ENDBRANCH  42  43
ENDBRANCH  41  42
ENDBRANCH  39  41
ENDBRANCH  38  39
ENDBRANCH   1  38
BRANCH   2  45
HETATM   45  O3  UNL     1     -53.140  -2.475 -20.289  1.00  0.00    -0.392 OA
ATOM     46  H3  UNL     1     -53.028  -3.187 -19.670  1.00  0.00     0.210 HD
ENDBRANCH   2  45
TORSDOF 13
ENDMDL