MODEL 5
REMARK VINA RESULT: -10.355181262      6.716     13.305
REMARK  4 active torsions:
REMARK  status: ('A' for Active; 'I' for Inactive)
REMARK       I    between atoms: C1_2  and  N1_3
REMARK       I    between atoms: C1_2  and  N2_10
REMARK    1  A    between atoms: N1_3  and  C2_5
REMARK    2  A    between atoms: N2_10  and  C7_12
REMARK    3  A    between atoms: C13_20  and  O3_21
REMARK    4  A    between atoms: C22_34  and  C23_35
ROOT
HETATM    1  C7  UNL     1      79.110 -42.393 -45.598  1.00  0.00     0.116 C
HETATM    2  C8  UNL     1      78.465 -41.036 -45.679  1.00  0.00     0.031 C
HETATM    3  C9  UNL     1      79.430 -39.896 -45.600  1.00  0.00     0.044 C
HETATM    4  C10 UNL     1      80.437 -39.960 -46.736  1.00  0.00     0.214 C
HETATM    5  O2  UNL     1      81.638 -40.512 -46.414  1.00  0.00    -0.369 OA
HETATM    6  C11 UNL     1      81.891 -41.752 -46.939  1.00  0.00     0.146 C
HETATM    7  C12 UNL     1      81.600 -42.776 -45.870  1.00  0.00     0.118 C
HETATM    8 BR1  UNL     1      81.233 -44.515 -46.635  1.00  0.00    -0.086 Br
HETATM    9  C13 UNL     1      80.440 -42.417 -44.976  1.00  0.00     0.157 C
HETATM   10  C14 UNL     1      83.294 -41.951 -47.461  1.00  0.00     0.045 C
HETATM   11  C15 UNL     1      84.199 -42.635 -46.478  1.00  0.00     0.010 C
HETATM   12  C16 UNL     1      85.597 -42.794 -47.024  1.00  0.00     0.001 C
HETATM   13  C17 UNL     1      86.214 -41.514 -47.461  1.00  0.00     0.002 C
HETATM   14  C18 UNL     1      85.292 -40.895 -48.483  1.00  0.00     0.032 C
HETATM   15  C19 UNL     1      83.896 -40.688 -48.003  1.00  0.00     0.128 C
HETATM   16  O4  UNL     1      83.161 -40.276 -49.144  1.00  0.00    -0.380 OA
HETATM   17  C20 UNL     1      83.379 -38.941 -49.403  1.00  0.00     0.212 C
HETATM   18  C21 UNL     1      82.474 -38.408 -50.423  1.00  0.00     0.088 C
HETATM   19  N3  UNL     1      81.079 -38.480 -50.313  1.00  0.00    -0.357 N
ATOM     20  H3  UNL     1      80.662 -39.154 -50.955  1.00  0.00     0.166 HD
HETATM   21  C22 UNL     1      80.121 -37.816 -49.501  1.00  0.00     0.087 C
HETATM   22  N4  UNL     1      80.101 -37.940 -48.253  1.00  0.00    -0.314 N
ATOM     23  H4  UNL     1      79.332 -37.372 -47.898  1.00  0.00     0.170 HD
HETATM   24  C29 UNL     1      80.700 -38.534 -47.186  1.00  0.00     0.252 C
HETATM   25  O5  UNL     1      81.547 -37.934 -46.459  1.00  0.00    -0.270 OA
ENDROOT
BRANCH   1  26
HETATM   26  N2  UNL     1      78.186 -43.307 -44.909  1.00  0.00    -0.336 N
HETATM   27  C1  UNL     1      77.674 -44.486 -45.442  1.00  0.00     0.316 C
HETATM   28  O1  UNL     1      77.983 -44.846 -46.599  1.00  0.00    -0.247 OA
HETATM   29  N1  UNL     1      76.795 -45.297 -44.684  1.00  0.00    -0.339 N
ATOM     30  H1  UNL     1      76.547 -44.999 -43.741  1.00  0.00     0.164 HD
ATOM     31  H2  UNL     1      77.897 -43.057 -43.963  1.00  0.00     0.164 HD
BRANCH  29  32
HETATM   32  C2  UNL     1      76.237 -46.528 -45.191  1.00  0.00     0.086 C
HETATM   33  C3  UNL     1      75.802 -47.453 -44.075  1.00  0.00     0.025 C
HETATM   34  C4  UNL     1      74.310 -47.303 -43.937  1.00  0.00     0.002 C
HETATM   35  C5  UNL     1      73.879 -46.258 -44.923  1.00  0.00     0.002 C
HETATM   36  C6  UNL     1      74.976 -46.299 -45.970  1.00  0.00     0.025 C
ENDBRANCH  29  32
ENDBRANCH   1  26
BRANCH   9  37
HETATM   37  O3  UNL     1      80.440 -43.430 -43.980  1.00  0.00    -0.392 OA
ATOM     38  H3  UNL     1      80.874 -44.195 -44.340  1.00  0.00     0.210 HD
ENDBRANCH   9  37
BRANCH  21  39
HETATM   39  C23 UNL     1      79.052 -36.955 -50.204  1.00  0.00     0.053 C
HETATM   40  C24 UNL     1      79.113 -35.542 -49.641  1.00  0.00     0.012 C
HETATM   41  C25 UNL     1      77.969 -34.736 -50.140  1.00  0.00     0.001 C
HETATM   42  C26 UNL     1      77.860 -34.730 -51.648  1.00  0.00     0.000 C
HETATM   43  C27 UNL     1      78.139 -36.067 -52.257  1.00  0.00     0.001 C
HETATM   44  C28 UNL     1      79.285 -36.804 -51.666  1.00  0.00     0.012 C
ENDBRANCH  21  39
TORSDOF 4
ENDMDL