MODEL 1
REMARK VINA RESULT: -9.084487436      0.000      0.000
REMARK  5 active torsions:
REMARK  status: ('A' for Active; 'I' for Inactive)
REMARK    1  A    between atoms: C2_2  and  C3_3
REMARK    2  A    between atoms: C3_3  and  O1_4
REMARK    3  A    between atoms: C4_6  and  O2_7
REMARK    4  A    between atoms: C24_30  and  N1_31
REMARK       I    between atoms: N1_31  and  C25_33
REMARK    5  A    between atoms: C25_33  and  C26_35
ROOT
HETATM    1  C1  UNL     1      86.357 -39.460 -46.445  1.00  0.00     0.020 C
HETATM    2  C2  UNL     1      85.075 -38.796 -47.023  1.00  0.00     0.007 C
HETATM    3  C4  UNL     1      85.560 -38.115 -48.276  1.00  0.00     0.128 C
HETATM    4  C5  UNL     1      84.586 -38.080 -49.410  1.00  0.00     0.033 C
HETATM    5  C6  UNL     1      83.983 -39.466 -49.525  1.00  0.00     0.012 C
HETATM    6  C7  UNL     1      83.132 -39.760 -48.338  1.00  0.00    -0.035 C
HETATM    7  C8  UNL     1      82.114 -38.659 -48.104  1.00  0.00     0.016 C
HETATM    8  C9  UNL     1      84.066 -39.834 -47.159  1.00  0.00     0.007 C
HETATM    9  C10 UNL     1      83.220 -40.106 -45.967  1.00  0.00     0.007 C
HETATM   10  C11 UNL     1      82.248 -41.206 -46.050  1.00  0.00     0.011 C
HETATM   11  C12 UNL     1      81.729 -41.648 -47.371  1.00  0.00    -0.028 C
HETATM   12  C13 UNL     1      80.239 -41.238 -47.400  1.00  0.00     0.016 C
HETATM   13  C14 UNL     1      82.364 -41.058 -48.569  1.00  0.00     0.004 C
HETATM   14  C15 UNL     1      83.047 -42.024 -49.498  1.00  0.00     0.022 C
HETATM   15  C16 UNL     1      83.759 -43.164 -48.862  1.00  0.00     0.063 C
HETATM   16 BR1  UNL     1      84.178 -44.417 -50.323  1.00  0.00    -0.091 Br
HETATM   17  C17 UNL     1      82.952 -43.844 -47.804  1.00  0.00     0.013 C
HETATM   18  C18 UNL     1      83.890 -44.197 -46.679  1.00  0.00     0.007 C
HETATM   19  C19 UNL     1      83.298 -45.114 -45.657  1.00  0.00     0.012 C
HETATM   20  C20 UNL     1      81.808 -45.137 -45.856  1.00  0.00     0.046 A
HETATM   21  C21 UNL     1      81.221 -43.808 -46.173  1.00  0.00    -0.060 A
HETATM   22  C22 UNL     1      80.389 -43.489 -45.206  1.00  0.00     0.056 A
HETATM   23  C23 UNL     1      80.324 -44.518 -44.178  1.00  0.00     0.172 A
HETATM   24  O3  UNL     1      79.632 -44.458 -43.102  1.00  0.00    -0.291 OA
HETATM   25  C24 UNL     1      81.189 -45.631 -44.592  1.00  0.00     0.166 A
HETATM   26  C31 UNL     1      81.674 -43.181 -47.440  1.00  0.00    -0.008 C
HETATM   27  C32 UNL     1      80.638 -43.627 -48.477  1.00  0.00     0.021 C
ENDROOT
BRANCH  25  28
HETATM   28  N1  UNL     1      80.368 -46.791 -44.867  1.00  0.00    -0.348 N
HETATM   29  C25 UNL     1      80.313 -47.913 -43.998  1.00  0.00     0.222 C
HETATM   30  O4  UNL     1      80.990 -47.936 -42.940  1.00  0.00    -0.273 OA
ATOM     31  H1  UNL     1      79.807 -46.803 -45.719  1.00  0.00     0.163 HD
BRANCH  29  32
HETATM   32  C26 UNL     1      79.459 -49.071 -44.323  1.00  0.00     0.081 C
HETATM   33  C27 UNL     1      79.622 -49.489 -45.777  1.00  0.00     0.041 C
HETATM   34  C28 UNL     1      78.737 -50.698 -46.019  1.00  0.00     0.233 C
HETATM   35  N2  UNL     1      77.341 -50.383 -45.770  1.00  0.00    -0.075 N
HETATM   36  C29 UNL     1      77.218 -50.042 -44.362  1.00  0.00     0.233 C
ATOM     37  H22 UNL     1      76.980 -49.657 -46.390  1.00  0.00     0.277 HD
ATOM     38  H21 UNL     1      76.706 -51.128 -46.057  1.00  0.00     0.277 HD
HETATM   39  C30 UNL     1      77.977 -48.734 -44.156  1.00  0.00     0.041 C
ENDBRANCH  29  32
ENDBRANCH  25  28
BRANCH   2  40
HETATM   40  C3  UNL     1      84.847 -37.679 -46.029  1.00  0.00     0.176 C
BRANCH  40  41
HETATM   41  O1  UNL     1      85.971 -37.220 -45.380  1.00  0.00    -0.400 OA
ATOM     42  H1  UNL     1      85.890 -36.366 -44.971  1.00  0.00     0.209 HD
ENDBRANCH  40  41
ENDBRANCH   2  40
BRANCH   3  43
HETATM   43  O2  UNL     1      85.957 -36.791 -48.062  1.00  0.00    -0.395 OA
ATOM     44  H2  UNL     1      85.417 -36.339 -47.426  1.00  0.00     0.210 HD
ENDBRANCH   3  43
TORSDOF 5
ENDMDL