MODEL 2
REMARK VINA RESULT: -6.984915952      3.002      7.641
REMARK  6 active torsions:
REMARK  status: ('A' for Active; 'I' for Inactive)
REMARK    1  A    between atoms: C3_3  and  O1_5
REMARK    2  A    between atoms: C3_3  and  C5_7
REMARK    3  A    between atoms: C19_24  and  O4_25
REMARK    4  A    between atoms: N1_33  and  C26_34
REMARK    5  A    between atoms: C26_34  and  C27_35
REMARK    6  A    between atoms: C30_41  and  O5_42
ROOT
HETATM    1  C1  UNL     1      80.384 -47.507 -45.085  1.00  0.00     0.015 C
HETATM    2  C2  UNL     1      80.191 -46.331 -45.158  1.00  0.00    -0.075 C
HETATM    3  C3  UNL     1      79.928 -44.922 -45.294  1.00  0.00     0.142 C
HETATM    4  C4  UNL     1      78.806 -44.461 -44.392  1.00  0.00     0.065 C
ENDROOT
BRANCH   3   5
HETATM    5  O1  UNL     1      79.346 -44.763 -46.590  1.00  0.00    -0.374 OA
ATOM      6  H1  UNL     1      79.440 -43.841 -46.802  1.00  0.00     0.212 HD
ENDBRANCH   3   5
BRANCH   3   7
HETATM    7  C5  UNL     1      81.132 -43.997 -45.243  1.00  0.00    -0.011 C
HETATM    8  C6  UNL     1      82.245 -44.727 -45.881  1.00  0.00     0.005 C
HETATM    9  C7  UNL     1      83.210 -44.916 -46.659  1.00  0.00    -0.018 C
HETATM   10  C8  UNL     1      84.021 -44.247 -47.734  1.00  0.00     0.035 C
HETATM   11  C9  UNL     1      85.456 -44.151 -47.258  1.00  0.00     0.019 C
HETATM   12  C10 UNL     1      83.504 -42.976 -48.282  1.00  0.00    -0.046 C
HETATM   13  C11 UNL     1      82.681 -43.088 -49.569  1.00  0.00     0.037 C
HETATM   14  C25 UNL     1      84.432 -41.797 -48.340  1.00  0.00     0.036 C
HETATM   15  C12 UNL     1      81.237 -42.580 -49.293  1.00  0.00     0.007 C
HETATM   16  C13 UNL     1      81.249 -41.100 -49.011  1.00  0.00     0.034 C
HETATM   17  C14 UNL     1      81.709 -40.554 -47.778  1.00  0.00     0.145 C
HETATM   18  O2  UNL     1      80.619 -40.559 -46.819  1.00  0.00    -0.314 OA
HETATM   19  C17 UNL     1      82.563 -39.303 -47.852  1.00  0.00     0.110 C
HETATM   20  C15 UNL     1      80.204 -41.725 -46.123  1.00  0.00     0.278 C
HETATM   21  O3  UNL     1      79.001 -41.985 -46.410  1.00  0.00    -0.264 OA
HETATM   22  C16 UNL     1      80.935 -42.564 -45.205  1.00  0.00     0.190 C
HETATM   23 BR1  UNL     1      80.274 -41.981 -43.403  1.00  0.00    -0.075 Br
HETATM   24  C18 UNL     1      82.443 -38.492 -49.092  1.00  0.00     0.048 C
HETATM   25  C31 UNL     1      83.984 -39.507 -47.439  1.00  0.00     0.231 C
HETATM   26  C19 UNL     1      83.627 -38.234 -49.937  1.00  0.00     0.123 C
HETATM   27  C20 UNL     1      84.105 -39.227 -50.913  1.00  0.00     0.065 C
HETATM   28  C21 UNL     1      85.544 -39.627 -50.782  1.00  0.00    -0.083 C
HETATM   29  C22 UNL     1      86.436 -38.880 -51.416  1.00  0.00     0.014 C
HETATM   30  C23 UNL     1      86.019 -40.776 -50.029  1.00  0.00     0.062 C
HETATM   31  C24 UNL     1      85.047 -41.761 -49.559  1.00  0.00     0.007 C
HETATM   32  N1  UNL     1      84.679 -40.803 -47.338  1.00  0.00    -0.316 N
HETATM   33  O6  UNL     1      84.626 -38.462 -47.155  1.00  0.00    -0.273 OA
BRANCH  26  34
HETATM   34  O4  UNL     1      83.237 -37.104 -50.741  1.00  0.00    -0.395 OA
ATOM     35  H4  UNL     1      84.020 -36.897 -51.238  1.00  0.00     0.210 HD
ENDBRANCH  26  34
BRANCH  32  36
HETATM   36  C26 UNL     1      85.601 -40.813 -46.199  1.00  0.00     0.168 C
BRANCH  36  37
HETATM   37  C27 UNL     1      87.039 -40.944 -46.463  1.00  0.00     0.232 C
HETATM   38  N2  UNL     1      87.760 -41.817 -45.600  1.00  0.00    -0.067 N
HETATM   39  C28 UNL     1      89.148 -41.483 -45.902  1.00  0.00     0.235 C
ATOM     40  H22 UNL     1      87.508 -41.750 -44.614  1.00  0.00     0.277 HD
ATOM     41  H21 UNL     1      87.526 -42.805 -45.697  1.00  0.00     0.277 HD
HETATM   42  C29 UNL     1      89.143 -39.984 -46.006  1.00  0.00     0.061 C
HETATM   43  C30 UNL     1      87.728 -39.606 -46.285  1.00  0.00     0.152 C
BRANCH  43  44
HETATM   44  O5  UNL     1      87.560 -38.893 -47.456  1.00  0.00    -0.393 OA
ATOM     45  H5  UNL     1      88.148 -38.147 -47.423  1.00  0.00     0.210 HD
ENDBRANCH  43  44
ENDBRANCH  36  37
ENDBRANCH  32  36
ENDBRANCH   3   7
TORSDOF 6
ENDMDL