MODEL 4
REMARK VINA RESULT: -8.148389740      3.112      5.636
REMARK  5 active torsions:
REMARK  status: ('A' for Active; 'I' for Inactive)
REMARK    1  A    between atoms: C2_2  and  C3_4
REMARK    2  A    between atoms: C5_6  and  O2_7
REMARK    3  A    between atoms: C19_23  and  O4_24
REMARK    4  A    between atoms: C32_40  and  C33_41
REMARK    5  A    between atoms: C33_41  and  N1_42
REMARK       I    between atoms: N1_42  and  C34_43
ROOT
HETATM    1  C3  UNL     1      82.455 -39.107 -47.141  1.00  0.00     0.062 C
HETATM    2  C4  UNL     1      81.493 -39.926 -46.436  1.00  0.00     0.059 C
HETATM    3  C5  UNL     1      81.286 -41.396 -46.788  1.00  0.00     0.074 C
HETATM    4  C6  UNL     1      80.449 -42.067 -45.758  1.00  0.00    -0.016 C
HETATM    5  C7  UNL     1      78.922 -41.859 -46.005  1.00  0.00     0.018 C
HETATM    6  C8  UNL     1      80.521 -41.606 -44.333  1.00  0.00     0.018 C
HETATM    7  C9  UNL     1      80.579 -43.564 -45.701  1.00  0.00     0.012 C
HETATM    8  C10 UNL     1      81.966 -44.063 -45.760  1.00  0.00     0.002 C
HETATM    9  C11 UNL     1      83.009 -43.108 -46.299  1.00  0.00     0.013 C
HETATM   10  C12 UNL     1      82.468 -42.168 -47.326  1.00  0.00    -0.000 C
HETATM   11  C13 UNL     1      82.032 -43.206 -48.390  1.00  0.00     0.019 C
HETATM   12  C14 UNL     1      83.391 -41.316 -48.095  1.00  0.00     0.006 C
HETATM   13  C15 UNL     1      82.878 -41.189 -49.521  1.00  0.00     0.022 C
HETATM   14  C16 UNL     1      84.848 -41.733 -48.203  1.00  0.00     0.010 C
HETATM   15  C17 UNL     1      85.602 -41.538 -46.968  1.00  0.00     0.178 C
HETATM   16  O3  UNL     1      86.427 -42.346 -46.549  1.00  0.00    -0.288 OA
HETATM   17  C18 UNL     1      85.448 -40.321 -46.066  1.00  0.00     0.069 C
HETATM   18  C19 UNL     1      84.159 -39.749 -46.206  1.00  0.00     0.115 C
HETATM   19  C20 UNL     1      83.524 -40.010 -47.514  1.00  0.00     0.058 C
HETATM   20  C21 UNL     1      83.660 -38.410 -46.531  1.00  0.00     0.147 C
HETATM   21 CL1  UNL     1      83.161 -37.346 -45.136  1.00  0.00    -0.106 Cl
HETATM   22  C22 UNL     1      84.467 -37.543 -47.359  1.00  0.00     0.155 C
HETATM   23  O5  UNL     1      83.848 -36.708 -48.051  1.00  0.00    -0.296 OA
HETATM   24  C23 UNL     1      85.922 -37.409 -47.579  1.00  0.00     0.086 C
HETATM   25  C24 UNL     1      86.521 -37.773 -48.869  1.00  0.00     0.001 C
HETATM   26  C25 UNL     1      87.620 -36.823 -49.274  1.00  0.00    -0.014 C
HETATM   27  C26 UNL     1      87.531 -36.407 -50.711  1.00  0.00     0.010 C
HETATM   28  C27 UNL     1      88.852 -37.671 -49.039  1.00  0.00     0.005 C
HETATM   29  C28 UNL     1      88.382 -38.890 -49.836  1.00  0.00     0.006 C
HETATM   30  C29 UNL     1      87.069 -39.193 -49.051  1.00  0.00    -0.002 C
HETATM   31  C30 UNL     1      86.180 -40.102 -49.794  1.00  0.00     0.022 C
HETATM   32  C31 UNL     1      86.832 -40.354 -51.178  1.00  0.00     0.015 C
HETATM   33  C32 UNL     1      85.635 -41.378 -49.378  1.00  0.00    -0.014 C
ENDROOT
BRANCH  33  34
HETATM   34  C33 UNL     1      86.643 -42.557 -49.602  1.00  0.00     0.196 C
BRANCH  34  35
HETATM   35  N1  UNL     1      86.136 -43.825 -49.500  1.00  0.00    -0.367 NA
HETATM   36  C34 UNL     1      85.627 -45.096 -49.398  1.00  0.00     0.405 C
HETATM   37  N2  UNL     1      85.589 -45.755 -48.086  1.00  0.00    -0.025 NA
HETATM   38  O6  UNL     1      85.147 -45.873 -50.292  1.00  0.00    -0.234 OA
ENDBRANCH  34  35
ENDBRANCH  33  34
BRANCH   3  39
HETATM   39  O2  UNL     1      80.352 -41.499 -47.887  1.00  0.00    -0.388 OA
ATOM     40  H2  UNL     1      80.696 -41.029 -48.638  1.00  0.00     0.210 HD
ENDBRANCH   3  39
BRANCH   1  41
HETATM   41  C2  UNL     1      81.812 -38.198 -48.087  1.00  0.00     0.134 C
HETATM   42  C1  UNL     1      80.731 -37.304 -47.504  1.00  0.00     0.091 C
HETATM   43  O1  UNL     1      81.958 -38.008 -49.253  1.00  0.00    -0.297 OA
ENDBRANCH   1  41
BRANCH  18  44
HETATM   44  O4  UNL     1      83.564 -39.885 -44.983  1.00  0.00    -0.383 OA
ATOM     45  H4  UNL     1      84.228 -39.639 -44.348  1.00  0.00     0.211 HD
ENDBRANCH  18  44
TORSDOF 5
ENDMDL