MODEL 1
REMARK VINA RESULT: -8.681938447      0.000      0.000
REMARK  4 active torsions:
REMARK  status: ('A' for Active; 'I' for Inactive)
REMARK    1  A    between atoms: C20_23  and  C21_24
REMARK    2  A    between atoms: C21_24  and  C22_25
REMARK    3  A    between atoms: C30_39  and  C31_40
REMARK    4  A    between atoms: C32_44  and  O5_45
ROOT
HETATM    1  C1  UNL     1      83.413 -40.214 -45.119  1.00  0.00     0.010 C
HETATM    2  C2  UNL     1      83.190 -41.189 -46.212  1.00  0.00    -0.010 C
HETATM    3  C3  UNL     1      81.944 -40.989 -47.017  1.00  0.00     0.017 C
HETATM    4  C4  UNL     1      81.190 -39.760 -46.783  1.00  0.00     0.061 C
HETATM    5  C5  UNL     1      80.848 -39.160 -48.154  1.00  0.00     0.013 C
HETATM    6  C6  UNL     1      81.948 -39.060 -49.114  1.00  0.00     0.001 C
HETATM    7  C7  UNL     1      83.285 -38.615 -48.656  1.00  0.00     0.000 C
HETATM    8  C8  UNL     1      84.397 -39.647 -48.914  1.00  0.00     0.001 C
HETATM    9  C9  UNL     1      84.998 -40.206 -47.690  1.00  0.00     0.009 C
HETATM   10  C10 UNL     1      84.432 -41.420 -47.078  1.00  0.00     0.011 C
HETATM   11  C11 UNL     1      84.181 -42.549 -47.978  1.00  0.00    -0.026 C
HETATM   12  C12 UNL     1      84.665 -43.768 -47.824  1.00  0.00    -0.030 C
HETATM   13  C13 UNL     1      85.545 -44.248 -46.734  1.00  0.00     0.027 C
HETATM   14  C14 UNL     1      84.814 -44.889 -45.590  1.00  0.00     0.004 C
HETATM   15  C15 UNL     1      83.948 -46.075 -46.037  1.00  0.00     0.001 C
HETATM   16  C16 UNL     1      83.278 -46.596 -44.816  1.00  0.00     0.008 C
HETATM   17  C17 UNL     1      81.953 -47.328 -45.077  1.00  0.00     0.033 C
HETATM   18  C18 UNL     1      80.962 -46.875 -44.122  1.00  0.00     0.233 C
HETATM   19  N1  UNL     1      80.103 -47.749 -43.430  1.00  0.00    -0.341 N
ATOM     20  H1  UNL     1      79.503 -47.225 -42.793  1.00  0.00     0.163 HD
HETATM   21  C19 UNL     1      79.816 -49.126 -43.347  1.00  0.00     0.223 C
HETATM   22  O1  UNL     1      78.781 -49.472 -42.763  1.00  0.00    -0.273 OA
HETATM   23  C20 UNL     1      80.704 -50.186 -43.930  1.00  0.00     0.079 C
HETATM   24  C25 UNL     1      81.091 -49.694 -45.280  1.00  0.00     0.023 C
HETATM   25  C26 UNL     1      82.272 -48.755 -45.257  1.00  0.00    -0.040 C
HETATM   26  C27 UNL     1      82.917 -48.919 -46.645  1.00  0.00     0.015 C
HETATM   27  C28 UNL     1      83.278 -49.326 -44.289  1.00  0.00     0.015 C
HETATM   28  S1  UNL     1      79.872 -45.633 -44.880  1.00  0.00     0.255 S
HETATM   29  O2  UNL     1      78.539 -45.619 -44.199  1.00  0.00    -0.203 OA
HETATM   30  O3  UNL     1      79.602 -46.059 -46.318  1.00  0.00    -0.203 OA
HETATM   31  N2  UNL     1      80.617 -44.082 -44.841  1.00  0.00    -0.247 N
ATOM     32  H2  UNL     1      81.565 -44.066 -45.217  1.00  0.00     0.182 HD
HETATM   33  C29 UNL     1      80.169 -42.862 -44.397  1.00  0.00     0.282 C
HETATM   34  O4  UNL     1      80.819 -42.327 -43.408  1.00  0.00    -0.265 OA
HETATM   35  C30 UNL     1      79.058 -41.979 -44.816  1.00  0.00     0.116 C
HETATM   36  N4  UNL     1      79.494 -40.591 -44.939  1.00  0.00    -0.335 N
ATOM     37  H4  UNL     1      79.444 -40.085 -44.054  1.00  0.00     0.168 HD
HETATM   38  C32 UNL     1      79.958 -39.805 -45.969  1.00  0.00     0.120 C
ENDROOT
BRANCH  23  39
HETATM   39  C21 UNL     1      80.045 -51.537 -43.926  1.00  0.00     0.018 C
BRANCH  39  40
HETATM   40  C22 UNL     1      80.283 -52.331 -45.163  1.00  0.00    -0.014 A
HETATM   41  C23 UNL     1      79.005 -52.768 -45.870  1.00  0.00     0.005 A
HETATM   42  C24 UNL     1      79.800 -53.774 -45.097  1.00  0.00     0.005 A
ENDBRANCH  39  40
ENDBRANCH  23  39
BRANCH  35  43
HETATM   43  C31 UNL     1      78.093 -42.456 -45.805  1.00  0.00     0.135 C
HETATM   44  N3  UNL     1      78.456 -43.183 -46.935  1.00  0.00    -0.113 NA
ENDBRANCH  35  43
BRANCH  38  45
HETATM   45  O5  UNL     1      79.129 -38.861 -46.332  1.00  0.00    -0.349 OA
ATOM     46  H5  UNL     1      79.432 -38.013 -46.031  1.00  0.00     0.219 HD
ENDBRANCH  38  45
TORSDOF 4
ENDMDL