MODEL 1
REMARK VINA RESULT: -8.491951766      0.000      0.000
REMARK  5 active torsions:
REMARK  status: ('A' for Active; 'I' for Inactive)
REMARK    1  A    between atoms: C4_6  and  C5_7
REMARK    2  A    between atoms: C5_7  and  C6_8
REMARK    3  A    between atoms: C23_29  and  O4_30
REMARK    4  A    between atoms: C25_33  and  O5_34
REMARK    5  A    between atoms: C29_40  and  O6_41
ROOT
HETATM    1  C1  UNL     1      80.271 -44.104 -42.667  1.00  0.00     0.040 C
HETATM    2  C2  UNL     1      80.045 -43.589 -43.811  1.00  0.00     0.028 C
HETATM    3  C3  UNL     1      79.112 -42.332 -43.966  1.00  0.00     0.135 C
HETATM    4  N1  UNL     1      78.056 -42.655 -44.848  1.00  0.00    -0.399 N
ATOM      5  H1  UNL     1      77.362 -41.935 -45.048  1.00  0.00     0.154 HD
HETATM    6  C4  UNL     1      77.901 -43.909 -45.467  1.00  0.00     0.180 C
HETATM    7  C7  UNL     1      79.324 -44.303 -45.956  1.00  0.00     0.247 C
HETATM    8  O3  UNL     1      79.511 -45.055 -46.921  1.00  0.00    -0.271 OA
HETATM    9  N2  UNL     1      80.343 -43.703 -45.187  1.00  0.00    -0.318 N
HETATM   10  C8  UNL     1      81.462 -42.995 -45.741  1.00  0.00     0.138 C
HETATM   11  C9  UNL     1      81.379 -41.613 -45.025  1.00  0.00     0.023 C
HETATM   12  C10 UNL     1      80.089 -41.286 -44.368  1.00  0.00    -0.013 C
HETATM   13  C11 UNL     1      80.357 -40.579 -42.994  1.00  0.00     0.018 C
HETATM   14  C12 UNL     1      79.323 -40.179 -45.092  1.00  0.00     0.012 C
HETATM   15  C13 UNL     1      79.668 -40.299 -46.570  1.00  0.00     0.007 C
HETATM   16  C14 UNL     1      81.097 -39.749 -46.709  1.00  0.00     0.006 C
HETATM   17  C15 UNL     1      82.009 -40.514 -45.844  1.00  0.00    -0.034 C
HETATM   18  C16 UNL     1      82.678 -39.595 -44.784  1.00  0.00     0.016 C
HETATM   19  C17 UNL     1      83.219 -41.089 -46.543  1.00  0.00     0.010 C
HETATM   20  C18 UNL     1      84.149 -40.150 -47.142  1.00  0.00     0.007 C
HETATM   21  C19 UNL     1      83.788 -38.819 -47.673  1.00  0.00     0.009 C
HETATM   22  C20 UNL     1      85.044 -38.227 -48.256  1.00  0.00    -0.017 C
HETATM   23  C21 UNL     1      85.303 -36.777 -47.785  1.00  0.00     0.018 C
HETATM   24  C22 UNL     1      86.326 -38.867 -47.670  1.00  0.00     0.018 C
HETATM   25  C23 UNL     1      85.260 -38.320 -49.713  1.00  0.00     0.128 C
HETATM   26  C24 UNL     1      84.093 -38.489 -50.583  1.00  0.00     0.065 C
HETATM   27  C25 UNL     1      82.948 -39.255 -49.948  1.00  0.00     0.131 C
HETATM   28  C26 UNL     1      82.584 -38.774 -48.559  1.00  0.00     0.013 C
HETATM   29  C27 UNL     1      82.224 -37.291 -48.758  1.00  0.00     0.072 C
HETATM   30 BR1  UNL     1      81.903 -36.340 -47.113  1.00  0.00    -0.090 Br
HETATM   31  C28 UNL     1      80.883 -37.383 -49.384  1.00  0.00     0.049 C
HETATM   32  C29 UNL     1      80.246 -38.422 -48.499  1.00  0.00     0.128 C
HETATM   33  C30 UNL     1      81.348 -39.449 -48.137  1.00  0.00    -0.002 C
HETATM   34  C31 UNL     1      80.918 -40.634 -48.971  1.00  0.00     0.019 C
ENDROOT
BRANCH   6  35
HETATM   35  C5  UNL     1      77.233 -45.009 -44.773  1.00  0.00     0.147 C
BRANCH  35  36
HETATM   36  C6  UNL     1      76.137 -45.583 -45.582  1.00  0.00     0.175 C
HETATM   37  O1  UNL     1      76.405 -46.326 -46.560  1.00  0.00    -0.648 OA
HETATM   38  O2  UNL     1      74.824 -45.307 -45.267  1.00  0.00    -0.648 OA
ENDBRANCH  35  36
ENDBRANCH   6  35
BRANCH  32  39
HETATM   39  O6  UNL     1      79.244 -38.945 -49.326  1.00  0.00    -0.395 OA
ATOM     40  H6  UNL     1      79.272 -39.871 -49.117  1.00  0.00     0.210 HD
ENDBRANCH  32  39
BRANCH  27  41
HETATM   41  O5  UNL     1      83.283 -40.579 -49.997  1.00  0.00    -0.395 OA
ATOM     42  H5  UNL     1      83.012 -40.962 -49.171  1.00  0.00     0.210 HD
ENDBRANCH  27  41
BRANCH  25  43
HETATM   43  O4  UNL     1      86.206 -39.319 -50.083  1.00  0.00    -0.395 OA
ATOM     44  H4  UNL     1      86.059 -39.675 -50.952  1.00  0.00     0.210 HD
ENDBRANCH  25  43
TORSDOF 5
ENDMDL