MODEL 4
REMARK VINA RESULT: -8.688531124      1.729      2.420
REMARK  7 active torsions:
REMARK  status: ('A' for Active; 'I' for Inactive)
REMARK    1  A    between atoms: C19_23  and  O4_24
REMARK    2  A    between atoms: C20_26  and  N1_27
REMARK       I    between atoms: N1_27  and  C21_29
REMARK    3  A    between atoms: C21_29  and  C22_31
REMARK    4  A    between atoms: C22_31  and  C23_32
REMARK    5  A    between atoms: C22_31  and  N2_35
REMARK    6  A    between atoms: C23_32  and  O6_33
REMARK    7  A    between atoms: N2_35  and  C24_37
ROOT
HETATM    1  C1  UNL     1      79.555 -36.604 -45.116  1.00  0.00     0.046 C
HETATM    2  C2  UNL     1      80.522 -37.222 -46.099  1.00  0.00    -0.054 C
HETATM    3  C3  UNL     1      81.005 -36.489 -47.064  1.00  0.00     0.139 C
HETATM    4  O1  UNL     1      81.866 -37.065 -47.925  1.00  0.00    -0.343 OA
HETATM    5  C4  UNL     1      82.138 -38.447 -48.057  1.00  0.00     0.143 C
HETATM    6  C5  UNL     1      81.930 -38.701 -49.514  1.00  0.00     0.168 C
HETATM    7  O2  UNL     1      80.847 -38.826 -50.035  1.00  0.00    -0.294 OA
HETATM    8  C6  UNL     1      83.163 -38.798 -50.350  1.00  0.00     0.074 C
HETATM    9  C7  UNL     1      83.882 -37.500 -50.150  1.00  0.00     0.063 C
HETATM   10  C8  UNL     1      85.009 -37.220 -51.067  1.00  0.00     0.018 C
HETATM   11  C9  UNL     1      84.261 -37.502 -48.708  1.00  0.00     0.139 C
HETATM   12  O3  UNL     1      85.047 -36.665 -48.292  1.00  0.00    -0.297 OA
HETATM   13  C10 UNL     1      83.634 -38.558 -47.860  1.00  0.00     0.109 C
HETATM   14  C11 UNL     1      84.021 -39.957 -48.299  1.00  0.00    -0.008 C
HETATM   15  C12 UNL     1      85.533 -39.936 -47.997  1.00  0.00     0.018 C
HETATM   16  C13 UNL     1      83.903 -39.999 -49.793  1.00  0.00     0.004 C
HETATM   17  C14 UNL     1      85.193 -40.300 -50.504  1.00  0.00     0.011 C
HETATM   18  C15 UNL     1      83.279 -41.021 -47.582  1.00  0.00     0.033 C
HETATM   19  C16 UNL     1      84.288 -41.780 -46.710  1.00  0.00     0.029 C
HETATM   20 BR1  UNL     1      82.862 -42.539 -48.766  1.00  0.00    -0.084 Br
HETATM   21  C17 UNL     1      82.084 -40.623 -46.735  1.00  0.00     0.013 C
HETATM   22  C18 UNL     1      82.588 -40.605 -45.329  1.00  0.00     0.020 C
HETATM   23  C19 UNL     1      81.044 -41.701 -46.936  1.00  0.00     0.178 C
HETATM   24  C20 UNL     1      79.787 -41.728 -46.214  1.00  0.00     0.041 C
HETATM   25  C28 UNL     1      79.102 -40.512 -45.760  1.00  0.00     0.024 C
HETATM   26  C29 UNL     1      79.716 -39.310 -45.233  1.00  0.00    -0.015 C
HETATM   27  C30 UNL     1      80.862 -38.651 -45.887  1.00  0.00     0.047 C
HETATM   28  C31 UNL     1      81.390 -39.347 -47.142  1.00  0.00     0.054 C
ENDROOT
BRANCH  24  29
HETATM   29  N1  UNL     1      79.493 -42.908 -45.424  1.00  0.00    -0.326 N
HETATM   30  C21 UNL     1      79.363 -44.249 -45.860  1.00  0.00     0.246 C
HETATM   31  O5  UNL     1      79.475 -44.500 -47.075  1.00  0.00    -0.271 OA
ATOM     32  H1  UNL     1      79.364 -42.752 -44.423  1.00  0.00     0.168 HD
BRANCH  30  33
HETATM   33  C22 UNL     1      79.111 -45.363 -44.921  1.00  0.00     0.194 C
BRANCH  33  34
HETATM   34  C23 UNL     1      77.605 -45.680 -45.097  1.00  0.00     0.198 C
BRANCH  34  35
HETATM   35  O6  UNL     1      77.385 -46.313 -46.320  1.00  0.00    -0.398 OA
ATOM     36  H6  UNL     1      76.461 -46.287 -46.542  1.00  0.00     0.209 HD
ENDBRANCH  34  35
ENDBRANCH  33  34
BRANCH  33  37
HETATM   37  N2  UNL     1      79.827 -46.510 -45.194  1.00  0.00    -0.400 N
ATOM     38  H2  UNL     1      79.341 -47.234 -45.723  1.00  0.00     0.154 HD
BRANCH  37  39
HETATM   39  C24 UNL     1      81.133 -46.787 -44.827  1.00  0.00     0.015 C
HETATM   40  C25 UNL     1      81.405 -48.264 -45.225  1.00  0.00     0.037 C
HETATM   41  C26 UNL     1      82.284 -46.020 -45.374  1.00  0.00     0.037 C
HETATM   42  C27 UNL     1      81.270 -46.861 -43.267  1.00  0.00     0.037 C
ENDBRANCH  37  39
ENDBRANCH  33  37
ENDBRANCH  30  33
ENDBRANCH  24  29
BRANCH  23  43
HETATM   43  O4  UNL     1      80.628 -41.629 -48.316  1.00  0.00    -0.389 OA
ATOM     44  H4  UNL     1      81.316 -42.035 -48.832  1.00  0.00     0.210 HD
ENDBRANCH  23  43
TORSDOF 7
ENDMDL