MODEL 4
REMARK VINA RESULT: -9.032741813      1.395      2.284
REMARK  6 active torsions:
REMARK  status: ('A' for Active; 'I' for Inactive)
REMARK    1  A    between atoms: C2_2  and  C3_3
REMARK    2  A    between atoms: C2_2  and  C12_12
REMARK    3  A    between atoms: C15_16  and  O2_17
REMARK    4  A    between atoms: C16_19  and  O3_20
REMARK    5  A    between atoms: C33_40  and  N2_41
REMARK    6  A    between atoms: C33_40  and  O4_45
ROOT
HETATM    1  C12 UNL     1      66.725 -44.093 -43.942  1.00  0.00     0.190 C
HETATM    2  O1  UNL     1      65.947 -45.069 -43.375  1.00  0.00    -0.367 OA
HETATM    3  C13 UNL     1      66.647 -46.281 -43.296  1.00  0.00     0.095 C
HETATM    4  C14 UNL     1      66.802 -46.489 -41.869  1.00  0.00     0.049 C
HETATM    5  C15 UNL     1      65.834 -47.425 -43.895  1.00  0.00     0.182 C
HETATM    6  C16 UNL     1      66.634 -48.566 -44.351  1.00  0.00     0.154 C
HETATM    7  C17 UNL     1      68.109 -48.513 -44.323  1.00  0.00     0.026 C
HETATM    8  C18 UNL     1      68.672 -49.257 -43.190  1.00  0.00     0.008 C
HETATM    9  C19 UNL     1      70.211 -49.188 -43.155  1.00  0.00     0.005 C
HETATM   10  C20 UNL     1      70.508 -47.731 -42.998  1.00  0.00    -0.008 C
HETATM   11  C21 UNL     1      71.840 -47.390 -42.444  1.00  0.00     0.006 C
HETATM   12  C22 UNL     1      72.844 -48.529 -42.653  1.00  0.00     0.016 C
HETATM   13  C23 UNL     1      73.060 -48.678 -44.111  1.00  0.00     0.064 C
HETATM   14 BR1  UNL     1      75.017 -48.579 -44.371  1.00  0.00    -0.091 Br
HETATM   15  C24 UNL     1      72.525 -47.587 -44.957  1.00  0.00     0.035 C
HETATM   16  C25 UNL     1      73.165 -47.861 -46.343  1.00  0.00     0.038 C
HETATM   17  C26 UNL     1      72.102 -47.482 -47.334  1.00  0.00     0.273 C
HETATM   18  N1  UNL     1      71.263 -46.612 -46.484  1.00  0.00     0.089 N
HETATM   19  C27 UNL     1      72.084 -45.465 -46.225  1.00  0.00     0.310 C
HETATM   20  C28 UNL     1      71.114 -47.506 -45.316  1.00  0.00     0.232 C
HETATM   21  C29 UNL     1      70.141 -47.017 -44.295  1.00  0.00     0.032 C
HETATM   22  C30 UNL     1      68.697 -47.123 -44.619  1.00  0.00    -0.021 C
HETATM   23  C31 UNL     1      68.646 -47.143 -46.184  1.00  0.00     0.016 C
HETATM   24  C32 UNL     1      67.763 -46.062 -44.244  1.00  0.00     0.097 C
HETATM   25  C33 UNL     1      68.163 -44.684 -43.895  1.00  0.00     0.256 C
ENDROOT
BRANCH   1  26
HETATM   26  C2  UNL     1      66.614 -42.746 -43.352  1.00  0.00     0.024 C
HETATM   27  C1  UNL     1      66.845 -42.622 -41.897  1.00  0.00     0.013 C
BRANCH  26  28
HETATM   28  C3  UNL     1      67.333 -41.636 -44.047  1.00  0.00     0.025 C
HETATM   29  C4  UNL     1      67.392 -41.724 -45.533  1.00  0.00     0.014 C
HETATM   30  C5  UNL     1      65.994 -41.254 -45.943  1.00  0.00     0.040 C
HETATM   31  C6  UNL     1      65.780 -40.157 -44.932  1.00  0.00    -0.051 A
HETATM   32  C7  UNL     1      64.951 -39.061 -45.028  1.00  0.00     0.007 A
HETATM   33  C11 UNL     1      66.567 -40.365 -43.824  1.00  0.00    -0.047 A
HETATM   34  C8  UNL     1      64.900 -38.145 -43.999  1.00  0.00     0.001 A
HETATM   35  C9  UNL     1      65.703 -38.359 -42.874  1.00  0.00     0.001 A
HETATM   36  C10 UNL     1      66.522 -39.453 -42.792  1.00  0.00     0.008 A
ENDBRANCH  26  28
ENDBRANCH   1  26
BRANCH  25  37
HETATM   37  N2  UNL     1      68.944 -43.948 -44.800  1.00  0.00    -0.044 N
ATOM     38  H23 UNL     1      68.891 -42.941 -44.648  1.00  0.00     0.278 HD
ATOM     39  H22 UNL     1      69.946 -44.051 -44.640  1.00  0.00     0.278 HD
ATOM     40  H21 UNL     1      68.660 -44.227 -45.739  1.00  0.00     0.278 HD
ENDBRANCH  25  37
BRANCH  25  41
HETATM   41  O4  UNL     1      68.694 -44.521 -42.626  1.00  0.00    -0.363 OA
ATOM     42  H4  UNL     1      69.621 -44.324 -42.690  1.00  0.00     0.212 HD
ENDBRANCH  25  41
BRANCH   5  43
HETATM   43  O2  UNL     1      65.057 -46.859 -44.908  1.00  0.00    -0.390 OA
ATOM     44  H2  UNL     1      65.432 -46.004 -45.082  1.00  0.00     0.210 HD
ENDBRANCH   5  43
BRANCH   6  45
HETATM   45  O3  UNL     1      66.257 -49.697 -43.579  1.00  0.00    -0.392 OA
ATOM     46  H3  UNL     1      66.934 -49.845 -42.930  1.00  0.00     0.210 HD
ENDBRANCH   6  45
TORSDOF 6
ENDMDL