MODEL 5
REMARK VINA RESULT: -8.661611586     10.985     13.048
REMARK  7 active torsions:
REMARK  status: ('A' for Active; 'I' for Inactive)
REMARK    1  A    between atoms: N1_6  and  C6_7
REMARK    2  A    between atoms: C6_7  and  C7_8
REMARK    3  A    between atoms: N2_17  and  O1_19
REMARK    4  A    between atoms: C18_23  and  O2_24
REMARK    5  A    between atoms: C24_33  and  C25_34
REMARK    6  A    between atoms: C25_34  and  O4_37
REMARK    7  A    between atoms: C29_41  and  O5_42
ROOT
HETATM    1  C1  UNL     1      67.900 -47.258 -46.305  1.00  0.00     0.015 C
HETATM    2  C2  UNL     1      68.517 -47.016 -45.287  1.00  0.00    -0.076 C
HETATM    3  C3  UNL     1      69.250 -46.761 -44.087  1.00  0.00     0.161 C
HETATM    4  C4  UNL     1      70.541 -46.117 -44.470  1.00  0.00     0.084 C
HETATM    5  C5  UNL     1      69.921 -44.861 -45.121  1.00  0.00     0.277 C
HETATM    6  N1  UNL     1      68.804 -44.499 -44.354  1.00  0.00     0.103 N
HETATM    7  C14 UNL     1      68.580 -45.529 -43.444  1.00  0.00     0.318 C
HETATM    8  C15 UNL     1      67.254 -46.005 -43.113  1.00  0.00     0.060 C
HETATM    9  N2  UNL     1      66.153 -45.710 -43.601  1.00  0.00    -0.274 N
ATOM     10  H2  UNL     1      65.377 -46.208 -43.167  1.00  0.00     0.193 HD
HETATM   11  C16 UNL     1      67.337 -47.034 -42.016  1.00  0.00     0.053 C
HETATM   12  C17 UNL     1      68.081 -46.260 -40.941  1.00  0.00     0.027 C
HETATM   13  C18 UNL     1      66.044 -47.565 -41.529  1.00  0.00     0.141 C
HETATM   14  C19 UNL     1      66.030 -49.045 -41.200  1.00  0.00     0.056 C
HETATM   15  C20 UNL     1      67.412 -49.391 -40.702  1.00  0.00     0.046 C
HETATM   16  C21 UNL     1      68.046 -49.502 -42.070  1.00  0.00     0.222 C
HETATM   17  C22 UNL     1      68.097 -48.156 -42.683  1.00  0.00     0.171 C
HETATM   18  O3  UNL     1      69.359 -47.770 -43.171  1.00  0.00    -0.356 OA
HETATM   19  N3  UNL     1      67.189 -50.477 -42.744  1.00  0.00    -0.044 N
HETATM   20  C23 UNL     1      67.358 -50.497 -44.146  1.00  0.00     0.274 C
HETATM   21  C24 UNL     1      67.276 -51.796 -42.221  1.00  0.00     0.241 C
HETATM   22  C28 UNL     1      65.879 -52.302 -42.583  1.00  0.00     0.123 C
HETATM   23 BR1  UNL     1      65.394 -53.935 -41.725  1.00  0.00    -0.086 Br
HETATM   24  C29 UNL     1      65.096 -51.194 -41.838  1.00  0.00     0.171 C
HETATM   25  C30 UNL     1      65.861 -49.973 -42.348  1.00  0.00     0.159 C
HETATM   26  C31 UNL     1      65.017 -49.505 -43.470  1.00  0.00     0.050 C
ENDROOT
BRANCH   6  27
HETATM   27  C6  UNL     1      68.685 -43.188 -43.837  1.00  0.00     0.278 C
BRANCH  27  28
HETATM   28  C7  UNL     1      67.684 -42.244 -44.363  1.00  0.00     0.014 C
HETATM   29  C8  UNL     1      68.349 -41.564 -45.589  1.00  0.00     0.006 C
HETATM   30  C9  UNL     1      67.367 -41.086 -46.582  1.00  0.00     0.000 C
HETATM   31  C10 UNL     1      65.952 -40.945 -46.152  1.00  0.00     0.000 C
HETATM   32  C11 UNL     1      65.719 -40.097 -44.953  1.00  0.00     0.000 C
HETATM   33  C12 UNL     1      66.925 -39.867 -44.110  1.00  0.00     0.000 C
HETATM   34  C13 UNL     1      67.431 -41.119 -43.411  1.00  0.00     0.006 C
ENDBRANCH  27  28
ENDBRANCH   6  27
BRANCH   9  35
HETATM   35  O1  UNL     1      65.763 -44.878 -44.574  1.00  0.00    -0.290 OA
ATOM     36  H1  UNL     1      65.203 -44.112 -44.600  1.00  0.00     0.244 HD
ENDBRANCH   9  35
BRANCH  13  37
HETATM   37  O2  UNL     1      64.899 -47.134 -42.144  1.00  0.00    -0.394 OA
ATOM     38  H2  UNL     1      64.148 -46.933 -41.598  1.00  0.00     0.210 HD
ENDBRANCH  13  37
BRANCH  21  39
HETATM   39  C25 UNL     1      68.299 -52.756 -42.456  1.00  0.00     0.081 C
HETATM   40  C26 UNL     1      69.741 -52.288 -42.541  1.00  0.00     0.047 C
HETATM   41  C27 UNL     1      68.172 -53.811 -43.526  1.00  0.00     0.047 C
BRANCH  39  42
HETATM   42  O4  UNL     1      68.397 -53.577 -41.274  1.00  0.00    -0.388 OA
ATOM     43  H4  UNL     1      68.466 -52.992 -40.529  1.00  0.00     0.210 HD
ENDBRANCH  39  42
ENDBRANCH  21  39
BRANCH  24  44
HETATM   44  O5  UNL     1      65.224 -51.334 -40.463  1.00  0.00    -0.392 OA
ATOM     45  H5  UNL     1      64.614 -50.768 -40.004  1.00  0.00     0.210 HD
ENDBRANCH  24  44
TORSDOF 7
ENDMDL