MODEL 2
REMARK VINA RESULT: -12.039912418      1.743      2.745
REMARK  7 active torsions:
REMARK  status: ('A' for Active; 'I' for Inactive)
REMARK    1  A    between atoms: C8_8  and  O1_9
REMARK    2  A    between atoms: C13_15  and  O2_16
REMARK    3  A    between atoms: C13_15  and  C14_18
REMARK    4  A    between atoms: C14_18  and  N1_20
REMARK    5  A    between atoms: C19_26  and  C20_27
REMARK    6  A    between atoms: C20_27  and  O3_28
REMARK    7  A    between atoms: C20_27  and  N3_30
ROOT
HETATM    1  C1  UNL     1      66.728 -44.258 -45.869  1.00  0.00     0.011 C
HETATM    2  C2  UNL     1      67.959 -44.925 -46.440  1.00  0.00    -0.010 C
HETATM    3  C3  UNL     1      67.785 -46.424 -46.404  1.00  0.00     0.005 C
HETATM    4  C4  UNL     1      68.505 -46.906 -45.167  1.00  0.00     0.006 C
HETATM    5  C5  UNL     1      69.199 -45.722 -44.577  1.00  0.00    -0.001 C
HETATM    6  C6  UNL     1      70.545 -46.018 -43.994  1.00  0.00     0.000 C
HETATM    7  C7  UNL     1      70.424 -47.120 -42.993  1.00  0.00     0.037 C
HETATM    8  C8  UNL     1      71.723 -47.816 -42.669  1.00  0.00     0.126 C
HETATM    9  C9  UNL     1      72.391 -48.140 -43.935  1.00  0.00     0.063 C
HETATM   10  C10 UNL     1      73.735 -48.789 -43.852  1.00  0.00     0.037 C
HETATM   11  C11 UNL     1      73.758 -50.261 -43.749  1.00  0.00     0.011 C
HETATM   12  C12 UNL     1      74.346 -50.803 -45.020  1.00  0.00     0.047 C
HETATM   13  C13 UNL     1      75.116 -49.637 -45.669  1.00  0.00     0.131 C
HETATM   14  C30 UNL     1      74.228 -48.537 -45.283  1.00  0.00     0.197 A
HETATM   15  N4  UNL     1      73.057 -48.508 -46.290  1.00  0.00    -0.050 N
ATOM     16  H41 UNL     1      72.119 -48.897 -46.388  1.00  0.00     0.279 HD
ATOM     17  H42 UNL     1      72.833 -48.865 -47.219  1.00  0.00     0.279 HD
HETATM   18  C31 UNL     1      73.704 -47.361 -45.688  1.00  0.00     0.267 A
HETATM   19  C32 UNL     1      72.807 -46.801 -44.580  1.00  0.00     0.144 C
HETATM   20  F1  UNL     1      73.456 -45.992 -43.712  1.00  0.00    -0.240 F
HETATM   21  C33 UNL     1      71.503 -46.258 -45.103  1.00  0.00     0.033 C
HETATM   22  C34 UNL     1      71.673 -44.961 -45.849  1.00  0.00     0.009 C
HETATM   23  C35 UNL     1      70.375 -44.639 -46.519  1.00  0.00     0.010 C
HETATM   24  C36 UNL     1      69.195 -44.632 -45.601  1.00  0.00    -0.037 C
HETATM   25  C37 UNL     1      69.068 -43.276 -44.948  1.00  0.00     0.016 C
ENDROOT
BRANCH  13  26
HETATM   26  O2  UNL     1      75.003 -49.939 -47.052  1.00  0.00    -0.381 OA
ATOM     27  H2  UNL     1      74.343 -49.318 -47.338  1.00  0.00     0.211 HD
ENDBRANCH  13  26
BRANCH  13  28
HETATM   28  C14 UNL     1      76.547 -49.588 -45.281  1.00  0.00     0.018 C
HETATM   29  C15 UNL     1      76.833 -48.684 -44.114  1.00  0.00     0.066 C
BRANCH  28  30
HETATM   30  N1  UNL     1      77.206 -50.830 -45.266  1.00  0.00    -0.370 N
HETATM   31  C16 UNL     1      77.377 -51.536 -46.482  1.00  0.00     0.143 C
HETATM   32  C17 UNL     1      78.191 -52.820 -46.292  1.00  0.00     0.133 C
HETATM   33  N2  UNL     1      77.677 -53.551 -45.185  1.00  0.00    -0.417 N
HETATM   34  C18 UNL     1      77.522 -52.843 -43.965  1.00  0.00     0.147 C
ATOM     35  H2  UNL     1      77.431 -54.538 -45.264  1.00  0.00     0.153 HD
HETATM   36  C19 UNL     1      77.749 -51.318 -44.097  1.00  0.00     0.175 C
BRANCH  36  37
HETATM   37  C20 UNL     1      79.111 -51.071 -43.664  1.00  0.00     0.139 C
BRANCH  37  38
HETATM   38  O3  UNL     1      79.722 -52.184 -43.261  1.00  0.00    -0.348 OA
ATOM     39  H3  UNL     1      80.586 -52.278 -43.642  1.00  0.00     0.219 HD
ENDBRANCH  37  38
BRANCH  37  40
HETATM   40  N3  UNL     1      79.932 -49.969 -43.566  1.00  0.00    -0.359 N
HETATM   41  C21 UNL     1      80.389 -49.335 -42.371  1.00  0.00     0.129 C
HETATM   42  C22 UNL     1      81.486 -48.277 -42.648  1.00  0.00     0.059 C
HETATM   43  C23 UNL     1      80.903 -47.294 -43.594  1.00  0.00    -0.049 A
HETATM   44  C24 UNL     1      80.923 -45.952 -43.359  1.00  0.00     0.008 A
HETATM   45  C28 UNL     1      80.335 -47.857 -44.740  1.00  0.00    -0.034 A
HETATM   46  C25 UNL     1      80.347 -45.122 -44.315  1.00  0.00     0.001 A
HETATM   47  C26 UNL     1      79.779 -45.659 -45.458  1.00  0.00     0.001 A
HETATM   48  C27 UNL     1      79.780 -47.031 -45.659  1.00  0.00     0.009 A
HETATM   49  C29 UNL     1      80.418 -49.334 -44.811  1.00  0.00     0.163 C
ENDBRANCH  37  40
ENDBRANCH  36  37
ENDBRANCH  28  30
ENDBRANCH  13  28
BRANCH   8  50
HETATM   50  O1  UNL     1      72.466 -47.094 -41.769  1.00  0.00    -0.395 OA
ATOM     51  H1  UNL     1      73.284 -46.801 -42.153  1.00  0.00     0.210 HD
ENDBRANCH   8  50
TORSDOF 7
ENDMDL