MODEL 1
REMARK VINA RESULT: -8.397282280      0.000      0.000
REMARK  14 active torsions:
REMARK  status: ('A' for Active; 'I' for Inactive)
REMARK    1  A    between atoms: C2_2  and  C3_4
REMARK    2  A    between atoms: C3_4  and  N1_5
REMARK    3  A    between atoms: C3_4  and  C18_41
REMARK       I    between atoms: N1_5  and  C4_7
REMARK    4  A    between atoms: C4_7  and  C5_9
REMARK    5  A    between atoms: C5_9  and  C6_11
REMARK    6  A    between atoms: C6_11  and  N2_12
REMARK    7  A    between atoms: C6_11  and  C7_16
REMARK    8  A    between atoms: C7_16  and  N3_17
REMARK    9  A    between atoms: C7_16  and  C11_27
REMARK       I    between atoms: N3_17  and  C8_19
REMARK   10  A    between atoms: C8_19  and  C9_21
REMARK   11  A    between atoms: C9_21  and  C10_22
REMARK   12  A    between atoms: C10_22  and  N4_23
REMARK   13  A    between atoms: C11_27  and  O6_29
REMARK   14  A    between atoms: O6_29  and  C12_30
REMARK       I    between atoms: N5_34  and  C16_35
ROOT
HETATM    1  C7  UNL     1      14.995 -13.928 -23.700  1.00  0.00     0.222 C
ENDROOT
BRANCH   1   2
HETATM    2  C6  UNL     1      14.375 -13.467 -22.399  1.00  0.00     0.294 C
BRANCH   2   3
HETATM    3  C5  UNL     1      14.189 -14.555 -21.442  1.00  0.00     0.249 C
HETATM    4  O3  UNL     1      15.187 -15.290 -21.128  1.00  0.00    -0.285 OA
BRANCH   3   5
HETATM    5  C4  UNL     1      12.901 -14.815 -20.844  1.00  0.00     0.290 C
HETATM    6  N1  UNL     1      11.837 -15.350 -21.613  1.00  0.00    -0.335 N
ATOM      7  H1  UNL     1      12.005 -15.546 -22.600  1.00  0.00     0.164 HD
HETATM    8  O2  UNL     1      12.689 -14.580 -19.643  1.00  0.00    -0.264 OA
BRANCH   6   9
HETATM    9  C3  UNL     1      10.527 -15.631 -21.069  1.00  0.00     0.243 C
BRANCH   9  10
HETATM   10  C2  UNL     1       9.894 -16.800 -21.709  1.00  0.00     0.154 C
HETATM   11  C1  UNL     1       9.170 -17.771 -20.846  1.00  0.00     0.093 C
HETATM   12  O1  UNL     1       9.934 -17.007 -22.909  1.00  0.00    -0.296 OA
ENDBRANCH   9  10
BRANCH   9  13
HETATM   13  C18 UNL     1       9.673 -14.451 -21.272  1.00  0.00     0.261 C
HETATM   14  N8  UNL     1       8.343 -14.441 -20.801  1.00  0.00    -0.060 NA
HETATM   15  O7  UNL     1      10.120 -13.450 -21.864  1.00  0.00    -0.274 OA
ENDBRANCH   9  13
ENDBRANCH   6   9
ENDBRANCH   3   5
ENDBRANCH   2   3
BRANCH   2  16
HETATM   16  N2  UNL     1      13.192 -12.715 -22.600  1.00  0.00    -0.065 N
ATOM     17  H23 UNL     1      12.521 -13.231 -23.169  1.00  0.00     0.275 HD
ATOM     18  H22 UNL     1      12.653 -12.641 -21.738  1.00  0.00     0.275 HD
ATOM     19  H21 UNL     1      13.379 -11.793 -22.997  1.00  0.00     0.275 HD
ENDBRANCH   2  16
ENDBRANCH   1   2
BRANCH   1  20
HETATM   20  N3  UNL     1      14.372 -15.119 -24.214  1.00  0.00    -0.345 N
HETATM   21  C8  UNL     1      15.096 -16.338 -24.382  1.00  0.00     0.220 C
HETATM   22  O4  UNL     1      16.329 -16.417 -24.079  1.00  0.00    -0.274 OA
ATOM     23  H3  UNL     1      13.385 -15.092 -24.467  1.00  0.00     0.163 HD
BRANCH  21  24
HETATM   24  C9  UNL     1      14.473 -17.569 -24.907  1.00  0.00     0.130 C
BRANCH  24  25
HETATM   25  C10 UNL     1      13.872 -18.417 -23.834  1.00  0.00     0.238 C
BRANCH  25  26
HETATM   26  N4  UNL     1      12.434 -18.311 -23.764  1.00  0.00    -0.079 N
ATOM     27  H43 UNL     1      12.148 -17.343 -23.618  1.00  0.00     0.274 HD
ATOM     28  H42 UNL     1      12.013 -18.474 -24.678  1.00  0.00     0.274 HD
ATOM     29  H41 UNL     1      12.020 -18.922 -23.060  1.00  0.00     0.274 HD
ENDBRANCH  25  26
ENDBRANCH  24  25
ENDBRANCH  21  24
ENDBRANCH   1  20
BRANCH   1  30
HETATM   30  C11 UNL     1      14.937 -12.829 -24.702  1.00  0.00     0.284 C
HETATM   31  O5  UNL     1      15.032 -11.614 -24.384  1.00  0.00    -0.263 OA
BRANCH  30  32
HETATM   32  O6  UNL     1      14.775 -13.073 -26.049  1.00  0.00    -0.313 OA
BRANCH  32  33
HETATM   33  C12 UNL     1      15.697 -12.761 -27.055  1.00  0.00     0.150 C
HETATM   34  C13 UNL     1      15.302 -11.527 -27.842  1.00  0.00     0.036 C
HETATM   35  C14 UNL     1      16.616 -10.977 -28.415  1.00  0.00     0.022 C
HETATM   36  C15 UNL     1      17.328 -12.054 -29.203  1.00  0.00     0.125 C
HETATM   37  N5  UNL     1      16.628 -13.314 -29.183  1.00  0.00    -0.353 N
HETATM   38  C16 UNL     1      16.550 -14.080 -30.393  1.00  0.00     0.184 C
HETATM   39  C17 UNL     1      15.990 -13.864 -28.005  1.00  0.00     0.158 C
HETATM   40  N6  UNL     1      15.939 -13.589 -31.416  1.00  0.00    -0.374 N
HETATM   41  N7  UNL     1      17.136 -15.384 -30.495  1.00  0.00    -0.064 NA
ATOM     42  H62 UNL     1      15.523 -12.660 -31.342  1.00  0.00     0.158 HD
ATOM     43  H61 UNL     1      15.884 -14.133 -32.276  1.00  0.00     0.158 HD
ENDBRANCH  32  33
ENDBRANCH  30  32
ENDBRANCH   1  30
TORSDOF 14
ENDMDL