MODEL 4
REMARK VINA RESULT: -8.223059343      1.799      3.457
REMARK  15 active torsions:
REMARK  status: ('A' for Active; 'I' for Inactive)
REMARK    1  A    between atoms: C2_2  and  N1_3
REMARK    2  A    between atoms: C2_2  and  C3_7
REMARK    3  A    between atoms: C3_7  and  C4_8
REMARK       I    between atoms: N2_10  and  C5_12
REMARK    4  A    between atoms: C5_12  and  C6_14
REMARK    5  A    between atoms: N3_18  and  S1_19
REMARK    6  A    between atoms: S1_19  and  N4_22
REMARK    7  A    between atoms: N4_22  and  C10_24
REMARK    8  A    between atoms: C11_25  and  O5_26
REMARK    9  A    between atoms: C11_25  and  N5_28
REMARK   10  A    between atoms: N5_28  and  C12_30
REMARK   11  A    between atoms: C12_30  and  C13_31
REMARK   12  A    between atoms: C12_30  and  C15_37
REMARK       I    between atoms: C13_31  and  N6_33
REMARK   13  A    between atoms: N6_33  and  C14_35
REMARK   14  A    between atoms: C15_37  and  N7_38
REMARK   15  A    between atoms: C15_37  and  O8_42
ROOT
HETATM    1  N4  UNL     1      13.688 -15.202 -20.825  1.00  0.00    -0.278 N
ATOM      2  H4  UNL     1      13.228 -16.112 -20.769  1.00  0.00     0.179 HD
ENDROOT
BRANCH   1   3
HETATM    3  S1  UNL     1      14.964 -14.738 -21.936  1.00  0.00     0.303 S
HETATM    4  O3  UNL     1      15.866 -13.710 -21.408  1.00  0.00    -0.188 OA
HETATM    5  O4  UNL     1      15.761 -16.040 -22.129  1.00  0.00    -0.188 OA
BRANCH   3   6
HETATM    6  N3  UNL     1      14.284 -14.244 -23.434  1.00  0.00    -0.180 NA
HETATM    7  C6  UNL     1      15.135 -14.424 -24.516  1.00  0.00     0.168 C
HETATM    8  C7  UNL     1      15.221 -13.044 -25.197  1.00  0.00     0.032 C
HETATM    9  C8  UNL     1      14.930 -12.101 -24.070  1.00  0.00     0.018 C
HETATM   10  C9  UNL     1      13.811 -12.869 -23.389  1.00  0.00     0.110 C
BRANCH   7  11
HETATM   11  C5  UNL     1      14.710 -15.438 -25.530  1.00  0.00     0.241 C
HETATM   12  N2  UNL     1      14.360 -16.757 -25.040  1.00  0.00    -0.325 N
HETATM   13  C3  UNL     1      14.971 -17.839 -25.285  1.00  0.00     0.080 C
ATOM     14  H2  UNL     1      13.539 -16.820 -24.437  1.00  0.00     0.169 HD
HETATM   15  O2  UNL     1      14.673 -15.146 -26.713  1.00  0.00    -0.271 OA
BRANCH  13  16
HETATM   16  C2  UNL     1      14.434 -19.084 -24.659  1.00  0.00     0.232 C
HETATM   17  C1  UNL     1      13.139 -19.440 -25.382  1.00  0.00     0.046 C
BRANCH  16  18
HETATM   18  N1  UNL     1      14.084 -18.795 -23.301  1.00  0.00    -0.070 N
ATOM     19  H13 UNL     1      14.889 -18.559 -22.721  1.00  0.00     0.275 HD
ATOM     20  H12 UNL     1      13.586 -17.911 -23.195  1.00  0.00     0.275 HD
ATOM     21  H11 UNL     1      13.559 -19.597 -22.955  1.00  0.00     0.275 HD
ENDBRANCH  16  18
ENDBRANCH  13  16
BRANCH  13  22
HETATM   22  C4  UNL     1      16.149 -17.992 -26.122  1.00  0.00     0.285 C
HETATM   23  O1  UNL     1      16.200 -18.378 -27.282  1.00  0.00    -0.300 OA
ENDBRANCH  13  22
ENDBRANCH   7  11
ENDBRANCH   3   6
ENDBRANCH   1   3
BRANCH   1  24
HETATM   24  C10 UNL     1      13.416 -14.036 -20.002  1.00  0.00     0.156 C
HETATM   25  C11 UNL     1      12.149 -13.729 -19.504  1.00  0.00     0.153 C
BRANCH  25  26
HETATM   26  O5  UNL     1      12.036 -12.525 -18.869  1.00  0.00    -0.345 OA
ATOM     27  H5  UNL     1      11.246 -12.031 -19.057  1.00  0.00     0.219 HD
ENDBRANCH  25  26
BRANCH  25  28
HETATM   28  N5  UNL     1      10.917 -14.372 -19.482  1.00  0.00    -0.353 N
ATOM     29  H5  UNL     1      10.377 -14.480 -18.623  1.00  0.00     0.162 HD
BRANCH  28  30
HETATM   30  C12 UNL     1      10.443 -14.882 -20.765  1.00  0.00     0.232 C
BRANCH  30  31
HETATM   31  C13 UNL     1       9.755 -16.172 -20.525  1.00  0.00     0.251 C
HETATM   32  O6  UNL     1       9.165 -16.412 -19.459  1.00  0.00    -0.271 OA
HETATM   33  N6  UNL     1       9.809 -17.151 -21.593  1.00  0.00    -0.303 N
ATOM     34  H6  UNL     1      10.331 -16.965 -22.449  1.00  0.00     0.171 HD
BRANCH  33  35
HETATM   35  C14 UNL     1       9.123 -18.366 -21.414  1.00  0.00     0.355 C
HETATM   36  O7  UNL     1       8.353 -18.752 -22.361  1.00  0.00    -0.283 OA
ENDBRANCH  33  35
ENDBRANCH  30  31
BRANCH  30  37
HETATM   37  C15 UNL     1       9.375 -13.888 -21.214  1.00  0.00     0.348 C
BRANCH  37  38
HETATM   38  N7  UNL     1       9.773 -13.017 -22.243  1.00  0.00    -0.051 N
ATOM     39  H73 UNL     1       9.436 -12.073 -22.055  1.00  0.00     0.277 HD
ATOM     40  H72 UNL     1      10.779 -12.859 -22.201  1.00  0.00     0.277 HD
ATOM     41  H71 UNL     1       9.500 -13.309 -23.182  1.00  0.00     0.277 HD
ENDBRANCH  37  38
BRANCH  37  42
HETATM   42  O8  UNL     1       8.183 -14.548 -21.492  1.00  0.00    -0.368 OA
ATOM     43  H8  UNL     1       7.459 -13.934 -21.505  1.00  0.00     0.212 HD
ENDBRANCH  37  42
ENDBRANCH  30  37
ENDBRANCH  28  30
ENDBRANCH  25  28
ENDBRANCH   1  24
TORSDOF 15
ENDMDL