MODEL 3
REMARK VINA RESULT: -7.917525120      5.160     10.675
REMARK  13 active torsions:
REMARK  status: ('A' for Active; 'I' for Inactive)
REMARK    1  A    between atoms: C2_2  and  C18_40
REMARK    2  A    between atoms: N1_3  and  C3_5
REMARK    3  A    between atoms: C3_5  and  N2_6
REMARK    4  A    between atoms: C3_5  and  C4_10
REMARK    5  A    between atoms: N2_6  and  N3_7
REMARK       I    between atoms: C4_10  and  N4_12
REMARK    6  A    between atoms: N4_12  and  C5_14
REMARK    7  A    between atoms: C5_14  and  C6_15
REMARK    8  A    between atoms: C5_14  and  C16_34
REMARK       I    between atoms: C6_15  and  N5_17
REMARK    9  A    between atoms: N5_17  and  C7_19
REMARK   10  A    between atoms: C7_19  and  C8_20
REMARK       I    between atoms: C8_20  and  N6_22
REMARK   11  A    between atoms: N6_22  and  C9_24
REMARK   12  A    between atoms: C9_24  and  C11_26
REMARK       I    between atoms: C11_26  and  N7_28
REMARK   13  A    between atoms: C16_34  and  N8_36
ROOT
HETATM    1  C5  UNL     1      11.953 -14.013 -21.950  1.00  0.00     0.206 C
ENDROOT
BRANCH   1   2
HETATM    2  N4  UNL     1      12.851 -14.411 -23.005  1.00  0.00    -0.343 N
HETATM    3  C4  UNL     1      13.973 -13.743 -23.489  1.00  0.00     0.258 C
HETATM    4  O1  UNL     1      14.341 -12.650 -23.010  1.00  0.00    -0.270 OA
ATOM      5  H4  UNL     1      12.636 -15.300 -23.457  1.00  0.00     0.163 HD
BRANCH   3   6
HETATM    6  C3  UNL     1      14.762 -14.365 -24.621  1.00  0.00     0.289 C
BRANCH   6   7
HETATM    7  N1  UNL     1      15.631 -15.366 -24.135  1.00  0.00    -0.362 N
HETATM    8  C2  UNL     1      15.500 -16.615 -23.988  1.00  0.00     0.068 C
HETATM    9  C1  UNL     1      16.657 -17.413 -23.424  1.00  0.00     0.073 C
ATOM     10  H1  UNL     1      16.542 -15.013 -23.844  1.00  0.00     0.161 HD
BRANCH   8  11
HETATM   11  C18 UNL     1      14.321 -17.388 -24.328  1.00  0.00     0.276 C
HETATM   12  N9  UNL     1      13.194 -17.520 -23.431  1.00  0.00    -0.056 NA
HETATM   13  O6  UNL     1      14.201 -17.999 -25.437  1.00  0.00    -0.270 OA
ENDBRANCH   8  11
ENDBRANCH   6   7
BRANCH   6  14
HETATM   14  N2  UNL     1      15.345 -13.369 -25.485  1.00  0.00    -0.113 NA
BRANCH  14  15
HETATM   15  N3  UNL     1      14.353 -12.498 -25.995  1.00  0.00    -0.346 N
ATOM     16  H32 UNL     1      13.368 -12.749 -26.078  1.00  0.00     0.172 HD
ATOM     17  H31 UNL     1      14.758 -11.602 -26.264  1.00  0.00     0.172 HD
ENDBRANCH  14  15
ENDBRANCH   6  14
ENDBRANCH   3   6
ENDBRANCH   1   2
BRANCH   1  18
HETATM   18  C6  UNL     1      12.748 -13.703 -20.712  1.00  0.00     0.242 C
HETATM   19  O2  UNL     1      13.200 -14.642 -20.048  1.00  0.00    -0.271 OA
HETATM   20  N5  UNL     1      12.967 -12.363 -20.328  1.00  0.00    -0.350 N
ATOM     21  H5  UNL     1      12.576 -11.594 -20.873  1.00  0.00     0.163 HD
BRANCH  20  22
HETATM   22  C7  UNL     1      13.759 -12.100 -19.143  1.00  0.00     0.225 C
BRANCH  22  23
HETATM   23  C8  UNL     1      13.184 -11.074 -18.264  1.00  0.00     0.236 C
HETATM   24  O3  UNL     1      12.077 -11.178 -17.722  1.00  0.00    -0.272 OA
HETATM   25  N6  UNL     1      13.963  -9.898 -18.036  1.00  0.00    -0.347 N
ATOM     26  H6  UNL     1      14.870  -9.808 -18.494  1.00  0.00     0.163 HD
BRANCH  25  27
HETATM   27  C9  UNL     1      13.496  -8.826 -17.170  1.00  0.00     0.172 C
HETATM   28  C10 UNL     1      14.321  -8.856 -15.915  1.00  0.00     0.042 C
BRANCH  27  29
HETATM   29  C11 UNL     1      13.639  -7.510 -17.878  1.00  0.00     0.242 C
HETATM   30  O4  UNL     1      12.757  -7.205 -18.718  1.00  0.00    -0.271 OA
HETATM   31  N7  UNL     1      14.702  -6.620 -17.642  1.00  0.00    -0.346 N
HETATM   32  C12 UNL     1      14.764  -5.339 -18.368  1.00  0.00     0.152 C
HETATM   33  C15 UNL     1      15.799  -6.816 -16.713  1.00  0.00     0.152 C
HETATM   34  C13 UNL     1      14.762  -4.285 -17.242  1.00  0.00     0.187 C
HETATM   35  O5  UNL     1      15.872  -4.494 -16.413  1.00  0.00    -0.388 OA
HETATM   36  C14 UNL     1      15.704  -5.682 -15.694  1.00  0.00     0.187 C
ENDBRANCH  27  29
ENDBRANCH  25  27
ENDBRANCH  22  23
ENDBRANCH  20  22
ENDBRANCH   1  18
BRANCH   1  37
HETATM   37  C16 UNL     1      10.921 -15.051 -21.655  1.00  0.00     0.211 C
HETATM   38  C17 UNL     1       9.653 -14.380 -21.130  1.00  0.00     0.042 C
BRANCH  37  39
HETATM   39  N8  UNL     1      10.546 -15.767 -22.869  1.00  0.00    -0.073 N
ATOM     40  H83 UNL     1      10.057 -15.163 -23.529  1.00  0.00     0.274 HD
ATOM     41  H82 UNL     1      11.361 -15.992 -23.442  1.00  0.00     0.274 HD
ATOM     42  H81 UNL     1      10.001 -16.600 -22.643  1.00  0.00     0.274 HD
ENDBRANCH  37  39
ENDBRANCH   1  37
TORSDOF 13
ENDMDL