MODEL 1
REMARK VINA RESULT: -9.562856291      0.000      0.000
REMARK  12 active torsions:
REMARK  status: ('A' for Active; 'I' for Inactive)
REMARK    1  A    between atoms: C2_2  and  O1_3
REMARK    2  A    between atoms: O1_3  and  C3_4
REMARK       I    between atoms: C3_4  and  N1_6
REMARK    3  A    between atoms: N1_6  and  C4_8
REMARK    4  A    between atoms: C4_8  and  C5_9
REMARK    5  A    between atoms: C5_9  and  N2_10
REMARK    6  A    between atoms: C5_9  and  C15_34
REMARK       I    between atoms: N2_10  and  C6_12
REMARK    7  A    between atoms: C6_12  and  C7_14
REMARK    8  A    between atoms: C7_14  and  N3_15
REMARK    9  A    between atoms: C7_14  and  C14_31
REMARK   10  A    between atoms: N3_15  and  C8_17
REMARK   11  A    between atoms: C8_17  and  C9_19
REMARK       I    between atoms: C9_19  and  N5_21
REMARK       I    between atoms: N6_24  and  C12_25
REMARK   12  A    between atoms: C15_34  and  O7_36
ROOT
HETATM    1  C7  UNL     1      14.223 -14.749 -23.235  1.00  0.00     0.265 C
ENDROOT
BRANCH   1   2
HETATM    2  C6  UNL     1      13.307 -14.051 -22.235  1.00  0.00     0.250 C
HETATM    3  N2  UNL     1      12.409 -14.821 -21.456  1.00  0.00    -0.344 N
ATOM      4  H2  UNL     1      12.349 -15.829 -21.599  1.00  0.00     0.163 HD
HETATM    5  O3  UNL     1      13.372 -12.820 -22.114  1.00  0.00    -0.271 OA
BRANCH   3   6
HETATM    6  C5  UNL     1      11.573 -14.181 -20.454  1.00  0.00     0.202 C
BRANCH   6   7
HETATM    7  C4  UNL     1      12.181 -13.988 -19.118  1.00  0.00     0.160 C
BRANCH   7   8
HETATM    8  N1  UNL     1      11.800 -12.754 -18.489  1.00  0.00    -0.334 N
HETATM    9  C3  UNL     1      12.581 -11.591 -18.527  1.00  0.00     0.360 C
HETATM   10  O2  UNL     1      13.694 -11.530 -19.100  1.00  0.00    -0.239 OA
ATOM     11  H1  UNL     1      10.913 -12.724 -17.987  1.00  0.00     0.164 HD
BRANCH   9  12
HETATM   12  O1  UNL     1      12.155 -10.398 -17.920  1.00  0.00    -0.304 OA
BRANCH  12  13
HETATM   13  C2  UNL     1      12.351  -9.176 -18.555  1.00  0.00     0.176 C
HETATM   14  C1  UNL     1      13.387  -8.322 -17.858  1.00  0.00     0.034 C
ENDBRANCH  12  13
ENDBRANCH   9  12
ENDBRANCH   7   8
ENDBRANCH   6   7
BRANCH   6  15
HETATM   15  C15 UNL     1      10.220 -14.845 -20.369  1.00  0.00     0.283 C
HETATM   16  O6  UNL     1       9.548 -14.813 -19.303  1.00  0.00    -0.263 OA
BRANCH  15  17
HETATM   17  O7  UNL     1       9.638 -15.514 -21.426  1.00  0.00    -0.325 OA
HETATM   18  C16 UNL     1       9.487 -16.926 -21.447  1.00  0.00     0.213 C
ENDBRANCH  15  17
ENDBRANCH   6  15
ENDBRANCH   3   6
ENDBRANCH   1   2
BRANCH   1  19
HETATM   19  N3  UNL     1      14.946 -13.741 -23.936  1.00  0.00    -0.354 N
ATOM     20  H3  UNL     1      15.320 -12.936 -23.434  1.00  0.00     0.162 HD
BRANCH  19  21
HETATM   21  C8  UNL     1      15.140 -13.864 -25.325  1.00  0.00     0.181 C
HETATM   22  N4  UNL     1      14.244 -14.850 -25.930  1.00  0.00    -0.077 NA
BRANCH  21  23
HETATM   23  C9  UNL     1      15.299 -12.648 -26.118  1.00  0.00     0.285 C
HETATM   24  O4  UNL     1      14.871 -11.540 -25.679  1.00  0.00    -0.265 OA
HETATM   25  N5  UNL     1      15.930 -12.626 -27.435  1.00  0.00    -0.328 N
HETATM   26  C10 UNL     1      16.031 -11.411 -28.199  1.00  0.00     0.148 C
HETATM   27  C13 UNL     1      16.500 -13.700 -28.189  1.00  0.00     0.255 C
HETATM   28  C11 UNL     1      16.935 -11.714 -29.348  1.00  0.00     0.147 C
HETATM   29  N6  UNL     1      16.706 -13.147 -29.509  1.00  0.00    -0.338 N
HETATM   30  C12 UNL     1      16.682 -13.831 -30.724  1.00  0.00     0.185 C
HETATM   31  N7  UNL     1      17.780 -14.210 -31.267  1.00  0.00    -0.374 N
HETATM   32  N8  UNL     1      15.464 -14.116 -31.384  1.00  0.00    -0.064 NA
ATOM     33  H72 UNL     1      18.659 -14.004 -30.792  1.00  0.00     0.158 HD
ATOM     34  H71 UNL     1      17.763 -14.710 -32.156  1.00  0.00     0.158 HD
ENDBRANCH  21  23
ENDBRANCH  19  21
ENDBRANCH   1  19
BRANCH   1  35
HETATM   35  C14 UNL     1      15.088 -15.681 -22.448  1.00  0.00     0.263 C
HETATM   36  N9  UNL     1      15.461 -15.357 -21.123  1.00  0.00    -0.060 NA
HETATM   37  O5  UNL     1      15.468 -16.737 -22.971  1.00  0.00    -0.274 OA
ENDBRANCH   1  35
TORSDOF 12
ENDMDL