MODEL 2
REMARK VINA RESULT: -8.191278956      2.025      5.231
REMARK  12 active torsions:
REMARK  status: ('A' for Active; 'I' for Inactive)
REMARK    1  A    between atoms: C2_2  and  C3_4
REMARK    2  A    between atoms: C3_4  and  N1_5
REMARK    3  A    between atoms: C3_4  and  C13_31
REMARK       I    between atoms: N1_5  and  C4_7
REMARK    4  A    between atoms: C4_7  and  C5_9
REMARK    5  A    between atoms: C5_9  and  C6_10
REMARK    6  A    between atoms: C5_9  and  N4_19
REMARK    7  A    between atoms: C6_10  and  C7_11
REMARK       I    between atoms: C7_11  and  N2_13
REMARK    8  A    between atoms: N2_13  and  C8_15
REMARK    9  A    between atoms: C8_15  and  C9_16
REMARK   10  A    between atoms: N4_19  and  S1_21
REMARK   11  A    between atoms: S1_21  and  N5_24
REMARK       I    between atoms: C13_31  and  N7_33
REMARK   12  A    between atoms: N7_33  and  N8_35
ROOT
HETATM    1  C5  UNL     1      14.209 -13.758 -21.176  1.00  0.00     0.195 C
ENDROOT
BRANCH   1   2
HETATM    2  C4  UNL     1      12.704 -13.606 -21.469  1.00  0.00     0.242 C
HETATM    3  N1  UNL     1      11.873 -14.715 -21.356  1.00  0.00    -0.340 N
ATOM      4  H1  UNL     1      12.359 -15.559 -21.053  1.00  0.00     0.163 HD
HETATM    5  O2  UNL     1      12.278 -12.497 -21.797  1.00  0.00    -0.271 OA
BRANCH   3   6
HETATM    6  C3  UNL     1      10.488 -14.909 -21.579  1.00  0.00     0.248 C
BRANCH   6   7
HETATM    7  C2  UNL     1       9.537 -14.652 -20.505  1.00  0.00     0.154 C
HETATM    8  C1  UNL     1       9.894 -14.961 -19.059  1.00  0.00     0.093 C
HETATM    9  O1  UNL     1       8.445 -14.196 -20.677  1.00  0.00    -0.296 OA
ENDBRANCH   6   7
BRANCH   6  10
HETATM   10  C13 UNL     1      10.320 -16.277 -22.176  1.00  0.00     0.265 C
HETATM   11  O8  UNL     1       9.205 -16.804 -22.121  1.00  0.00    -0.269 OA
HETATM   12  N7  UNL     1      11.410 -16.950 -22.785  1.00  0.00    -0.275 N
ATOM     13  H7  UNL     1      12.325 -16.500 -22.820  1.00  0.00     0.189 HD
BRANCH  12  14
HETATM   14  N8  UNL     1      11.246 -18.216 -23.337  1.00  0.00    -0.343 N
ATOM     15  H82 UNL     1      10.795 -18.298 -24.248  1.00  0.00     0.176 HD
ATOM     16  H81 UNL     1      11.568 -19.047 -22.841  1.00  0.00     0.176 HD
ENDBRANCH  12  14
ENDBRANCH   6  10
ENDBRANCH   3   6
ENDBRANCH   1   2
BRANCH   1  17
HETATM   17  C6  UNL     1      14.618 -13.007 -19.961  1.00  0.00     0.138 C
BRANCH  17  18
HETATM   18  C7  UNL     1      13.464 -12.350 -19.283  1.00  0.00     0.220 C
HETATM   19  O3  UNL     1      12.647 -13.086 -18.677  1.00  0.00    -0.274 OA
HETATM   20  N2  UNL     1      13.233 -10.958 -19.275  1.00  0.00    -0.353 N
ATOM     21  H2  UNL     1      13.882 -10.336 -19.759  1.00  0.00     0.162 HD
BRANCH  20  22
HETATM   22  C8  UNL     1      12.094 -10.408 -18.590  1.00  0.00     0.222 C
BRANCH  22  23
HETATM   23  C9  UNL     1      12.475  -9.484 -17.484  1.00  0.00     0.248 C
HETATM   24  N3  UNL     1      13.168  -8.303 -17.831  1.00  0.00    -0.061 NA
HETATM   25  O4  UNL     1      12.198  -9.736 -16.290  1.00  0.00    -0.275 OA
ENDBRANCH  22  23
ENDBRANCH  20  22
ENDBRANCH  17  18
ENDBRANCH   1  17
BRANCH   1  26
HETATM   26  N4  UNL     1      14.978 -13.660 -22.327  1.00  0.00    -0.288 N
ATOM     27  H4  UNL     1      15.620 -12.870 -22.396  1.00  0.00     0.174 HD
BRANCH  26  28
HETATM   28  S1  UNL     1      14.938 -14.715 -23.593  1.00  0.00     0.325 S
HETATM   29  O5  UNL     1      16.135 -15.643 -23.698  1.00  0.00    -0.182 OA
HETATM   30  O6  UNL     1      13.741 -15.622 -23.657  1.00  0.00    -0.182 OA
BRANCH  28  31
HETATM   31  N5  UNL     1      14.942 -13.815 -25.071  1.00  0.00    -0.209 N
HETATM   32  C10 UNL     1      15.057 -14.278 -26.441  1.00  0.00     0.167 C
HETATM   33  C11 UNL     1      15.625 -13.073 -27.197  1.00  0.00     0.145 C
HETATM   34  N6  UNL     1      15.041 -11.945 -26.486  1.00  0.00    -0.341 N
HETATM   35  C12 UNL     1      14.832 -12.400 -25.163  1.00  0.00     0.333 C
ATOM     36  H6  UNL     1      14.827 -11.022 -26.863  1.00  0.00     0.164 HD
HETATM   37  O7  UNL     1      14.580 -11.618 -24.206  1.00  0.00    -0.246 OA
ENDBRANCH  28  31
ENDBRANCH  26  28
ENDBRANCH   1  26
TORSDOF 12
ENDMDL