MODEL 1
REMARK VINA RESULT: -9.140031637      0.000      0.000
REMARK  14 active torsions:
REMARK  status: ('A' for Active; 'I' for Inactive)
REMARK    1  A    between atoms: C2_2  and  C4_4
REMARK    2  A    between atoms: C4_4  and  C5_5
REMARK    3  A    between atoms: C4_4  and  N7_36
REMARK       I    between atoms: C5_5  and  N1_7
REMARK    4  A    between atoms: N1_7  and  C6_9
REMARK    5  A    between atoms: C6_9  and  C7_10
REMARK    6  A    between atoms: C6_9  and  C10_16
REMARK    7  A    between atoms: C10_16  and  N3_17
REMARK    8  A    between atoms: C10_16  and  C11_21
REMARK    9  A    between atoms: C11_21  and  N4_22
REMARK   10  A    between atoms: C11_21  and  C12_26
REMARK       I    between atoms: C12_26  and  N5_28
REMARK   11  A    between atoms: N5_28  and  C13_30
REMARK   12  A    between atoms: C13_30  and  C14_31
REMARK   13  A    between atoms: C14_31  and  C15_33
REMARK       I    between atoms: N7_36  and  C17_38
REMARK   14  A    between atoms: C17_38  and  C18_40
ROOT
HETATM    1  C6  UNL     1      11.070 -14.656 -21.859  1.00  0.00     0.124 C
ENDROOT
BRANCH   1   2
HETATM    2  N1  UNL     1      12.011 -14.924 -23.004  1.00  0.00    -0.352 N
HETATM    3  C5  UNL     1      13.262 -15.522 -22.816  1.00  0.00     0.241 C
HETATM    4  O1  UNL     1      13.556 -15.831 -21.606  1.00  0.00    -0.271 OA
ATOM      5  H1  UNL     1      11.728 -14.660 -23.948  1.00  0.00     0.163 HD
BRANCH   3   6
HETATM    6  C4  UNL     1      14.177 -15.777 -23.930  1.00  0.00     0.182 C
BRANCH   6   7
HETATM    7  C2  UNL     1      15.154 -14.708 -24.249  1.00  0.00     0.009 C
HETATM    8  C1  UNL     1      15.036 -13.625 -23.194  1.00  0.00     0.012 C
HETATM    9  C3  UNL     1      15.100 -14.092 -25.590  1.00  0.00     0.012 C
ENDBRANCH   6   7
BRANCH   6  10
HETATM   10  N7  UNL     1      14.692 -17.119 -23.882  1.00  0.00    -0.335 N
HETATM   11  C16 UNL     1      16.126 -17.381 -23.711  1.00  0.00     0.154 C
HETATM   12  C17 UNL     1      13.858 -18.264 -24.020  1.00  0.00     0.309 C
HETATM   13  O5  UNL     1      12.609 -18.015 -24.173  1.00  0.00    -0.263 OA
BRANCH  12  14
HETATM   14  C18 UNL     1      14.285 -19.615 -24.001  1.00  0.00     0.322 C
HETATM   15  N8  UNL     1      14.464 -20.328 -25.245  1.00  0.00    -0.053 NA
HETATM   16  O6  UNL     1      14.532 -20.274 -22.976  1.00  0.00    -0.266 OA
ENDBRANCH  12  14
ENDBRANCH   6  10
ENDBRANCH   3   6
ENDBRANCH   1   2
BRANCH   1  17
HETATM   17  C7  UNL     1      10.730 -16.008 -21.403  1.00  0.00     0.062 C
HETATM   18  C8  UNL     1       9.542 -16.334 -20.594  1.00  0.00     0.240 C
HETATM   19  N2  UNL     1       9.194 -17.471 -21.476  1.00  0.00    -0.074 N
HETATM   20  C9  UNL     1       9.938 -16.742 -22.502  1.00  0.00     0.240 C
ATOM     21  H22 UNL     1       9.414 -18.436 -21.230  1.00  0.00     0.277 HD
ATOM     22  H21 UNL     1       8.230 -17.774 -21.617  1.00  0.00     0.277 HD
ENDBRANCH   1  17
BRANCH   1  23
HETATM   23  C10 UNL     1      11.810 -13.694 -21.069  1.00  0.00     0.246 C
BRANCH  23  24
HETATM   24  N3  UNL     1      11.493 -12.339 -21.559  1.00  0.00    -0.071 N
ATOM     25  H33 UNL     1      10.503 -12.221 -21.771  1.00  0.00     0.274 HD
ATOM     26  H32 UNL     1      11.564 -11.633 -20.826  1.00  0.00     0.274 HD
ATOM     27  H31 UNL     1      12.092 -12.134 -22.359  1.00  0.00     0.274 HD
ENDBRANCH  23  24
BRANCH  23  28
HETATM   28  C11 UNL     1      11.942 -13.650 -19.622  1.00  0.00     0.306 C
BRANCH  28  29
HETATM   29  N4  UNL     1      10.680 -13.833 -18.899  1.00  0.00    -0.064 N
ATOM     30  H43 UNL     1      10.167 -14.631 -19.274  1.00  0.00     0.275 HD
ATOM     31  H42 UNL     1      10.857 -14.170 -17.953  1.00  0.00     0.275 HD
ATOM     32  H41 UNL     1      10.086 -13.004 -18.878  1.00  0.00     0.275 HD
ENDBRANCH  28  29
BRANCH  28  33
HETATM   33  C12 UNL     1      12.673 -12.481 -19.044  1.00  0.00     0.250 C
HETATM   34  O2  UNL     1      13.834 -12.183 -19.511  1.00  0.00    -0.271 OA
HETATM   35  N5  UNL     1      12.217 -11.642 -18.013  1.00  0.00    -0.352 N
ATOM     36  H5  UNL     1      11.299 -11.819 -17.606  1.00  0.00     0.162 HD
BRANCH  35  37
HETATM   37  C13 UNL     1      12.997 -10.539 -17.509  1.00  0.00     0.211 C
BRANCH  37  38
HETATM   38  C14 UNL     1      12.771  -9.255 -18.163  1.00  0.00     0.231 C
HETATM   39  O3  UNL     1      11.761  -9.069 -18.875  1.00  0.00    -0.286 OA
BRANCH  38  40
HETATM   40  C15 UNL     1      13.713  -8.161 -18.002  1.00  0.00     0.302 C
HETATM   41  N6  UNL     1      15.067  -8.364 -17.629  1.00  0.00    -0.054 NA
HETATM   42  O4  UNL     1      13.366  -6.955 -18.191  1.00  0.00    -0.268 OA
ENDBRANCH  38  40
ENDBRANCH  37  38
ENDBRANCH  35  37
ENDBRANCH  28  33
ENDBRANCH  23  28
ENDBRANCH   1  23
TORSDOF 14
ENDMDL