MODEL 5
REMARK VINA RESULT: -8.898442185      1.207      1.472
REMARK  16 active torsions:
REMARK  status: ('A' for Active; 'I' for Inactive)
REMARK    1  A    between atoms: C2_2  and  C3_3
REMARK    2  A    between atoms: C2_2  and  N1_5
REMARK    3  A    between atoms: N1_5  and  C4_7
REMARK    4  A    between atoms: C4_7  and  O2_8
REMARK    5  A    between atoms: C4_7  and  C5_10
REMARK    6  A    between atoms: C5_10  and  N2_11
REMARK    7  A    between atoms: C5_10  and  C18_34
REMARK       I    between atoms: N2_11  and  C6_13
REMARK    8  A    between atoms: C6_13  and  C7_15
REMARK       I    between atoms: N3_19  and  C11_20
REMARK    9  A    between atoms: C11_20  and  C12_22
REMARK   10  A    between atoms: C12_22  and  N4_23
REMARK       I    between atoms: N4_23  and  C13_24
REMARK   11  A    between atoms: C13_24  and  C14_26
REMARK   12  A    between atoms: C14_26  and  N5_27
REMARK   13  A    between atoms: C14_26  and  C15_31
REMARK   14  A    between atoms: C18_34  and  N6_35
REMARK   15  A    between atoms: C18_34  and  C19_39
REMARK       I    between atoms: C19_39  and  N7_41
REMARK   16  A    between atoms: N7_41  and  N8_43
ROOT
HETATM    1  N2  UNL     1      13.497 -13.759 -20.558  1.00  0.00    -0.345 N
ATOM      2  H2  UNL     1      14.162 -14.332 -20.038  1.00  0.00     0.163 HD
HETATM    3  C6  UNL     1      13.796 -13.352 -21.861  1.00  0.00     0.241 C
HETATM    4  O3  UNL     1      12.955 -12.661 -22.495  1.00  0.00    -0.271 OA
ENDROOT
BRANCH   1   5
HETATM    5  C5  UNL     1      12.237 -13.366 -19.942  1.00  0.00     0.198 C
BRANCH   5   6
HETATM    6  C4  UNL     1      12.523 -12.298 -19.007  1.00  0.00     0.138 C
BRANCH   6   7
HETATM    7  N1  UNL     1      12.451 -10.936 -19.234  1.00  0.00    -0.362 N
ATOM      8  H1  UNL     1      12.324 -10.583 -20.182  1.00  0.00     0.162 HD
BRANCH   7   9
HETATM    9  C2  UNL     1      12.559  -9.990 -18.097  1.00  0.00     0.140 C
HETATM   10  C1  UNL     1      13.995  -9.498 -18.060  1.00  0.00     0.039 C
BRANCH   9  11
HETATM   11  C3  UNL     1      11.672  -8.834 -18.334  1.00  0.00     0.255 C
HETATM   12  O1  UNL     1      12.098  -7.826 -18.896  1.00  0.00    -0.305 OA
ENDBRANCH   9  11
ENDBRANCH   7   9
ENDBRANCH   6   7
BRANCH   6  13
HETATM   13  O2  UNL     1      12.891 -12.664 -17.811  1.00  0.00    -0.348 OA
ATOM     14  H2  UNL     1      13.815 -12.571 -17.609  1.00  0.00     0.219 HD
ENDBRANCH   6  13
ENDBRANCH   5   6
BRANCH   5  15
HETATM   15  C18 UNL     1      11.408 -14.468 -19.407  1.00  0.00     0.306 C
BRANCH  15  16
HETATM   16  N6  UNL     1      10.403 -13.854 -18.522  1.00  0.00    -0.064 N
ATOM     17  H63 UNL     1       9.549 -13.586 -19.010  1.00  0.00     0.275 HD
ATOM     18  H62 UNL     1       9.980 -14.516 -17.873  1.00  0.00     0.275 HD
ATOM     19  H61 UNL     1      10.862 -13.071 -18.056  1.00  0.00     0.275 HD
ENDBRANCH  15  16
BRANCH  15  20
HETATM   20  C19 UNL     1      10.757 -15.269 -20.451  1.00  0.00     0.268 C
HETATM   21  O6  UNL     1      11.359 -15.555 -21.502  1.00  0.00    -0.269 OA
HETATM   22  N7  UNL     1       9.431 -15.723 -20.275  1.00  0.00    -0.275 N
ATOM     23  H7  UNL     1       8.962 -15.471 -19.405  1.00  0.00     0.189 HD
BRANCH  22  24
HETATM   24  N8  UNL     1       8.707 -16.492 -21.194  1.00  0.00    -0.343 N
ATOM     25  H82 UNL     1       8.601 -16.094 -22.127  1.00  0.00     0.176 HD
ATOM     26  H81 UNL     1       8.286 -17.401 -21.004  1.00  0.00     0.176 HD
ENDBRANCH  22  24
ENDBRANCH  15  20
ENDBRANCH   5  15
ENDBRANCH   1   5
BRANCH   3  27
HETATM   27  C7  UNL     1      15.060 -13.671 -22.573  1.00  0.00     0.179 C
HETATM   28  C8  UNL     1      15.642 -14.997 -22.127  1.00  0.00     0.037 C
HETATM   29  C9  UNL     1      15.638 -15.875 -23.381  1.00  0.00     0.022 C
HETATM   30  C10 UNL     1      14.548 -15.207 -24.191  1.00  0.00     0.127 C
HETATM   31  N3  UNL     1      14.862 -13.802 -23.998  1.00  0.00    -0.333 N
HETATM   32  C11 UNL     1      14.926 -12.828 -24.999  1.00  0.00     0.273 C
HETATM   33  O4  UNL     1      15.170 -11.617 -24.847  1.00  0.00    -0.266 OA
BRANCH  32  34
HETATM   34  C12 UNL     1      14.668 -13.278 -26.440  1.00  0.00     0.260 C
BRANCH  34  35
HETATM   35  N4  UNL     1      15.450 -14.079 -27.017  1.00  0.00    -0.376 NA
HETATM   36  C13 UNL     1      16.308 -15.172 -27.610  1.00  0.00     0.322 C
HETATM   37  O5  UNL     1      16.165 -16.316 -27.274  1.00  0.00    -0.255 OA
BRANCH  36  38
HETATM   38  C14 UNL     1      17.306 -14.750 -28.598  1.00  0.00     0.293 C
BRANCH  38  39
HETATM   39  N5  UNL     1      18.015 -15.939 -29.029  1.00  0.00    -0.065 N
ATOM     40  H53 UNL     1      18.034 -16.047 -30.043  1.00  0.00     0.275 HD
ATOM     41  H52 UNL     1      19.023 -15.877 -28.884  1.00  0.00     0.275 HD
ATOM     42  H51 UNL     1      17.592 -16.735 -28.552  1.00  0.00     0.275 HD
ENDBRANCH  38  39
BRANCH  38  43
HETATM   43  C15 UNL     1      16.780 -14.058 -29.813  1.00  0.00     0.018 C
HETATM   44  C16 UNL     1      17.069 -12.556 -29.719  1.00  0.00     0.012 C
HETATM   45  C17 UNL     1      17.262 -14.568 -31.126  1.00  0.00     0.012 C
ENDBRANCH  38  43
ENDBRANCH  36  38
ENDBRANCH  34  35
ENDBRANCH  32  34
ENDBRANCH   3  27
TORSDOF 16
ENDMDL