MODEL 2
REMARK VINA RESULT: -7.722486249      2.176      8.791
REMARK  13 active torsions:
REMARK  status: ('A' for Active; 'I' for Inactive)
REMARK    1  A    between atoms: O1_2  and  C2_3
REMARK       I    between atoms: C2_3  and  N1_5
REMARK    2  A    between atoms: N1_5  and  C3_7
REMARK    3  A    between atoms: C3_7  and  C4_8
REMARK    4  A    between atoms: C3_7  and  C5_11
REMARK    5  A    between atoms: C5_11  and  C6_12
REMARK    6  A    between atoms: C5_11  and  C7_15
REMARK    7  A    between atoms: C7_15  and  O5_16
REMARK    8  A    between atoms: C7_15  and  C8_18
REMARK       I    between atoms: C8_18  and  N4_20
REMARK    9  A    between atoms: C12_24  and  C13_25
REMARK       I    between atoms: C13_25  and  N5_27
REMARK   10  A    between atoms: N5_27  and  C14_29
REMARK   11  A    between atoms: C14_29  and  C15_30
REMARK   12  A    between atoms: C14_29  and  C17_34
REMARK   13  A    between atoms: C15_30  and  C16_31
ROOT
HETATM    1  C8  UNL     1      14.720 -13.043 -24.599  1.00  0.00     0.250 C
HETATM    2  O6  UNL     1      14.918 -11.820 -24.363  1.00  0.00    -0.270 OA
HETATM    3  N4  UNL     1      14.836 -13.934 -23.500  1.00  0.00    -0.337 N
HETATM    4  C9  UNL     1      14.702 -15.375 -23.426  1.00  0.00     0.127 C
HETATM    5  C10 UNL     1      15.895 -15.735 -22.525  1.00  0.00     0.022 C
HETATM    6  C11 UNL     1      15.761 -14.697 -21.435  1.00  0.00     0.037 C
HETATM    7  C12 UNL     1      15.134 -13.530 -22.117  1.00  0.00     0.179 C
ENDROOT
BRANCH   1   8
HETATM    8  C7  UNL     1      14.392 -13.439 -25.976  1.00  0.00     0.225 C
BRANCH   8   9
HETATM    9  C5  UNL     1      15.625 -13.750 -26.773  1.00  0.00     0.144 C
BRANCH   9  10
HETATM   10  C3  UNL     1      15.715 -12.979 -28.066  1.00  0.00     0.191 C
BRANCH  10  11
HETATM   11  N1  UNL     1      16.840 -13.506 -28.815  1.00  0.00    -0.323 N
HETATM   12  C2  UNL     1      16.867 -13.647 -30.206  1.00  0.00     0.360 C
HETATM   13  O2  UNL     1      15.886 -13.314 -30.911  1.00  0.00    -0.239 OA
ATOM     14  H1  UNL     1      17.668 -13.794 -28.292  1.00  0.00     0.165 HD
BRANCH  12  15
HETATM   15  O1  UNL     1      17.983 -14.162 -30.844  1.00  0.00    -0.309 OA
HETATM   16  C1  UNL     1      17.912 -15.288 -31.709  1.00  0.00     0.215 C
ENDBRANCH  12  15
ENDBRANCH  10  11
BRANCH  10  17
HETATM   17  C4  UNL     1      15.743 -11.528 -27.935  1.00  0.00     0.255 C
HETATM   18  N2  UNL     1      16.850 -10.733 -28.328  1.00  0.00    -0.060 NA
HETATM   19  O3  UNL     1      14.757 -10.875 -27.451  1.00  0.00    -0.275 OA
ENDBRANCH  10  17
ENDBRANCH   9  10
BRANCH   9  20
HETATM   20  C6  UNL     1      15.776 -15.223 -27.013  1.00  0.00     0.240 C
HETATM   21  N3  UNL     1      15.384 -15.818 -28.240  1.00  0.00    -0.062 NA
HETATM   22  O4  UNL     1      16.250 -16.012 -26.156  1.00  0.00    -0.276 OA
ENDBRANCH   9  20
ENDBRANCH   8   9
BRANCH   8  23
HETATM   23  O5  UNL     1      13.504 -14.523 -25.972  1.00  0.00    -0.385 OA
ATOM     24  H5  UNL     1      13.020 -14.573 -26.787  1.00  0.00     0.210 HD
ENDBRANCH   8  23
ENDBRANCH   1   8
BRANCH   7  25
HETATM   25  C13 UNL     1      13.902 -13.059 -21.469  1.00  0.00     0.241 C
HETATM   26  O7  UNL     1      12.885 -12.690 -22.104  1.00  0.00    -0.271 OA
HETATM   27  N5  UNL     1      13.869 -13.021 -20.031  1.00  0.00    -0.346 N
ATOM     28  H5  UNL     1      14.690 -13.320 -19.505  1.00  0.00     0.163 HD
BRANCH  27  29
HETATM   29  C14 UNL     1      12.704 -12.572 -19.321  1.00  0.00     0.182 C
BRANCH  29  30
HETATM   30  C15 UNL     1      12.011 -13.638 -18.535  1.00  0.00     0.134 C
BRANCH  30  31
HETATM   31  C16 UNL     1      10.972 -14.380 -19.252  1.00  0.00     0.233 C
HETATM   32  N6  UNL     1       9.891 -14.908 -18.501  1.00  0.00    -0.062 NA
HETATM   33  O8  UNL     1      10.970 -14.581 -20.482  1.00  0.00    -0.277 OA
ENDBRANCH  30  31
ENDBRANCH  29  30
BRANCH  29  34
HETATM   34  C17 UNL     1      13.019 -11.379 -18.491  1.00  0.00     0.254 C
HETATM   35  N7  UNL     1      12.164 -11.073 -17.411  1.00  0.00    -0.060 NA
HETATM   36  O9  UNL     1      14.029 -10.651 -18.745  1.00  0.00    -0.275 OA
ENDBRANCH  29  34
ENDBRANCH  27  29
ENDBRANCH   7  25
TORSDOF 13
ENDMDL