MODEL 5
REMARK VINA RESULT: -7.843468398      3.319      8.702
REMARK  12 active torsions:
REMARK  status: ('A' for Active; 'I' for Inactive)
REMARK    1  A    between atoms: C2_2  and  C4_4
REMARK    2  A    between atoms: C4_4  and  N1_5
REMARK    3  A    between atoms: C4_4  and  C11_24
REMARK       I    between atoms: N1_5  and  C5_7
REMARK    4  A    between atoms: C5_7  and  C6_9
REMARK    5  A    between atoms: C6_9  and  N2_10
REMARK    6  A    between atoms: C6_9  and  C10_21
REMARK       I    between atoms: N2_10  and  C7_12
REMARK    7  A    between atoms: C7_12  and  C8_14
REMARK    8  A    between atoms: C8_14  and  N3_15
REMARK    9  A    between atoms: C8_14  and  C9_19
REMARK       I    between atoms: C11_24  and  N5_26
REMARK   10  A    between atoms: N5_26  and  C12_28
REMARK   11  A    between atoms: C12_28  and  C13_29
REMARK   12  A    between atoms: C15_33  and  S1_34
ROOT
HETATM    1  N1  UNL     1      14.854 -15.071 -26.250  1.00  0.00    -0.323 N
ATOM      2  H1  UNL     1      14.554 -15.128 -27.223  1.00  0.00     0.169 HD
HETATM    3  C5  UNL     1      15.369 -16.361 -25.808  1.00  0.00     0.254 C
HETATM    4  O1  UNL     1      15.863 -16.377 -24.690  1.00  0.00    -0.270 OA
ENDROOT
BRANCH   1   5
HETATM    5  C4  UNL     1      14.647 -13.806 -25.767  1.00  0.00     0.083 C
BRANCH   5   6
HETATM    6  C2  UNL     1      15.472 -12.828 -26.595  1.00  0.00     0.033 C
HETATM    7  C1  UNL     1      15.964 -13.428 -27.887  1.00  0.00     0.016 C
HETATM    8  C3  UNL     1      14.713 -11.569 -26.950  1.00  0.00     0.016 C
ENDBRANCH   5   6
BRANCH   5   9
HETATM    9  C11 UNL     1      14.469 -13.439 -24.370  1.00  0.00     0.265 C
HETATM   10  O5  UNL     1      14.984 -12.400 -23.892  1.00  0.00    -0.266 OA
HETATM   11  N5  UNL     1      13.689 -14.299 -23.472  1.00  0.00    -0.337 N
ATOM     12  H5  UNL     1      13.182 -15.107 -23.836  1.00  0.00     0.164 HD
BRANCH  11  13
HETATM   13  C12 UNL     1      13.654 -13.978 -22.051  1.00  0.00     0.133 A
HETATM   14  C14 UNL     1      12.243 -14.443 -21.523  1.00  0.00     0.068 A
HETATM   15  C15 UNL     1      12.793 -13.060 -21.386  1.00  0.00     0.170 A
BRANCH  13  16
HETATM   16  C13 UNL     1      14.699 -14.836 -21.371  1.00  0.00     0.261 C
HETATM   17  N6  UNL     1      15.942 -14.227 -21.131  1.00  0.00    -0.060 NA
HETATM   18  O6  UNL     1      14.480 -16.025 -21.058  1.00  0.00    -0.274 OA
ENDBRANCH  13  16
BRANCH  15  19
HETATM   19  S1  UNL     1      12.957 -12.579 -19.689  1.00  0.00     0.109 S
HETATM   20  O7  UNL     1      12.373 -13.542 -18.718  1.00  0.00    -0.595 OA
HETATM   21  O8  UNL     1      14.349 -12.249 -19.293  1.00  0.00    -0.595 OA
HETATM   22  O9  UNL     1      12.074 -11.103 -19.536  1.00  0.00    -0.595 OA
ENDBRANCH  15  19
ENDBRANCH  11  13
ENDBRANCH   5   9
ENDBRANCH   1   5
BRANCH   3  23
HETATM   23  C6  UNL     1      15.216 -17.476 -26.667  1.00  0.00     0.267 C
BRANCH  23  24
HETATM   24  N2  UNL     1      15.895 -18.410 -27.396  1.00  0.00    -0.338 N
HETATM   25  C7  UNL     1      16.747 -18.147 -28.537  1.00  0.00     0.256 C
HETATM   26  O2  UNL     1      16.812 -16.958 -28.974  1.00  0.00    -0.271 OA
ATOM     27  H2  UNL     1      15.793 -19.384 -27.111  1.00  0.00     0.163 HD
BRANCH  25  28
HETATM   28  C8  UNL     1      17.572 -19.197 -29.179  1.00  0.00     0.335 C
BRANCH  28  29
HETATM   29  N3  UNL     1      17.785 -18.741 -30.572  1.00  0.00    -0.060 N
ATOM     30  H33 UNL     1      16.922 -18.496 -31.059  1.00  0.00     0.275 HD
ATOM     31  H32 UNL     1      18.227 -17.825 -30.640  1.00  0.00     0.275 HD
ATOM     32  H31 UNL     1      18.313 -19.486 -31.028  1.00  0.00     0.275 HD
ENDBRANCH  28  29
BRANCH  28  33
HETATM   33  C9  UNL     1      18.916 -19.248 -28.518  1.00  0.00     0.273 C
HETATM   34  O3  UNL     1      18.934 -19.000 -27.326  1.00  0.00    -0.304 OA
ENDBRANCH  28  33
ENDBRANCH  25  28
ENDBRANCH  23  24
BRANCH  23  35
HETATM   35  C10 UNL     1      14.392 -18.513 -25.687  1.00  0.00     0.263 C
HETATM   36  N4  UNL     1      14.634 -19.848 -25.963  1.00  0.00    -0.060 NA
HETATM   37  O4  UNL     1      13.669 -18.050 -24.844  1.00  0.00    -0.274 OA
ENDBRANCH  23  35
ENDBRANCH   3  23
TORSDOF 12
ENDMDL