MODEL 5
REMARK VINA RESULT: -9.005931350      2.107      8.315
REMARK  13 active torsions:
REMARK  status: ('A' for Active; 'I' for Inactive)
REMARK       I    between atoms: C2_2  and  N1_4
REMARK    1  A    between atoms: C5_7  and  N2_8
REMARK    2  A    between atoms: N2_8  and  C6_10
REMARK    3  A    between atoms: C6_10  and  C7_11
REMARK    4  A    between atoms: C6_10  and  C16_34
REMARK       I    between atoms: C7_11  and  N3_13
REMARK    5  A    between atoms: N3_13  and  C8_15
REMARK    6  A    between atoms: C8_15  and  O3_16
REMARK    7  A    between atoms: C8_15  and  C9_18
REMARK    8  A    between atoms: C9_18  and  N4_19
REMARK    9  A    between atoms: C9_18  and  C10_23
REMARK   10  A    between atoms: C10_23  and  C12_25
REMARK       I    between atoms: C12_25  and  N5_27
REMARK   11  A    between atoms: N5_27  and  C13_29
REMARK   12  A    between atoms: C13_29  and  C15_31
REMARK   13  A    between atoms: C16_34  and  C17_36
ROOT
HETATM    1  C7  UNL     1      13.802 -14.702 -22.259  1.00  0.00     0.253 C
HETATM    2  O2  UNL     1      14.396 -15.183 -21.284  1.00  0.00    -0.270 OA
HETATM    3  N3  UNL     1      12.793 -13.746 -22.081  1.00  0.00    -0.307 N
ATOM      4  H3  UNL     1      12.366 -13.435 -22.954  1.00  0.00     0.170 HD
ENDROOT
BRANCH   3   5
HETATM    5  C8  UNL     1      12.262 -13.143 -20.962  1.00  0.00     0.150 C
BRANCH   5   6
HETATM    6  O3  UNL     1      11.605 -12.029 -21.206  1.00  0.00    -0.348 OA
ATOM      7  H3  UNL     1      10.928 -11.827 -20.572  1.00  0.00     0.219 HD
ENDBRANCH   5   6
BRANCH   5   8
HETATM    8  C9  UNL     1      12.262 -13.468 -19.534  1.00  0.00     0.270 C
BRANCH   8   9
HETATM    9  N4  UNL     1      11.050 -13.376 -18.822  1.00  0.00    -0.067 N
ATOM     10  H43 UNL     1      10.893 -12.404 -18.558  1.00  0.00     0.275 HD
ATOM     11  H42 UNL     1      10.274 -13.532 -19.466  1.00  0.00     0.275 HD
ATOM     12  H41 UNL     1      10.921 -13.967 -18.000  1.00  0.00     0.275 HD
ENDBRANCH   8   9
BRANCH   8  13
HETATM   13  C10 UNL     1      13.332 -12.681 -18.777  1.00  0.00     0.112 C
HETATM   14  C11 UNL     1      14.405 -12.317 -19.759  1.00  0.00     0.022 C
BRANCH  13  15
HETATM   15  C12 UNL     1      12.792 -11.452 -18.158  1.00  0.00     0.224 C
HETATM   16  O4  UNL     1      12.139 -11.406 -17.084  1.00  0.00    -0.273 OA
HETATM   17  N5  UNL     1      13.009 -10.185 -18.805  1.00  0.00    -0.348 N
ATOM     18  H5  UNL     1      13.537 -10.158 -19.677  1.00  0.00     0.163 HD
BRANCH  17  19
HETATM   19  C13 UNL     1      12.502  -8.954 -18.257  1.00  0.00     0.169 C
HETATM   20  C14 UNL     1      11.547  -8.249 -19.168  1.00  0.00     0.042 C
BRANCH  19  21
HETATM   21  C15 UNL     1      13.644  -8.053 -17.924  1.00  0.00     0.253 C
HETATM   22  N6  UNL     1      14.806  -8.624 -17.343  1.00  0.00    -0.060 NA
HETATM   23  O5  UNL     1      13.574  -6.833 -18.155  1.00  0.00    -0.275 OA
ENDBRANCH  19  21
ENDBRANCH  17  19
ENDBRANCH  13  15
ENDBRANCH   8  13
ENDBRANCH   5   8
ENDBRANCH   3   5
BRANCH   1  24
HETATM   24  C6  UNL     1      14.241 -15.214 -23.607  1.00  0.00     0.251 C
BRANCH  24  25
HETATM   25  N2  UNL     1      13.650 -14.611 -24.712  1.00  0.00    -0.397 N
ATOM     26  H2  UNL     1      12.636 -14.700 -24.782  1.00  0.00     0.154 HD
BRANCH  25  27
HETATM   27  C5  UNL     1      14.260 -13.915 -25.713  1.00  0.00     0.097 C
HETATM   28  C4  UNL     1      14.812 -12.557 -25.605  1.00  0.00     0.046 C
HETATM   29  C3  UNL     1      15.326 -12.353 -27.050  1.00  0.00     0.128 C
HETATM   30  N1  UNL     1      15.790 -13.658 -27.396  1.00  0.00    -0.350 N
HETATM   31  C2  UNL     1      16.484 -13.970 -28.606  1.00  0.00     0.215 C
HETATM   32  C18 UNL     1      15.461 -14.638 -26.355  1.00  0.00     0.150 C
HETATM   33  C1  UNL     1      16.769 -12.920 -29.600  1.00  0.00     0.117 C
HETATM   34  O1  UNL     1      16.856 -15.150 -28.827  1.00  0.00    -0.274 OA
ENDBRANCH  25  27
ENDBRANCH  24  25
BRANCH  24  35
HETATM   35  C16 UNL     1      13.803 -16.664 -23.629  1.00  0.00     0.245 C
HETATM   36  O6  UNL     1      12.747 -16.915 -22.951  1.00  0.00    -0.285 OA
BRANCH  35  37
HETATM   37  C17 UNL     1      14.470 -17.714 -24.337  1.00  0.00     0.303 C
HETATM   38  N7  UNL     1      15.828 -18.005 -24.051  1.00  0.00    -0.054 NA
HETATM   39  O7  UNL     1      13.907 -18.397 -25.206  1.00  0.00    -0.268 OA
ENDBRANCH  35  37
ENDBRANCH  24  35
ENDBRANCH   1  24
TORSDOF 13
ENDMDL