MODEL 1
REMARK VINA RESULT: -5.333874324      0.000      0.000
REMARK  2 active torsions:
REMARK  status: ('A' for Active; 'I' for Inactive)
REMARK    1  A    between atoms: C1_2  and  N1_3
REMARK    2  A    between atoms: N1_3  and  C2_5
ROOT
HETATM    1  C2  UNL     1     -17.925   1.488 -12.014  1.00  0.00     0.081 C
HETATM    2  C3  UNL     1     -16.786   2.493 -11.899  1.00  0.00     0.025 C
HETATM    3  C4  UNL     1     -16.695   3.405 -13.078  1.00  0.00     0.002 C
HETATM    4  C5  UNL     1     -16.848   2.734 -14.399  1.00  0.00     0.000 C
HETATM    5  C6  UNL     1     -17.988   1.727 -14.430  1.00  0.00     0.002 C
HETATM    6  C7  UNL     1     -17.695   0.737 -13.316  1.00  0.00     0.025 C
ENDROOT
BRANCH   1   7
HETATM    7  N1  UNL     1     -17.783   0.524 -10.947  1.00  0.00    -0.386 N
ATOM      8  H1  UNL     1     -17.429  -0.408 -11.163  1.00  0.00     0.160 HD
BRANCH   7   9
HETATM    9  C1  UNL     1     -18.090   0.812  -9.740  1.00  0.00     0.166 C
HETATM   10  S1  UNL     1     -18.549   1.465  -8.316  1.00  0.00    -0.075 SA
ENDBRANCH   7   9
ENDBRANCH   1   7
TORSDOF 2
ENDMDL