MODEL 1
REMARK VINA RESULT: -6.438657435      0.000      0.000
REMARK  2 active torsions:
REMARK  status: ('A' for Active; 'I' for Inactive)
REMARK    1  A    between atoms: O1_1  and  O2_3
REMARK    2  A    between atoms: O2_3  and  C1_4
ROOT
HETATM    1  C1  UNL     1     -17.499   0.677 -12.106  1.00  0.00     0.160 C
HETATM    2  C2  UNL     1     -17.892   0.831 -13.545  1.00  0.00     0.036 C
HETATM    3  C3  UNL     1     -17.125   1.815 -14.316  1.00  0.00     0.012 C
HETATM    4  C4  UNL     1     -16.806   3.099 -13.654  1.00  0.00    -0.040 A
HETATM    5  C5  UNL     1     -16.604   3.019 -12.171  1.00  0.00     0.012 C
HETATM    6  C6  UNL     1     -16.403   1.612 -11.678  1.00  0.00     0.036 C
HETATM    7  C7  UNL     1     -17.219   4.419 -14.189  1.00  0.00     0.010 A
HETATM    8  C8  UNL     1     -15.797   3.963 -14.429  1.00  0.00     0.010 A
ENDROOT
BRANCH   1   9
HETATM    9  O2  UNL     1     -18.575   0.875 -11.245  1.00  0.00    -0.238 OA
BRANCH   9  10
HETATM   10  O1  UNL     1     -18.639  -0.085 -10.349  1.00  0.00    -0.250 OA
ATOM     11  H1  UNL     1     -19.027   0.232  -9.542  1.00  0.00     0.253 HD
ENDBRANCH   9  10
ENDBRANCH   1   9
TORSDOF 2
ENDMDL