MODEL 5
REMARK VINA RESULT: -5.162799220      1.658      1.758
REMARK  4 active torsions:
REMARK  status: ('A' for Active; 'I' for Inactive)
REMARK    1  A    between atoms: N1_1  and  N2_4
REMARK    2  A    between atoms: N2_4  and  N3_5
REMARK    3  A    between atoms: N3_5  and  C1_7
REMARK    4  A    between atoms: C6_12  and  O1_13
ROOT
HETATM    1  C1  UNL     1     -16.953   2.025 -12.326  1.00  0.00     0.143 C
HETATM    2  C2  UNL     1     -17.133   3.454 -12.819  1.00  0.00     0.030 C
HETATM    3  C3  UNL     1     -16.448   3.485 -14.193  1.00  0.00     0.002 C
HETATM    4  C4  UNL     1     -16.825   2.234 -14.924  1.00  0.00     0.003 C
HETATM    5  C5  UNL     1     -18.123   1.630 -14.440  1.00  0.00     0.034 C
HETATM    6  C6  UNL     1     -17.990   1.160 -13.023  1.00  0.00     0.143 C
ENDROOT
BRANCH   1   7
HETATM    7  N3  UNL     1     -17.023   1.935 -10.897  1.00  0.00    -0.245 N
ATOM      8  H3  UNL     1     -16.748   1.057 -10.458  1.00  0.00     0.197 HD
BRANCH   7   9
HETATM    9  N2  UNL     1     -17.397   2.857 -10.167  1.00  0.00    -0.248 NA
BRANCH   9  10
HETATM   10  N1  UNL     1     -17.486   3.780  -9.334  1.00  0.00    -0.261 N
ATOM     11  H12 UNL     1     -16.946   3.264  -8.640  1.00  0.00     0.193 HD
ATOM     12  H11 UNL     1     -17.688   4.646  -8.834  1.00  0.00     0.193 HD
ENDBRANCH   9  10
ENDBRANCH   7   9
ENDBRANCH   1   7
BRANCH   6  13
HETATM   13  O1  UNL     1     -19.207   1.165 -12.341  1.00  0.00    -0.393 OA
ATOM     14  H1  UNL     1     -19.941   1.267 -12.936  1.00  0.00     0.210 HD
ENDBRANCH   6  13
TORSDOF 4
ENDMDL