MODEL 1
REMARK VINA RESULT: -5.053480297      0.000      0.000
REMARK  1 active torsions:
REMARK  status: ('A' for Active; 'I' for Inactive)
REMARK    1  A    between atoms: N1_2  and  N3_6
ROOT
HETATM    1  N3  UNL     1     -16.993   2.937 -12.493  1.00  0.00    -0.303 N
HETATM    2  C2  UNL     1     -16.220   3.731 -11.556  1.00  0.00     0.145 C
HETATM    3  C3  UNL     1     -16.856   3.600 -10.216  1.00  0.00     0.024 C
HETATM    4  C4  UNL     1     -17.959   2.613 -10.430  1.00  0.00     0.033 C
HETATM    5  C5  UNL     1     -17.622   1.912 -11.716  1.00  0.00     0.042 C
HETATM    6  C6  UNL     1     -18.889   1.380 -12.325  1.00  0.00     0.039 C
HETATM    7  C7  UNL     1     -16.644   0.786 -11.520  1.00  0.00     0.039 C
ENDROOT
BRANCH   1   8
HETATM    8  N1  UNL     1     -17.036   3.218 -13.861  1.00  0.00    -0.247 N
HETATM    9  C1  UNL     1     -16.819   2.221 -14.894  1.00  0.00     0.199 C
HETATM   10  N2  UNL     1     -17.277   4.399 -14.258  1.00  0.00    -0.329 N
ATOM     11  H22 UNL     1     -17.308   4.604 -15.257  1.00  0.00     0.178 HD
ATOM     12  H21 UNL     1     -17.430   5.099 -13.532  1.00  0.00     0.178 HD
ENDBRANCH   1   8
TORSDOF 1
ENDMDL