MODEL 2
REMARK VINA RESULT: -5.969129423      1.867      3.916
REMARK  2 active torsions:
REMARK  status: ('A' for Active; 'I' for Inactive)
REMARK    1  A    between atoms: O1_2  and  N1_3
REMARK    2  A    between atoms: N1_3  and  C2_4
ROOT
HETATM    1  C2  UNL     1     -18.127   1.516 -11.567  1.00  0.00     0.106 C
HETATM    2  C3  UNL     1     -18.180   0.536 -10.430  1.00  0.00     0.024 C
HETATM    3  C4  UNL     1     -18.411   1.198  -9.100  1.00  0.00     0.002 C
HETATM    4  C5  UNL     1     -17.352   2.195  -8.738  1.00  0.00     0.000 C
HETATM    5  C6  UNL     1     -17.452   3.492  -9.458  1.00  0.00     0.000 C
HETATM    6  C7  UNL     1     -16.842   3.535 -10.808  1.00  0.00     0.002 C
HETATM    7  C8  UNL     1     -16.805   2.222 -11.528  1.00  0.00     0.024 C
ENDROOT
BRANCH   1   8
HETATM    8  N1  UNL     1     -18.189   0.750 -12.799  1.00  0.00    -0.097 NA
BRANCH   8   9
HETATM    9  O1  UNL     1     -18.744   1.418 -13.810  1.00  0.00    -0.291 OA
HETATM   10  C1  UNL     1     -17.849   1.495 -14.849  1.00  0.00     0.231 C
ENDBRANCH   8   9
ENDBRANCH   1   8
TORSDOF 2
ENDMDL