MODEL 4
REMARK VINA RESULT: -5.283759490      1.672      4.462
REMARK  4 active torsions:
REMARK  status: ('A' for Active; 'I' for Inactive)
REMARK    1  A    between atoms: N1_1  and  N2_4
REMARK    2  A    between atoms: N2_4  and  N3_5
REMARK    3  A    between atoms: N3_5  and  C1_7
REMARK    4  A    between atoms: C4_10  and  N4_11
ROOT
HETATM    1  C1  UNL     1     -16.423   3.075 -11.831  1.00  0.00     0.114 C
HETATM    2  C2  UNL     1     -17.223   2.012 -12.539  1.00  0.00     0.030 C
HETATM    3  C3  UNL     1     -17.145   0.756 -11.739  1.00  0.00     0.035 C
HETATM    4  C4  UNL     1     -17.413   0.895 -10.296  1.00  0.00     0.183 C
HETATM    5  C5  UNL     1     -17.094   2.197  -9.672  1.00  0.00     0.035 C
HETATM    6  C6  UNL     1     -17.213   3.388 -10.554  1.00  0.00     0.030 C
ENDROOT
BRANCH   1   7
HETATM    7  N3  UNL     1     -16.174   4.237 -12.617  1.00  0.00    -0.248 N
ATOM      8  H3  UNL     1     -15.745   5.069 -12.212  1.00  0.00     0.197 HD
BRANCH   7   9
HETATM    9  N2  UNL     1     -16.503   4.198 -13.823  1.00  0.00    -0.248 NA
BRANCH   9  10
HETATM   10  N1  UNL     1     -16.798   4.236 -15.018  1.00  0.00    -0.261 N
ATOM     11  H12 UNL     1     -17.152   3.337 -14.691  1.00  0.00     0.193 HD
ATOM     12  H11 UNL     1     -17.013   4.329 -16.011  1.00  0.00     0.193 HD
ENDBRANCH   9  10
ENDBRANCH   7   9
ENDBRANCH   1   7
BRANCH   4  13
HETATM   13  N4  UNL     1     -18.810   0.546 -10.011  1.00  0.00    -0.075 N
ATOM     14  H43 UNL     1     -19.389   0.568 -10.850  1.00  0.00     0.274 HD
ATOM     15  H42 UNL     1     -18.919  -0.442  -9.782  1.00  0.00     0.274 HD
ATOM     16  H41 UNL     1     -19.177   1.152  -9.277  1.00  0.00     0.274 HD
ENDBRANCH   4  13
TORSDOF 4
ENDMDL