MODEL 3
REMARK VINA RESULT: -4.758586311      2.979      4.288
REMARK  1 active torsions:
REMARK  status: ('A' for Active; 'I' for Inactive)
REMARK    1  A    between atoms: C4_4  and  N1_5
ROOT
HETATM    1  N1  UNL     1     -16.664   2.167  -7.031  1.00  0.00    -0.323 N
ATOM      2  H1  UNL     1     -17.298   1.610  -6.460  1.00  0.00     0.172 HD
HETATM    3  C5  UNL     1     -15.755   2.993  -6.361  1.00  0.00     0.177 C
HETATM    4  N2  UNL     1     -15.018   3.666  -5.796  1.00  0.00    -0.172 NA
ENDROOT
BRANCH   1   5
HETATM    5  C4  UNL     1     -16.776   2.041  -8.446  1.00  0.00     0.109 A
HETATM    6  C2  UNL     1     -17.644   2.870  -9.288  1.00  0.00    -0.017 A
HETATM    7  C1  UNL     1     -18.338   4.105  -8.773  1.00  0.00     0.018 C
HETATM    8  C3  UNL     1     -17.207   3.004 -10.746  1.00  0.00     0.018 C
HETATM    9  C6  UNL     1     -18.157   1.539  -8.894  1.00  0.00    -0.017 A
HETATM   10  C7  UNL     1     -19.264   1.505  -7.883  1.00  0.00     0.018 C
HETATM   11  C8  UNL     1     -18.131   0.370  -9.836  1.00  0.00     0.018 C
ENDBRANCH   1   5
TORSDOF 1
ENDMDL