MODEL 5
REMARK VINA RESULT: -4.454354250      1.189      1.189
REMARK  1 active torsions:
REMARK  status: ('A' for Active; 'I' for Inactive)
REMARK    1  A    between atoms: S1_2  and  C2_3
ROOT
HETATM    1  C2  UNL     1     -16.609   1.972 -11.955  1.00  0.00     0.142 C
HETATM    2  C3  UNL     1     -16.710   3.142 -11.070  1.00  0.00     0.036 C
HETATM    3  C4  UNL     1     -17.708   3.138  -9.978  1.00  0.00     0.008 C
HETATM    4  C5  UNL     1     -18.482   1.874  -9.795  1.00  0.00     0.044 C
HETATM    5  C6  UNL     1     -17.790   0.645 -10.293  1.00  0.00     0.056 C
HETATM    6  N1  UNL     1     -17.181   0.751 -11.556  1.00  0.00    -0.389 N
ATOM      7  H1  UNL     1     -17.153  -0.055 -12.181  1.00  0.00     0.159 HD
ENDROOT
BRANCH   1   8
HETATM    8  S1  UNL     1     -17.263   2.361 -13.620  1.00  0.00    -0.148 SA
HETATM    9  C1  UNL     1     -16.727   3.974 -14.200  1.00  0.00     0.092 C
ENDBRANCH   1   8
TORSDOF 1
ENDMDL