MODEL 3
REMARK VINA RESULT: -6.247388658      1.338      1.338
REMARK  2 active torsions:
REMARK  status: ('A' for Active; 'I' for Inactive)
REMARK    1  A    between atoms: N1_1  and  C1_5
REMARK    2  A    between atoms: C1_5  and  C2_6
ROOT
HETATM    1  C2  UNL     1     -17.283   2.986 -11.077  1.00  0.00     0.011 C
HETATM    2  C3  UNL     1     -16.256   4.040 -11.347  1.00  0.00     0.006 C
HETATM    3  C4  UNL     1     -15.844   4.109 -12.801  1.00  0.00     0.000 C
HETATM    4  C5  UNL     1     -16.996   3.961 -13.744  1.00  0.00     0.000 C
HETATM    5  C6  UNL     1     -16.792   2.808 -14.655  1.00  0.00     0.000 C
HETATM    6  C7  UNL     1     -17.462   1.552 -14.284  1.00  0.00     0.000 C
HETATM    7  C8  UNL     1     -17.996   1.475 -12.888  1.00  0.00     0.000 C
HETATM    8  C9  UNL     1     -16.980   1.704 -11.823  1.00  0.00     0.006 C
ENDROOT
BRANCH   1   9
HETATM    9  C1  UNL     1     -17.305   2.757  -9.564  1.00  0.00     0.234 C
BRANCH   9  10
HETATM   10  N1  UNL     1     -17.689   4.020  -8.970  1.00  0.00    -0.079 N
ATOM     11  H13 UNL     1     -17.373   4.832  -9.502  1.00  0.00     0.274 HD
ATOM     12  H12 UNL     1     -18.689   4.211  -9.034  1.00  0.00     0.274 HD
ATOM     13  H11 UNL     1     -17.339   4.002  -8.013  1.00  0.00     0.274 HD
ENDBRANCH   9  10
ENDBRANCH   1   9
TORSDOF 2
ENDMDL