MODEL 5
REMARK VINA RESULT: -5.415577974      1.251      1.984
REMARK  2 active torsions:
REMARK  status: ('A' for Active; 'I' for Inactive)
REMARK    1  A    between atoms: C2_2  and  N2_5
REMARK    2  A    between atoms: N2_5  and  C4_7
ROOT
HETATM    1  C1  UNL     1     -17.430   0.718  -9.405  1.00  0.00     0.048 C
HETATM    2  C2  UNL     1     -18.576   1.591  -9.746  1.00  0.00     0.181 C
HETATM    3  C3  UNL     1     -18.307   2.982  -9.171  1.00  0.00     0.083 C
HETATM    4  N1  UNL     1     -18.038   4.031  -8.856  1.00  0.00    -0.195 NA
ENDROOT
BRANCH   2   5
HETATM    5  N2  UNL     1     -18.780   1.767 -11.128  1.00  0.00    -0.402 N
ATOM      6  H2  UNL     1     -19.727   1.948 -11.462  1.00  0.00     0.154 HD
BRANCH   5   7
HETATM    7  C4  UNL     1     -17.750   1.708 -12.054  1.00  0.00     0.077 C
HETATM    8  C5  UNL     1     -16.823   2.850 -12.209  1.00  0.00     0.024 C
HETATM    9  C6  UNL     1     -16.787   3.064 -13.730  1.00  0.00     0.002 C
HETATM   10  C7  UNL     1     -17.314   1.806 -14.379  1.00  0.00     0.002 C
HETATM   11  C8  UNL     1     -18.308   1.301 -13.393  1.00  0.00     0.024 C
ENDBRANCH   5   7
ENDBRANCH   2   5
TORSDOF 2
ENDMDL