MODEL 1
REMARK VINA RESULT: -6.715274227      0.000      0.000
REMARK  13 active torsions:
REMARK  status: ('A' for Active; 'I' for Inactive)
REMARK       I    between atoms: C1_4  and  N2_5
REMARK       I    between atoms: C1_4  and  N11_42
REMARK    1  A    between atoms: N2_5  and  C2_7
REMARK    2  A    between atoms: C4_12  and  O2_13
REMARK    3  A    between atoms: N4_16  and  C6_17
REMARK    4  A    between atoms: C6_17  and  O3_18
REMARK    5  A    between atoms: C6_17  and  C7_20
REMARK    6  A    between atoms: C7_20  and  O4_21
REMARK    7  A    between atoms: C7_20  and  C8_23
REMARK    8  A    between atoms: C8_23  and  C9_25
REMARK    9  A    between atoms: C9_25  and  N5_26
REMARK   10  A    between atoms: C9_25  and  N6_30
REMARK   11  A    between atoms: N6_30  and  N7_31
REMARK   12  A    between atoms: N7_31  and  C10_33
REMARK   13  A    between atoms: N11_42  and  N12_44
ROOT
HETATM    1  C6  UNL     1      16.789  11.047 122.826  1.00  0.00     0.278 C
ENDROOT
BRANCH   1   2
HETATM    2  N4  UNL     1      17.377  11.333 124.110  1.00  0.00    -0.160 N
HETATM    3  C2  UNL     1      17.313  10.370 125.073  1.00  0.00     0.704 A
HETATM    4  N3  UNL     1      17.822  10.539 126.316  1.00  0.00    -0.153 N
HETATM    5  C3  UNL     1      18.421  11.689 126.650  1.00  0.00     0.294 A
ATOM      6  H3  UNL     1      17.750   9.787 127.000  1.00  0.00     0.187 HD
HETATM    7  O1  UNL     1      18.890  11.845 127.796  1.00  0.00    -0.265 OA
HETATM    8  C4  UNL     1      18.506  12.685 125.711  1.00  0.00     0.151 A
HETATM    9  C5  UNL     1      17.972  12.493 124.426  1.00  0.00     0.154 A
BRANCH   3  10
HETATM   10  N2  UNL     1      16.722   9.269 124.756  1.00  0.00    -0.021 N
HETATM   11  C1  UNL     1      15.540   8.889 125.443  1.00  0.00     0.704 C
HETATM   12  N1  UNL     1      14.349   9.227 125.084  1.00  0.00    -0.233 N
HETATM   13  N11 UNL     1      15.626   8.073 126.621  1.00  0.00    -0.139 N
ATOM     14  H12 UNL     1      14.288   9.807 124.247  1.00  0.00     0.174 HD
ATOM     15  H11 UNL     1      13.498   8.954 125.577  1.00  0.00     0.174 HD
ATOM     16  H11 UNL     1      15.225   8.425 127.492  1.00  0.00     0.205 HD
ATOM     17  H2  UNL     1      17.101   8.676 124.019  1.00  0.00     0.203 HD
BRANCH  13  18
HETATM   18  N12 UNL     1      16.229   6.831 126.621  1.00  0.00    -0.331 N
ATOM     19 2H12 UNL     1      15.851   6.120 127.248  1.00  0.00     0.177 HD
ATOM     20 1H12 UNL     1      17.026   6.609 126.024  1.00  0.00     0.177 HD
ENDBRANCH  13  18
ENDBRANCH   3  10
BRANCH   8  21
HETATM   21  O2  UNL     1      19.114  13.893 126.005  1.00  0.00    -0.355 OA
ATOM     22  H2  UNL     1      18.865  14.393 126.773  1.00  0.00     0.218 HD
ENDBRANCH   8  21
ENDBRANCH   1   2
BRANCH   1  23
HETATM   23  O3  UNL     1      17.651  11.512 121.801  1.00  0.00    -0.373 OA
ATOM     24  H3  UNL     1      17.299  11.259 120.955  1.00  0.00     0.212 HD
ENDBRANCH   1  23
BRANCH   1  25
HETATM   25  C7  UNL     1      15.497  11.759 122.621  1.00  0.00     0.240 C
BRANCH  25  26
HETATM   26  O4  UNL     1      14.615  11.674 123.666  1.00  0.00    -0.383 OA
ATOM     27  H4  UNL     1      14.967  11.932 124.510  1.00  0.00     0.210 HD
ENDBRANCH  25  26
BRANCH  25  28
HETATM   28  C8  UNL     1      14.808  11.532 121.335  1.00  0.00     0.207 C
HETATM   29  O5  UNL     1      15.297  10.711 120.532  1.00  0.00    -0.291 OA
BRANCH  28  30
HETATM   30  C9  UNL     1      13.568  12.208 120.901  1.00  0.00     0.367 C
BRANCH  30  31
HETATM   31  N5  UNL     1      13.595  13.582 121.355  1.00  0.00    -0.053 N
ATOM     32  H53 UNL     1      13.018  13.728 122.184  1.00  0.00     0.276 HD
ATOM     33  H52 UNL     1      14.495  13.839 121.759  1.00  0.00     0.276 HD
ATOM     34  H51 UNL     1      13.327  14.194 120.584  1.00  0.00     0.276 HD
ENDBRANCH  30  31
BRANCH  30  35
HETATM   35  N6  UNL     1      12.434  11.500 121.467  1.00  0.00    -0.099 NA
BRANCH  35  36
HETATM   36  N7  UNL     1      11.960  12.086 122.619  1.00  0.00    -0.290 N
ATOM     37  H7  UNL     1      12.622  12.451 123.304  1.00  0.00     0.183 HD
BRANCH  36  38
HETATM   38  C10 UNL     1      10.530  12.192 122.879  1.00  0.00     0.096 A
HETATM   39  N8  UNL     1       9.986  13.334 122.999  1.00  0.00    -0.319 N
HETATM   40  C11 UNL     1       8.595  13.498 123.253  1.00  0.00     0.189 A
ATOM     41  H8  UNL     1      10.569  14.166 122.909  1.00  0.00     0.169 HD
HETATM   42  N9  UNL     1       8.044  14.793 123.375  1.00  0.00    -0.064 NA
HETATM   43  N10 UNL     1       7.900  12.426 123.360  1.00  0.00    -0.364 N
HETATM   44  C12 UNL     1       8.346  11.081 123.257  1.00  0.00     0.130 A
ATOM     45  H10 UNL     1       6.904  12.555 123.543  1.00  0.00     0.162 HD
HETATM   46  C13 UNL     1       9.790  10.939 122.984  1.00  0.00     0.097 A
ENDBRANCH  36  38
ENDBRANCH  35  36
ENDBRANCH  30  35
ENDBRANCH  28  30
ENDBRANCH  25  28
ENDBRANCH   1  25
TORSDOF 13
ENDMDL