MODEL 5
REMARK VINA RESULT: -6.176302553      3.461      6.487
REMARK  12 active torsions:
REMARK  status: ('A' for Active; 'I' for Inactive)
REMARK    1  A    between atoms: N1_1  and  C1_4
REMARK    2  A    between atoms: N4_8  and  C2_9
REMARK    3  A    between atoms: C2_9  and  O1_10
REMARK    4  A    between atoms: C3_12  and  O2_13
REMARK    5  A    between atoms: C4_18  and  C5_19
REMARK    6  A    between atoms: C5_19  and  O3_20
REMARK    7  A    between atoms: C5_19  and  C6_22
REMARK    8  A    between atoms: C6_22  and  N6_23
REMARK    9  A    between atoms: C7_30  and  N8_31
REMARK   10  A    between atoms: N8_31  and  C8_33
REMARK   11  A    between atoms: C9_36  and  N10_37
REMARK   12  A    between atoms: C11_44  and  N12_45
ROOT
HETATM    1  C2  UNL     1      17.998  11.794 124.954  1.00  0.00     0.266 C
HETATM    2  C3  UNL     1      17.508  10.659 125.891  1.00  0.00     0.384 C
HETATM    3  N5  UNL     1      18.146  10.987 127.178  1.00  0.00    -0.012 N
ATOM      4  H51 UNL     1      17.791  10.430 127.954  1.00  0.00     0.283 HD
ATOM      5  H52 UNL     1      17.874  11.902 127.538  1.00  0.00     0.283 HD
HETATM    6  C4  UNL     1      19.562  10.855 126.994  1.00  0.00     0.418 C
HETATM    7  N7  UNL     1      19.868  10.454 125.638  1.00  0.00    -0.018 N
ATOM      8  H71 UNL     1      19.445   9.566 125.368  1.00  0.00     0.282 HD
ATOM      9  H72 UNL     1      20.838  10.170 125.503  1.00  0.00     0.282 HD
HETATM   10  C7  UNL     1      19.456  11.594 124.786  1.00  0.00     0.351 C
ENDROOT
BRANCH  10  11
HETATM   11  N8  UNL     1      19.977  11.469 123.483  1.00  0.00    -0.342 N
ATOM     12  H8  UNL     1      19.470  10.863 122.838  1.00  0.00     0.163 HD
BRANCH  11  13
HETATM   13  C8  UNL     1      21.137  12.104 122.987  1.00  0.00     0.157 A
HETATM   14  N9  UNL     1      22.398  11.726 123.257  1.00  0.00    -0.174 N
HETATM   15  C9  UNL     1      23.471  12.351 122.756  1.00  0.00     0.680 A
ATOM     16  H9  UNL     1      22.544  10.926 123.872  1.00  0.00     0.186 HD
HETATM   17  N11 UNL     1      23.366  13.406 121.941  1.00  0.00    -0.154 N
HETATM   18  C10 UNL     1      22.140  13.834 121.631  1.00  0.00     0.296 A
ATOM     19  H11 UNL     1      24.196  13.869 121.568  1.00  0.00     0.187 HD
HETATM   20  O4  UNL     1      21.995  14.819 120.870  1.00  0.00    -0.265 OA
HETATM   21  C11 UNL     1      21.044  13.208 122.134  1.00  0.00     0.215 A
BRANCH  15  22
HETATM   22  N10 UNL     1      24.656  11.895 123.087  1.00  0.00    -0.234 N
ATOM     23 2H10 UNL     1      25.414  11.905 122.405  1.00  0.00     0.174 HD
ATOM     24 1H10 UNL     1      24.782  11.538 124.034  1.00  0.00     0.174 HD
ENDBRANCH  15  22
BRANCH  21  25
HETATM   25  N12 UNL     1      19.767  13.678 121.788  1.00  0.00    -0.106 N
HETATM   26  O5  UNL     1      19.210  13.255 120.776  1.00  0.00    -0.531 OA
HETATM   27  O6  UNL     1      19.148  14.598 122.570  1.00  0.00    -0.531 OA
ENDBRANCH  21  25
ENDBRANCH  11  13
ENDBRANCH  10  11
BRANCH   1  28
HETATM   28  N4  UNL     1      17.207  11.823 123.764  1.00  0.00    -0.157 N
HETATM   29  N3  UNL     1      16.900  10.848 122.915  1.00  0.00     0.014 NA
HETATM   30  N2  UNL     1      16.132  11.289 121.934  1.00  0.00    -0.114 N
HETATM   31  C1  UNL     1      15.923  12.590 122.138  1.00  0.00     0.704 A
ATOM     32  H2  UNL     1      15.765  10.735 121.162  1.00  0.00     0.203 HD
HETATM   33  N13 UNL     1      16.596  12.894 123.269  1.00  0.00    -0.113 N
ATOM     34  H13 UNL     1      16.631  13.823 123.688  1.00  0.00     0.207 HD
BRANCH  31  35
HETATM   35  N1  UNL     1      15.233  13.431 121.434  1.00  0.00    -0.232 N
ATOM     36  H12 UNL     1      14.653  14.177 121.818  1.00  0.00     0.174 HD
ATOM     37  H11 UNL     1      15.143  13.507 120.421  1.00  0.00     0.174 HD
ENDBRANCH  31  35
ENDBRANCH   1  28
BRANCH   1  38
HETATM   38  O1  UNL     1      17.710  12.946 125.706  1.00  0.00    -0.362 OA
ATOM     39  H1  UNL     1      18.076  12.836 126.576  1.00  0.00     0.213 HD
ENDBRANCH   1  38
BRANCH   2  40
HETATM   40  O2  UNL     1      16.129  10.763 125.968  1.00  0.00    -0.366 OA
ATOM     41  H2  UNL     1      15.867  10.381 126.797  1.00  0.00     0.212 HD
ENDBRANCH   2  40
BRANCH   6  42
HETATM   42  C5  UNL     1      20.260  10.060 128.049  1.00  0.00     0.202 C
BRANCH  42  43
HETATM   43  O3  UNL     1      21.233  10.921 128.610  1.00  0.00    -0.390 OA
ATOM     44  H3  UNL     1      20.752  11.611 129.052  1.00  0.00     0.210 HD
ENDBRANCH  42  43
BRANCH  42  45
HETATM   45  C6  UNL     1      19.376   9.657 129.193  1.00  0.00     0.265 C
BRANCH  45  46
HETATM   46  N6  UNL     1      20.073   9.149 130.334  1.00  0.00    -0.077 N
ATOM     47  H63 UNL     1      20.140   8.133 130.285  1.00  0.00     0.274 HD
ATOM     48  H62 UNL     1      21.062   9.393 130.283  1.00  0.00     0.274 HD
ATOM     49  H61 UNL     1      19.683   9.436 131.232  1.00  0.00     0.274 HD
ENDBRANCH  45  46
ENDBRANCH  42  45
ENDBRANCH   6  42
TORSDOF 12
ENDMDL