MODEL 1
REMARK VINA RESULT: -6.754012968      0.000      0.000
REMARK  12 active torsions:
REMARK  status: ('A' for Active; 'I' for Inactive)
REMARK    1  A    between atoms: N1_1  and  C1_4
REMARK    2  A    between atoms: N5_15  and  C5_16
REMARK    3  A    between atoms: C6_18  and  O2_19
REMARK    4  A    between atoms: C6_18  and  C7_21
REMARK    5  A    between atoms: C7_21  and  O3_22
REMARK    6  A    between atoms: C8_24  and  O4_25
REMARK    7  A    between atoms: C8_24  and  C9_27
REMARK    8  A    between atoms: C9_27  and  N6_28
REMARK    9  A    between atoms: C10_33  and  C11_34
REMARK   10  A    between atoms: C11_34  and  N9_35
REMARK   11  A    between atoms: C11_34  and  O5_39
REMARK   12  A    between atoms: C13_43  and  O6_44
ROOT
HETATM    1  C5  UNL     1      13.434  11.246 121.276  1.00  0.00     0.266 C
HETATM    2  O1  UNL     1      13.512  12.541 121.815  1.00  0.00    -0.322 OA
HETATM    3  C6  UNL     1      14.868  12.814 121.900  1.00  0.00     0.221 C
HETATM    4  C8  UNL     1      15.345  11.551 122.599  1.00  0.00     0.164 C
HETATM    5  C13 UNL     1      14.679  10.529 121.663  1.00  0.00     0.209 C
ENDROOT
BRANCH   1   6
HETATM    6  N5  UNL     1      13.151  11.370 119.883  1.00  0.00    -0.297 N
HETATM    7  C4  UNL     1      12.632  12.471 119.298  1.00  0.00     0.188 A
HETATM    8  N4  UNL     1      12.475  12.286 117.996  1.00  0.00    -0.346 N
HETATM    9  C3  UNL     1      12.892  11.052 117.701  1.00  0.00     0.123 A
ATOM     10  H4  UNL     1      12.102  12.967 117.335  1.00  0.00     0.167 HD
HETATM   11  C2  UNL     1      12.943  10.358 116.501  1.00  0.00     0.145 A
HETATM   12  C14 UNL     1      13.321  10.467 118.897  1.00  0.00     0.157 A
HETATM   13  N2  UNL     1      13.424   9.106 116.550  1.00  0.00    -0.175 N
HETATM   14  N3  UNL     1      12.543  10.903 115.392  1.00  0.00    -0.383 N
HETATM   15  C1  UNL     1      13.847   8.517 117.700  1.00  0.00     0.679 A
ATOM     16  H2  UNL     1      13.474   8.570 115.683  1.00  0.00     0.186 HD
HETATM   17  N11 UNL     1      13.786   9.210 118.848  1.00  0.00    -0.174 N
ATOM     18  H11 UNL     1      14.104   8.766 119.710  1.00  0.00     0.186 HD
ATOM     19  H32 UNL     1      12.581  10.394 114.510  1.00  0.00     0.157 HD
ATOM     20  H31 UNL     1      12.177  11.855 115.355  1.00  0.00     0.157 HD
BRANCH  15  21
HETATM   21  N1  UNL     1      14.292   7.311 117.646  1.00  0.00    -0.234 N
ATOM     22  H12 UNL     1      13.881   6.554 118.191  1.00  0.00     0.174 HD
ATOM     23  H11 UNL     1      15.085   7.110 117.038  1.00  0.00     0.174 HD
ENDBRANCH  15  21
ENDBRANCH   1   6
BRANCH   5  24
HETATM   24  O6  UNL     1      14.403   9.439 122.529  1.00  0.00    -0.388 OA
ATOM     25  H6  UNL     1      15.034   9.390 123.237  1.00  0.00     0.210 HD
ENDBRANCH   5  24
BRANCH   3  26
HETATM   26  O2  UNL     1      15.407  12.866 120.639  1.00  0.00    -0.361 OA
ATOM     27  H2  UNL     1      15.618  11.987 120.346  1.00  0.00     0.213 HD
ENDBRANCH   3  26
BRANCH   3  28
HETATM   28  C7  UNL     1      15.159  14.045 122.717  1.00  0.00     0.235 C
BRANCH  28  29
HETATM   29  O3  UNL     1      16.388  14.593 122.407  1.00  0.00    -0.395 OA
ATOM     30  H3  UNL     1      16.820  14.955 123.172  1.00  0.00     0.209 HD
ENDBRANCH  28  29
ENDBRANCH   3  28
BRANCH   4  31
HETATM   31  O4  UNL     1      14.727  11.484 123.816  1.00  0.00    -0.380 OA
ATOM     32  H4  UNL     1      13.864  11.872 123.729  1.00  0.00     0.211 HD
ENDBRANCH   4  31
BRANCH   4  33
HETATM   33  C9  UNL     1      16.834  11.444 122.627  1.00  0.00     0.198 C
BRANCH  33  34
HETATM   34  N6  UNL     1      17.293  11.484 123.994  1.00  0.00    -0.259 N
HETATM   35  N7  UNL     1      16.949  10.628 124.946  1.00  0.00    -0.239 N
HETATM   36  N8  UNL     1      17.533  10.915 126.084  1.00  0.00    -0.283 N
ATOM     37  H7  UNL     1      16.311   9.844 124.810  1.00  0.00     0.208 HD
HETATM   38  C10 UNL     1      18.306  12.008 125.906  1.00  0.00     0.125 A
ATOM     39  H8  UNL     1      17.422  10.399 126.957  1.00  0.00     0.188 HD
HETATM   40  C12 UNL     1      18.140  12.350 124.582  1.00  0.00     0.163 A
HETATM   41  N10 UNL     1      18.767  13.447 123.940  1.00  0.00    -0.079 NA
BRANCH  38  42
HETATM   42  C11 UNL     1      19.162  12.729 126.866  1.00  0.00     0.372 C
BRANCH  42  43
HETATM   43  N9  UNL     1      18.786  14.109 127.029  1.00  0.00    -0.047 N
ATOM     44  H93 UNL     1      19.440  14.596 127.642  1.00  0.00     0.277 HD
ATOM     45  H92 UNL     1      18.943  14.634 126.168  1.00  0.00     0.277 HD
ATOM     46  H91 UNL     1      17.827  14.224 127.355  1.00  0.00     0.277 HD
ENDBRANCH  42  43
BRANCH  42  47
HETATM   47  O5  UNL     1      20.512  12.706 126.487  1.00  0.00    -0.365 OA
ATOM     48  H5  UNL     1      20.653  13.121 125.645  1.00  0.00     0.212 HD
ENDBRANCH  42  47
ENDBRANCH  38  42
ENDBRANCH  33  34
ENDBRANCH   4  33
TORSDOF 12
ENDMDL