MODEL 5
REMARK VINA RESULT: -5.973755721      6.090      9.112
REMARK  15 active torsions:
REMARK  status: ('A' for Active; 'I' for Inactive)
REMARK    1  A    between atoms: N2_5  and  C2_6
REMARK    2  A    between atoms: N6_14  and  C4_15
REMARK    3  A    between atoms: C4_15  and  O1_16
REMARK    4  A    between atoms: C4_15  and  C5_18
REMARK    5  A    between atoms: C5_18  and  N7_19
REMARK    6  A    between atoms: C5_18  and  C6_23
REMARK    7  A    between atoms: C6_23  and  O2_24
REMARK    8  A    between atoms: C6_23  and  C7_26
REMARK    9  A    between atoms: C7_26  and  O3_27
REMARK   10  A    between atoms: C7_26  and  O4_29
REMARK   11  A    between atoms: C10_35  and  C11_36
REMARK   12  A    between atoms: C11_36  and  O5_37
REMARK   13  A    between atoms: C12_40  and  N9_41
REMARK   14  A    between atoms: N9_41  and  N10_42
REMARK   15  A    between atoms: N11_45  and  N12_46
ROOT
HETATM    1  C2  UNL     1      20.596  13.058 121.064  1.00  0.00     0.715 A
HETATM    2  N3  UNL     1      20.493  12.478 119.858  1.00  0.00    -0.130 N
ATOM      3  H3  UNL     1      19.728  11.826 119.688  1.00  0.00     0.205 HD
HETATM    4  N4  UNL     1      21.342  12.721 118.894  1.00  0.00    -0.267 N
ATOM      5  H4  UNL     1      21.230  12.259 117.992  1.00  0.00     0.189 HD
HETATM    6  C3  UNL     1      22.355  13.571 119.086  1.00  0.00     0.182 A
HETATM    7  N5  UNL     1      23.433  14.239 118.720  1.00  0.00    -0.275 N
ATOM      8  H5  UNL     1      23.961  14.278 117.848  1.00  0.00     0.189 HD
HETATM    9  N6  UNL     1      23.586  14.850 119.908  1.00  0.00    -0.239 N
HETATM   10  C8  UNL     1      22.471  14.168 120.307  1.00  0.00     0.187 A
HETATM   11  N8  UNL     1      21.601  13.919 121.296  1.00  0.00    -0.169 N
ATOM     12  H8  UNL     1      21.700  14.373 122.204  1.00  0.00     0.186 HD
ENDROOT
BRANCH   1  13
HETATM   13  N2  UNL     1      19.665  12.784 122.103  1.00  0.00    -0.009 N
HETATM   14  C1  UNL     1      19.993  11.704 122.990  1.00  0.00     0.712 C
HETATM   15  N1  UNL     1      21.018  10.995 122.727  1.00  0.00    -0.232 N
HETATM   16  N11 UNL     1      19.208  11.385 124.162  1.00  0.00    -0.084 N
ATOM     17  H12 UNL     1      21.572  11.220 121.900  1.00  0.00     0.174 HD
ATOM     18  H11 UNL     1      21.252  10.228 123.357  1.00  0.00     0.174 HD
HETATM   19  C12 UNL     1      18.410  12.301 124.911  1.00  0.00     0.379 C
HETATM   20  O6  UNL     1      17.415  12.914 124.212  1.00  0.00    -0.340 OA
HETATM   21  C10 UNL     1      17.390  12.808 122.861  1.00  0.00     0.168 C
HETATM   22  C9  UNL     1      18.468  13.644 122.143  1.00  0.00     0.201 C
BRANCH  16  23
HETATM   23  N12 UNL     1      19.254  10.048 124.566  1.00  0.00    -0.325 N
ATOM     24 2H12 UNL     1      19.331   9.323 123.853  1.00  0.00     0.177 HD
ATOM     25 1H12 UNL     1      19.209   9.895 125.574  1.00  0.00     0.177 HD
ENDBRANCH  16  23
BRANCH  19  26
HETATM   26  N9  UNL     1      17.965  11.659 126.124  1.00  0.00    -0.092 NA
BRANCH  26  27
HETATM   27  N10 UNL     1      18.548  12.167 127.274  1.00  0.00    -0.344 N
ATOM     28 2H10 UNL     1      18.185  12.994 127.748  1.00  0.00     0.172 HD
ATOM     29 1H10 UNL     1      19.361  11.639 127.591  1.00  0.00     0.172 HD
ENDBRANCH  26  27
ENDBRANCH  19  26
BRANCH  21  30
HETATM   30  C11 UNL     1      16.053  13.373 122.371  1.00  0.00     0.197 C
BRANCH  30  31
HETATM   31  O5  UNL     1      16.058  14.761 122.395  1.00  0.00    -0.398 OA
ATOM     32  H5  UNL     1      15.295  15.113 121.953  1.00  0.00     0.209 HD
ENDBRANCH  30  31
ENDBRANCH  21  30
ENDBRANCH   1  13
BRANCH   9  33
HETATM   33  C4  UNL     1      24.502  15.799 120.513  1.00  0.00     0.276 C
BRANCH  33  34
HETATM   34  O1  UNL     1      25.687  15.719 119.783  1.00  0.00    -0.373 OA
ATOM     35  H1  UNL     1      26.069  16.589 119.797  1.00  0.00     0.212 HD
ENDBRANCH  33  34
BRANCH  33  36
HETATM   36  C5  UNL     1      23.884  17.160 120.436  1.00  0.00     0.266 C
BRANCH  36  37
HETATM   37  N7  UNL     1      24.090  17.909 121.662  1.00  0.00    -0.068 N
ATOM     38  H73 UNL     1      23.447  17.608 122.395  1.00  0.00     0.275 HD
ATOM     39  H72 UNL     1      24.970  17.656 122.111  1.00  0.00     0.275 HD
ATOM     40  H71 UNL     1      24.027  18.915 121.502  1.00  0.00     0.275 HD
ENDBRANCH  36  37
BRANCH  36  41
HETATM   41  C6  UNL     1      24.283  17.983 119.267  1.00  0.00     0.207 C
BRANCH  41  42
HETATM   42  O2  UNL     1      24.122  19.343 119.554  1.00  0.00    -0.388 OA
ATOM     43  H2  UNL     1      24.224  19.861 118.764  1.00  0.00     0.210 HD
ENDBRANCH  41  42
BRANCH  41  44
HETATM   44  C7  UNL     1      23.579  17.695 117.987  1.00  0.00     0.284 C
BRANCH  44  45
HETATM   45  O3  UNL     1      24.280  16.892 117.118  1.00  0.00    -0.369 OA
ATOM     46  H3  UNL     1      23.840  16.725 116.293  1.00  0.00     0.212 HD
ENDBRANCH  44  45
BRANCH  44  47
HETATM   47  O4  UNL     1      22.260  17.242 118.195  1.00  0.00    -0.369 OA
ATOM     48  H4  UNL     1      21.956  16.687 117.485  1.00  0.00     0.212 HD
ENDBRANCH  44  47
ENDBRANCH  41  44
ENDBRANCH  36  41
ENDBRANCH  33  36
ENDBRANCH   9  33
TORSDOF 15
ENDMDL