MODEL 4
REMARK VINA RESULT: -5.968040202      2.965      4.038
REMARK  16 active torsions:
REMARK  status: ('A' for Active; 'I' for Inactive)
REMARK    1  A    between atoms: N1_2  and  N2_3
REMARK    2  A    between atoms: N1_2  and  C2_6
REMARK    3  A    between atoms: C2_6  and  O1_7
REMARK    4  A    between atoms: C2_6  and  C3_9
REMARK    5  A    between atoms: C3_9  and  O2_10
REMARK    6  A    between atoms: C3_9  and  N3_12
REMARK       I    between atoms: N3_12  and  C4_14
REMARK    7  A    between atoms: C4_14  and  C5_16
REMARK    8  A    between atoms: C5_16  and  N4_17
REMARK    9  A    between atoms: C7_22  and  O4_23
REMARK   10  A    between atoms: C8_25  and  O5_26
REMARK   11  A    between atoms: C9_28  and  N5_29
REMARK   12  A    between atoms: N6_31  and  C10_33
REMARK   13  A    between atoms: C10_33  and  N7_34
REMARK   14  A    between atoms: C11_38  and  O6_39
REMARK   15  A    between atoms: C13_44  and  N9_45
REMARK   16  A    between atoms: C14_49  and  O7_50
ROOT
HETATM    1  C5  UNL     1      18.488  11.447 124.366  1.00  0.00     0.264 C
HETATM    2  C6  UNL     1      17.209  10.833 124.076  1.00  0.00     0.055 A
HETATM    3  C7  UNL     1      16.699  10.789 122.775  1.00  0.00     0.113 A
HETATM    4  C8  UNL     1      15.474  10.193 122.567  1.00  0.00     0.131 A
HETATM    5  C9  UNL     1      14.745   9.647 123.580  1.00  0.00     0.119 A
HETATM    6  C11 UNL     1      15.246   9.685 124.874  1.00  0.00     0.124 A
HETATM    7  C12 UNL     1      16.463  10.274 125.089  1.00  0.00     0.078 A
HETATM    8  N8  UNL     1      16.936  10.266 126.444  1.00  0.00    -0.358 N
ATOM      9  H8  UNL     1      16.333   9.978 127.214  1.00  0.00     0.162 HD
HETATM   10  C13 UNL     1      18.327  10.689 126.680  1.00  0.00     0.314 C
HETATM   11  C14 UNL     1      18.598  11.905 125.783  1.00  0.00     0.218 C
ENDROOT
BRANCH   1  12
HETATM   12  C4  UNL     1      18.873  12.537 123.413  1.00  0.00     0.267 C
HETATM   13  N3  UNL     1      19.933  12.382 122.507  1.00  0.00    -0.305 N
ATOM     14  H3  UNL     1      20.398  11.477 122.579  1.00  0.00     0.170 HD
HETATM   15  O3  UNL     1      18.198  13.568 123.477  1.00  0.00    -0.270 OA
BRANCH  13  16
HETATM   16  C3  UNL     1      20.476  13.203 121.540  1.00  0.00     0.164 C
BRANCH  16  17
HETATM   17  C2  UNL     1      21.079  12.951 120.228  1.00  0.00     0.286 C
BRANCH  17  18
HETATM   18  N1  UNL     1      21.248  11.503 120.004  1.00  0.00    -0.206 NA
HETATM   19  C1  UNL     1      21.892  11.279 118.743  1.00  0.00     0.139 C
BRANCH  18  20
HETATM   20  N2  UNL     1      19.985  10.917 120.001  1.00  0.00    -0.361 NA
ATOM     21  H22 UNL     1      19.927  10.295 119.195  1.00  0.00     0.171 HD
ATOM     22  H21 UNL     1      19.849  10.383 120.859  1.00  0.00     0.171 HD
ENDBRANCH  18  20
ENDBRANCH  17  18
BRANCH  17  23
HETATM   23  O1  UNL     1      20.454  13.499 119.153  1.00  0.00    -0.372 OA
ATOM     24  H1  UNL     1      19.916  12.837 118.733  1.00  0.00     0.212 HD
ENDBRANCH  17  23
ENDBRANCH  16  17
BRANCH  16  25
HETATM   25  O2  UNL     1      20.433  14.484 121.885  1.00  0.00    -0.346 OA
ATOM     26  H2  UNL     1      19.765  14.988 121.436  1.00  0.00     0.219 HD
ENDBRANCH  16  25
ENDBRANCH  13  16
ENDBRANCH   1  12
BRANCH   1  27
HETATM   27  N4  UNL     1      19.501  10.387 124.212  1.00  0.00    -0.054 N
ATOM     28  H43 UNL     1      20.101  10.516 123.396  1.00  0.00     0.276 HD
ATOM     29  H42 UNL     1      20.238  10.425 124.916  1.00  0.00     0.276 HD
ATOM     30  H41 UNL     1      18.991   9.504 124.206  1.00  0.00     0.276 HD
ENDBRANCH   1  27
BRANCH  11  31
HETATM   31  O7  UNL     1      17.781  12.943 126.146  1.00  0.00    -0.388 OA
ATOM     32  H7  UNL     1      17.919  13.764 125.689  1.00  0.00     0.210 HD
ENDBRANCH  11  31
BRANCH   3  33
HETATM   33  O4  UNL     1      17.382  11.320 121.697  1.00  0.00    -0.357 OA
ATOM     34  H4  UNL     1      18.329  11.388 121.679  1.00  0.00     0.217 HD
ENDBRANCH   3  33
BRANCH  10  35
HETATM   35  N9  UNL     1      18.590  10.950 128.060  1.00  0.00    -0.056 N
ATOM     36  H93 UNL     1      17.831  11.484 128.484  1.00  0.00     0.276 HD
ATOM     37  H92 UNL     1      18.520  10.098 128.616  1.00  0.00     0.276 HD
ATOM     38  H91 UNL     1      19.488  11.411 128.204  1.00  0.00     0.276 HD
ENDBRANCH  10  35
BRANCH   4  39
HETATM   39  O5  UNL     1      14.972  10.158 121.251  1.00  0.00    -0.356 OA
ATOM     40  H5  UNL     1      14.308  10.794 121.011  1.00  0.00     0.218 HD
ENDBRANCH   4  39
BRANCH   6  41
HETATM   41  O6  UNL     1      14.468   9.118 125.860  1.00  0.00    -0.356 OA
ATOM     42  H6  UNL     1      13.560   9.393 125.902  1.00  0.00     0.218 HD
ENDBRANCH   6  41
BRANCH   5  43
HETATM   43  N5  UNL     1      13.490   9.044 123.331  1.00  0.00    -0.298 N
HETATM   44  N6  UNL     1      12.526   9.636 122.747  1.00  0.00    -0.311 N
ATOM     45  H6  UNL     1      12.637  10.599 122.430  1.00  0.00     0.182 HD
ATOM     46  H5  UNL     1      13.349   8.081 123.635  1.00  0.00     0.186 HD
BRANCH  44  47
HETATM   47  C10 UNL     1      11.263   8.939 122.532  1.00  0.00     0.368 C
BRANCH  47  48
HETATM   48  N7  UNL     1      10.137   9.727 122.961  1.00  0.00    -0.062 N
ATOM     49  H73 UNL     1      10.133  10.644 122.514  1.00  0.00     0.276 HD
ATOM     50  H72 UNL     1       9.263   9.361 122.584  1.00  0.00     0.276 HD
ATOM     51  H71 UNL     1      10.097   9.809 123.978  1.00  0.00     0.276 HD
ENDBRANCH  47  48
ENDBRANCH  44  47
ENDBRANCH   5  43
TORSDOF 16
ENDMDL