MODEL 1
REMARK VINA RESULT: -7.937242633      0.000      0.000
REMARK  8 active torsions:
REMARK  status: ('A' for Active; 'I' for Inactive)
REMARK    1  A    between atoms: N5_12  and  C5_13
REMARK    2  A    between atoms: C6_17  and  C7_18
REMARK    3  A    between atoms: C7_18  and  N7_19
REMARK    4  A    between atoms: C7_18  and  C8_23
REMARK    5  A    between atoms: C8_23  and  O1_24
REMARK    6  A    between atoms: C9_28  and  O2_29
REMARK    7  A    between atoms: O2_29  and  C10_30
REMARK    8  A    between atoms: C11_33  and  N12_34
ROOT
HETATM    1  N1  UNL     1      11.165  10.838 115.263  1.00  0.00    -0.195 NA
HETATM    2  C1  UNL     1      12.069  11.300 115.834  1.00  0.00     0.089 C
HETATM    3  C2  UNL     1      13.223  11.864 116.555  1.00  0.00     0.229 C
HETATM    4  N2  UNL     1      14.430  11.381 115.968  1.00  0.00    -0.365 N
ATOM      5  H2  UNL     1      15.021  11.966 115.377  1.00  0.00     0.161 HD
HETATM    6  C3  UNL     1      14.754  10.028 116.262  1.00  0.00     0.178 C
HETATM    7  N3  UNL     1      14.111   9.456 117.406  1.00  0.00    -0.337 N
ATOM      8  H3  UNL     1      14.036   8.443 117.503  1.00  0.00     0.168 HD
HETATM    9  C4  UNL     1      13.579  10.313 118.403  1.00  0.00     0.131 A
HETATM   10  N4  UNL     1      13.389  10.230 119.734  1.00  0.00    -0.281 N
ATOM     11  H4  UNL     1      13.631   9.430 120.318  1.00  0.00     0.189 HD
HETATM   12  N5  UNL     1      12.834  11.363 120.162  1.00  0.00    -0.266 N
HETATM   13  C13 UNL     1      12.660  12.183 119.110  1.00  0.00     0.127 A
HETATM   14  C14 UNL     1      13.119  11.546 117.998  1.00  0.00     0.041 A
ENDROOT
BRANCH  12  15
HETATM   15  C5  UNL     1      12.506  11.582 121.554  1.00  0.00     0.354 C
HETATM   16  N6  UNL     1      11.694  12.786 121.603  1.00  0.00    -0.027 N
HETATM   17  C6  UNL     1      11.129  12.959 122.906  1.00  0.00     0.328 C
ATOM     18  H62 UNL     1      12.218  13.608 121.305  1.00  0.00     0.281 HD
ATOM     19  H61 UNL     1      10.979  12.789 120.877  1.00  0.00     0.281 HD
HETATM   20  N8  UNL     1      11.888  12.208 123.875  1.00  0.00    -0.110 NA
HETATM   21  N9  UNL     1      13.258  12.345 123.681  1.00  0.00    -0.110 NA
HETATM   22  C9  UNL     1      13.711  11.805 122.413  1.00  0.00     0.286 C
BRANCH  17  23
HETATM   23  C7  UNL     1       9.689  12.569 122.881  1.00  0.00     0.254 C
BRANCH  23  24
HETATM   24  N7  UNL     1       9.419  11.252 123.370  1.00  0.00    -0.070 N
ATOM     25  H73 UNL     1       8.636  11.270 124.024  1.00  0.00     0.274 HD
ATOM     26  H72 UNL     1       9.018  10.675 122.631  1.00  0.00     0.274 HD
ATOM     27  H71 UNL     1      10.220  10.781 123.791  1.00  0.00     0.274 HD
ENDBRANCH  23  24
BRANCH  23  28
HETATM   28  C8  UNL     1       8.794  13.580 123.576  1.00  0.00     0.200 C
BRANCH  28  29
HETATM   29  O1  UNL     1       8.751  14.778 122.888  1.00  0.00    -0.399 OA
ATOM     30  H1  UNL     1       8.135  15.384 123.282  1.00  0.00     0.209 HD
ENDBRANCH  28  29
ENDBRANCH  23  28
ENDBRANCH  17  23
BRANCH  22  31
HETATM   31  O2  UNL     1      14.397  10.627 122.700  1.00  0.00    -0.319 OA
BRANCH  31  32
HETATM   32  C10 UNL     1      15.716  10.812 123.014  1.00  0.00     0.381 C
HETATM   33  N10 UNL     1      15.973  10.710 124.418  1.00  0.00    -0.085 NA
HETATM   34  N11 UNL     1      17.155  11.442 124.587  1.00  0.00    -0.091 NA
HETATM   35  C11 UNL     1      17.459  12.030 123.308  1.00  0.00     0.342 C
HETATM   36  O3  UNL     1      16.201  12.081 122.709  1.00  0.00    -0.305 OA
BRANCH  35  37
HETATM   37  N12 UNL     1      18.130  13.285 123.372  1.00  0.00    -0.326 N
HETATM   38  C12 UNL     1      18.849  13.771 122.418  1.00  0.00     0.199 C
HETATM   39  N13 UNL     1      18.966  12.988 121.235  1.00  0.00    -0.067 NA
HETATM   40  N14 UNL     1      19.499  15.024 122.521  1.00  0.00    -0.067 NA
ATOM     41  H12 UNL     1      18.036  13.834 124.227  1.00  0.00     0.165 HD
ENDBRANCH  35  37
ENDBRANCH  31  32
ENDBRANCH  22  31
ENDBRANCH  12  15
TORSDOF 8
ENDMDL