MODEL 3
REMARK VINA RESULT: -6.088046325      1.452      1.755
REMARK  14 active torsions:
REMARK  status: ('A' for Active; 'I' for Inactive)
REMARK    1  A    between atoms: N1_1  and  C1_4
REMARK    2  A    between atoms: N4_12  and  C5_13
REMARK    3  A    between atoms: C6_15  and  C7_16
REMARK    4  A    between atoms: C7_16  and  O2_17
REMARK    5  A    between atoms: C8_19  and  O3_20
REMARK    6  A    between atoms: C8_19  and  C9_22
REMARK    7  A    between atoms: C9_22  and  O4_23
REMARK    8  A    between atoms: O4_23  and  N5_24
REMARK       I    between atoms: C10_26  and  N6_27
REMARK       I    between atoms: C10_26  and  N8_32
REMARK    9  A    between atoms: N6_27  and  N7_29
REMARK   10  A    between atoms: N8_32  and  N9_34
REMARK   11  A    between atoms: N9_34  and  N10_35
REMARK   12  A    between atoms: N9_34  and  N11_38
REMARK   13  A    between atoms: C11_41  and  O5_42
REMARK   14  A    between atoms: C12_44  and  O6_45
ROOT
HETATM    1  C5  UNL     1      13.022  10.906 119.575  1.00  0.00     0.263 C
HETATM    2  O1  UNL     1      12.513  10.653 120.832  1.00  0.00    -0.353 OA
HETATM    3  C6  UNL     1      13.311  11.211 121.785  1.00  0.00     0.187 C
HETATM    4  C8  UNL     1      14.497  11.856 121.111  1.00  0.00     0.139 C
HETATM    5  C11 UNL     1      13.955  12.065 119.712  1.00  0.00     0.206 C
ENDROOT
BRANCH   4   6
HETATM    6  O3  UNL     1      15.604  11.045 121.153  1.00  0.00    -0.382 OA
ATOM      7  H3  UNL     1      15.593  10.402 120.454  1.00  0.00     0.210 HD
ENDBRANCH   4   6
BRANCH   4   8
HETATM    8  C9  UNL     1      14.836  13.155 121.801  1.00  0.00     0.245 C
BRANCH   8   9
HETATM    9  O4  UNL     1      15.614  12.961 122.942  1.00  0.00    -0.263 OA
BRANCH   9  10
HETATM   10  N5  UNL     1      16.932  13.309 122.918  1.00  0.00    -0.094 N
HETATM   11  C10 UNL     1      17.848  12.450 123.228  1.00  0.00     0.729 C
HETATM   12  N6  UNL     1      17.487  11.138 123.595  1.00  0.00    -0.136 N
HETATM   13  N8  UNL     1      19.226  12.796 123.208  1.00  0.00    -0.113 N
ATOM     14  H6  UNL     1      16.892  10.953 124.403  1.00  0.00     0.205 HD
ATOM     15  H8  UNL     1      19.894  12.367 123.849  1.00  0.00     0.203 HD
ATOM     16  H5  UNL     1      17.199  14.257 122.652  1.00  0.00     0.213 HD
BRANCH  12  17
HETATM   17  N7  UNL     1      17.987  10.092 122.790  1.00  0.00    -0.331 N
ATOM     18  H72 UNL     1      18.581  10.293 121.986  1.00  0.00     0.177 HD
ATOM     19  H71 UNL     1      17.723   9.143 123.054  1.00  0.00     0.177 HD
ENDBRANCH  12  17
BRANCH  13  20
HETATM   20  N9  UNL     1      19.625  13.753 122.268  1.00  0.00    -0.039 NA
BRANCH  20  21
HETATM   21  N10 UNL     1      19.236  15.041 122.589  1.00  0.00    -0.327 NA
ATOM     22 2H10 UNL     1      18.921  15.564 121.772  1.00  0.00     0.174 HD
ATOM     23 1H10 UNL     1      18.509  15.084 123.303  1.00  0.00     0.174 HD
ENDBRANCH  20  21
BRANCH  20  24
HETATM   24  N11 UNL     1      19.166  13.358 121.009  1.00  0.00    -0.327 NA
ATOM     25 2H11 UNL     1      18.779  12.414 121.016  1.00  0.00     0.174 HD
ATOM     26 1H11 UNL     1      19.920  13.486 120.333  1.00  0.00     0.174 HD
ENDBRANCH  20  24
ENDBRANCH  13  20
ENDBRANCH   9  10
ENDBRANCH   8   9
ENDBRANCH   4   8
BRANCH   3  27
HETATM   27  C7  UNL     1      13.762  10.250 122.855  1.00  0.00     0.199 C
BRANCH  27  28
HETATM   28  O2  UNL     1      14.177  10.895 124.009  1.00  0.00    -0.398 OA
ATOM     29  H2  UNL     1      14.993  11.365 123.890  1.00  0.00     0.209 HD
ENDBRANCH  27  28
ENDBRANCH   3  27
BRANCH   5  30
HETATM   30  O5  UNL     1      13.147  13.225 119.787  1.00  0.00    -0.388 OA
ATOM     31  H5  UNL     1      13.472  13.734 120.521  1.00  0.00     0.210 HD
ENDBRANCH   5  30
BRANCH   1  32
HETATM   32  N4  UNL     1      13.643   9.742 118.979  1.00  0.00    -0.297 N
HETATM   33  C2  UNL     1      13.087   8.522 119.033  1.00  0.00     0.157 A
HETATM   34  N2  UNL     1      11.929   8.050 119.583  1.00  0.00    -0.174 N
HETATM   35  C3  UNL     1      13.909   7.626 118.382  1.00  0.00     0.130 A
HETATM   36  C1  UNL     1      11.577   6.755 119.505  1.00  0.00     0.679 A
ATOM     37  H2  UNL     1      11.312   8.700 120.067  1.00  0.00     0.186 HD
HETATM   38  N12 UNL     1      12.396   5.903 118.865  1.00  0.00    -0.168 N
HETATM   39  C12 UNL     1      13.554   6.277 118.294  1.00  0.00     0.186 A
ATOM     40  H12 UNL     1      12.124   4.921 118.808  1.00  0.00     0.186 HD
HETATM   41  N3  UNL     1      14.943   8.327 117.950  1.00  0.00    -0.346 N
HETATM   42  C4  UNL     1      14.791   9.612 118.308  1.00  0.00     0.188 A
ATOM     43  H3  UNL     1      15.734   7.951 117.427  1.00  0.00     0.167 HD
BRANCH  36  44
HETATM   44  N1  UNL     1      10.458   6.326 120.042  1.00  0.00    -0.234 N
ATOM     45  H12 UNL     1      10.229   5.332 120.035  1.00  0.00     0.174 HD
ATOM     46  H11 UNL     1       9.800   6.975 120.472  1.00  0.00     0.174 HD
ENDBRANCH  36  44
BRANCH  39  47
HETATM   47  O6  UNL     1      14.411   5.423 117.633  1.00  0.00    -0.344 OA
ATOM     48  H6  UNL     1      14.178   4.502 117.589  1.00  0.00     0.219 HD
ENDBRANCH  39  47
ENDBRANCH   1  32
TORSDOF 14
ENDMDL