MODEL 4
REMARK VINA RESULT: -6.027667110      3.219      5.579
REMARK  13 active torsions:
REMARK  status: ('A' for Active; 'I' for Inactive)
REMARK    1  A    between atoms: N1_1  and  C1_4
REMARK    2  A    between atoms: C2_7  and  N3_8
REMARK    3  A    between atoms: N3_8  and  C3_10
REMARK    4  A    between atoms: C3_10  and  O1_11
REMARK    5  A    between atoms: C3_10  and  C4_13
REMARK    6  A    between atoms: C4_13  and  N4_14
REMARK    7  A    between atoms: C5_18  and  C6_19
REMARK    8  A    between atoms: C6_19  and  O2_20
REMARK    9  A    between atoms: C8_23  and  O3_24
REMARK   10  A    between atoms: C9_26  and  O4_27
REMARK   11  A    between atoms: C9_26  and  N5_29
REMARK   12  A    between atoms: C13_39  and  O7_40
REMARK   13  A    between atoms: C14_42  and  O8_43
ROOT
HETATM    1  C1  UNL     1       8.526  13.112 123.015  1.00  0.00     0.679 A
HETATM    2  N2  UNL     1       8.913  11.851 123.138  1.00  0.00    -0.176 N
ATOM      3  H2  UNL     1       8.199  11.164 123.382  1.00  0.00     0.186 HD
HETATM    4  C2  UNL     1      10.184  11.398 122.965  1.00  0.00     0.132 A
HETATM    5  C5  UNL     1      11.156  12.329 122.630  1.00  0.00     0.074 A
HETATM    6  C14 UNL     1      10.758  13.644 122.503  1.00  0.00     0.168 A
HETATM    7  N8  UNL     1       9.455  14.001 122.697  1.00  0.00    -0.170 N
ATOM      8  H8  UNL     1       9.190  14.980 122.594  1.00  0.00     0.186 HD
ENDROOT
BRANCH   5   9
HETATM    9  C6  UNL     1      12.524  11.938 122.371  1.00  0.00     0.126 C
HETATM   10  C7  UNL     1      13.308  13.185 121.864  1.00  0.00     0.083 C
HETATM   11  C8  UNL     1      14.726  12.514 121.648  1.00  0.00     0.180 C
HETATM   12  C9  UNL     1      14.244  11.408 120.751  1.00  0.00     0.198 C
HETATM   13  C13 UNL     1      12.834  11.029 121.232  1.00  0.00     0.216 C
BRANCH   9  14
HETATM   14  O2  UNL     1      13.177  11.616 123.568  1.00  0.00    -0.382 OA
ATOM     15  H2  UNL     1      12.569  11.648 124.297  1.00  0.00     0.211 HD
ENDBRANCH   9  14
BRANCH  11  16
HETATM   16  O3  UNL     1      15.532  13.390 120.974  1.00  0.00    -0.390 OA
ATOM     17  H3  UNL     1      16.288  12.920 120.643  1.00  0.00     0.210 HD
ENDBRANCH  11  16
BRANCH  12  18
HETATM   18  O4  UNL     1      14.186  11.973 119.450  1.00  0.00    -0.366 OA
ATOM     19  H4  UNL     1      13.881  11.275 118.883  1.00  0.00     0.212 HD
ENDBRANCH  12  18
BRANCH  12  20
HETATM   20  N5  UNL     1      15.170  10.350 120.698  1.00  0.00    -0.257 N
HETATM   21  C10 UNL     1      16.114  10.141 121.622  1.00  0.00     0.195 A
HETATM   22  N6  UNL     1      17.006   9.136 121.574  1.00  0.00    -0.304 N
HETATM   23  C11 UNL     1      16.986   8.264 120.556  1.00  0.00     0.329 A
ATOM     24  H6  UNL     1      17.700   9.036 122.315  1.00  0.00     0.171 HD
HETATM   25  O5  UNL     1      17.828   7.308 120.504  1.00  0.00    -0.247 OA
HETATM   26  N7  UNL     1      16.058   8.432 119.607  1.00  0.00    -0.260 N
HETATM   27  C12 UNL     1      15.177   9.440 119.670  1.00  0.00     0.334 A
ATOM     28  H7  UNL     1      16.020   7.782 118.821  1.00  0.00     0.175 HD
HETATM   29  O6  UNL     1      14.316   9.580 118.772  1.00  0.00    -0.246 OA
ENDBRANCH  12  20
BRANCH  13  30
HETATM   30  O7  UNL     1      12.913   9.679 121.482  1.00  0.00    -0.387 OA
ATOM     31  H7  UNL     1      12.318   9.102 121.018  1.00  0.00     0.210 HD
ENDBRANCH  13  30
ENDBRANCH   5   9
BRANCH   4  32
HETATM   32  N3  UNL     1      10.476  10.046 123.198  1.00  0.00    -0.348 N
ATOM     33  H3  UNL     1      11.399   9.756 123.519  1.00  0.00     0.163 HD
BRANCH  32  34
HETATM   34  C3  UNL     1       9.416   9.065 122.967  1.00  0.00     0.244 C
BRANCH  34  35
HETATM   35  O1  UNL     1       8.954   9.165 121.653  1.00  0.00    -0.375 OA
ATOM     36  H1  UNL     1       8.506   8.364 121.406  1.00  0.00     0.212 HD
ENDBRANCH  34  35
BRANCH  34  37
HETATM   37  C4  UNL     1       9.921   7.649 123.144  1.00  0.00     0.282 C
BRANCH  37  38
HETATM   38  N4  UNL     1      11.319   7.617 123.518  1.00  0.00    -0.075 N
ATOM     39  H43 UNL     1      11.919   7.513 122.700  1.00  0.00     0.274 HD
ATOM     40  H42 UNL     1      11.639   8.532 123.836  1.00  0.00     0.274 HD
ATOM     41  H41 UNL     1      11.511   6.895 124.213  1.00  0.00     0.274 HD
ENDBRANCH  37  38
ENDBRANCH  34  37
ENDBRANCH  32  34
ENDBRANCH   4  32
BRANCH   6  42
HETATM   42  O8  UNL     1      11.563  14.723 122.184  1.00  0.00    -0.345 OA
ATOM     43  H8  UNL     1      12.354  14.994 122.636  1.00  0.00     0.219 HD
ENDBRANCH   6  42
BRANCH   1  44
HETATM   44  N1  UNL     1       7.288  13.472 123.194  1.00  0.00    -0.234 N
ATOM     45  H12 UNL     1       6.521  12.827 123.007  1.00  0.00     0.174 HD
ATOM     46  H11 UNL     1       7.041  14.404 123.527  1.00  0.00     0.174 HD
ENDBRANCH   1  44
TORSDOF 13
ENDMDL