MODEL 2
REMARK VINA RESULT: -6.993728547      0.831      1.835
REMARK  12 active torsions:
REMARK  status: ('A' for Active; 'I' for Inactive)
REMARK    1  A    between atoms: N1_1  and  C1_4
REMARK    2  A    between atoms: N3_7  and  C2_8
REMARK    3  A    between atoms: C3_11  and  C4_12
REMARK    4  A    between atoms: C5_18  and  C6_19
REMARK    5  A    between atoms: C6_19  and  O3_20
REMARK    6  A    between atoms: C6_19  and  C7_22
REMARK    7  A    between atoms: C7_22  and  O4_23
REMARK    8  A    between atoms: C7_22  and  C8_25
REMARK    9  A    between atoms: C8_25  and  O5_26
REMARK   10  A    between atoms: N7_33  and  C11_34
REMARK   11  A    between atoms: C12_38  and  O7_39
REMARK   12  A    between atoms: C12_38  and  O8_41
ROOT
HETATM    1  C1  UNL     1      14.592  10.185 122.055  1.00  0.00     0.145 A
HETATM    2  N2  UNL     1      15.903   9.917 122.061  1.00  0.00    -0.276 N
ATOM      3  H2  UNL     1      16.297   8.983 121.949  1.00  0.00     0.189 HD
HETATM    4  N3  UNL     1      16.629  11.015 122.233  1.00  0.00    -0.225 N
HETATM    5  C9  UNL     1      15.729  12.027 122.338  1.00  0.00     0.158 A
HETATM    6  N6  UNL     1      15.579  13.356 122.512  1.00  0.00    -0.335 N
ATOM      7  H6  UNL     1      16.340  14.026 122.626  1.00  0.00     0.168 HD
HETATM    8  C10 UNL     1      14.272  13.658 122.509  1.00  0.00     0.189 A
HETATM    9  N7  UNL     1      13.551  12.533 122.335  1.00  0.00    -0.286 N
HETATM   10  C13 UNL     1      14.444  11.533 122.230  1.00  0.00     0.130 A
ENDROOT
BRANCH   4  11
HETATM   11  C2  UNL     1      18.083  11.119 122.295  1.00  0.00     0.354 C
HETATM   12  N4  UNL     1      18.488  10.797 123.621  1.00  0.00    -0.343 N
HETATM   13  C3  UNL     1      19.591  11.542 124.135  1.00  0.00     0.388 C
ATOM     14  H4  UNL     1      18.019  10.077 124.171  1.00  0.00     0.160 HD
HETATM   15  N5  UNL     1      20.473  12.054 123.114  1.00  0.00    -0.015 N
HETATM   16  C5  UNL     1      19.715  12.796 122.164  1.00  0.00     0.358 C
ATOM     17  H52 UNL     1      21.242  12.598 123.506  1.00  0.00     0.283 HD
ATOM     18  H51 UNL     1      21.026  11.316 122.677  1.00  0.00     0.283 HD
HETATM   19  O6  UNL     1      18.507  12.318 121.804  1.00  0.00    -0.312 OA
BRANCH  13  20
HETATM   20  C4  UNL     1      19.101  12.603 125.056  1.00  0.00     0.225 C
HETATM   21  O1  UNL     1      19.809  13.199 125.885  1.00  0.00    -0.645 OA
HETATM   22  O2  UNL     1      17.744  12.979 125.012  1.00  0.00    -0.645 OA
ENDBRANCH  13  20
BRANCH  16  23
HETATM   23  C6  UNL     1      20.584  12.894 120.898  1.00  0.00     0.205 C
BRANCH  23  24
HETATM   24  O3  UNL     1      19.860  13.458 119.855  1.00  0.00    -0.389 OA
ATOM     25  H3  UNL     1      20.442  13.726 119.153  1.00  0.00     0.210 HD
ENDBRANCH  23  24
BRANCH  23  26
HETATM   26  C7  UNL     1      21.824  13.680 121.217  1.00  0.00     0.174 C
BRANCH  26  27
HETATM   27  O4  UNL     1      21.500  14.916 121.761  1.00  0.00    -0.391 OA
ATOM     28  H4  UNL     1      21.145  15.495 121.097  1.00  0.00     0.210 HD
ENDBRANCH  26  27
BRANCH  26  29
HETATM   29  C8  UNL     1      22.697  13.873 119.993  1.00  0.00     0.198 C
BRANCH  29  30
HETATM   30  O5  UNL     1      22.173  14.804 119.120  1.00  0.00    -0.398 OA
ATOM     31  H5  UNL     1      21.415  15.247 119.480  1.00  0.00     0.209 HD
ENDBRANCH  29  30
ENDBRANCH  26  29
ENDBRANCH  23  26
ENDBRANCH  16  23
ENDBRANCH   4  11
BRANCH   1  32
HETATM   32  N1  UNL     1      13.635   9.333 121.908  1.00  0.00    -0.382 N
ATOM     33  H12 UNL     1      13.687   8.334 122.111  1.00  0.00     0.157 HD
ATOM     34  H11 UNL     1      12.692   9.529 121.572  1.00  0.00     0.157 HD
ENDBRANCH   1  32
BRANCH   9  35
HETATM   35  C11 UNL     1      12.109  12.485 122.281  1.00  0.00     0.452 C
HETATM   36  N8  UNL     1      11.459  11.656 123.251  1.00  0.00     0.055 N
HETATM   37  C12 UNL     1      10.466  12.737 123.264  1.00  0.00     0.467 C
ATOM     38  H82 UNL     1      11.215  10.682 123.074  1.00  0.00     0.292 HD
ATOM     39  H81 UNL     1      11.925  11.322 124.095  1.00  0.00     0.292 HD
HETATM   40  O9  UNL     1      11.506  13.597 122.910  1.00  0.00    -0.258 OA
BRANCH  37  41
HETATM   41  O7  UNL     1       9.564  12.669 122.185  1.00  0.00    -0.320 OA
ATOM     42  H7  UNL     1       9.592  13.437 121.628  1.00  0.00     0.217 HD
ENDBRANCH  37  41
BRANCH  37  43
HETATM   43  O8  UNL     1       9.891  12.979 124.489  1.00  0.00    -0.320 OA
ATOM     44  H8  UNL     1      10.462  13.399 125.122  1.00  0.00     0.217 HD
ENDBRANCH  37  43
ENDBRANCH   9  35
TORSDOF 12
ENDMDL