MODEL 3
REMARK VINA RESULT: -6.519498527      2.494      5.079
REMARK  12 active torsions:
REMARK  status: ('A' for Active; 'I' for Inactive)
REMARK    1  A    between atoms: N1_1  and  C1_4
REMARK    2  A    between atoms: C1_4  and  O1_5
REMARK    3  A    between atoms: C1_4  and  C12_36
REMARK    4  A    between atoms: O1_5  and  C2_6
REMARK    5  A    between atoms: C2_6  and  C3_7
REMARK    6  A    between atoms: C3_7  and  O2_8
REMARK    7  A    between atoms: C4_11  and  C5_12
REMARK    8  A    between atoms: C5_12  and  O4_13
REMARK    9  A    between atoms: C6_16  and  N2_17
REMARK   10  A    between atoms: C9_22  and  N4_23
REMARK   11  A    between atoms: C10_28  and  N6_29
REMARK   12  A    between atoms: C13_40  and  N11_41
ROOT
HETATM    1  C3  UNL     1      17.930  12.453 122.778  1.00  0.00     0.309 C
HETATM    2  O3  UNL     1      17.254  13.042 121.741  1.00  0.00    -0.298 OA
HETATM    3  C4  UNL     1      15.900  12.857 121.711  1.00  0.00     0.294 C
HETATM    4  O5  UNL     1      15.436  11.626 122.078  1.00  0.00    -0.311 OA
HETATM    5  C6  UNL     1      16.334  10.781 122.671  1.00  0.00     0.387 C
HETATM    6  O6  UNL     1      17.193  11.527 123.473  1.00  0.00    -0.281 OA
ENDROOT
BRANCH   1   7
HETATM    7  C2  UNL     1      19.175  11.745 122.230  1.00  0.00     0.279 C
BRANCH   7   8
HETATM    8  O1  UNL     1      19.601  10.739 123.121  1.00  0.00    -0.328 OA
BRANCH   8   9
HETATM    9  C1  UNL     1      20.683  10.975 123.940  1.00  0.00     0.159 C
BRANCH   9  10
HETATM   10  N1  UNL     1      21.858  10.973 123.407  1.00  0.00    -0.380 N
ATOM     11  H12 UNL     1      21.956  10.966 122.392  1.00  0.00     0.158 HD
ATOM     12  H11 UNL     1      22.667  10.979 124.030  1.00  0.00     0.158 HD
ENDBRANCH   9  10
BRANCH   9  13
HETATM   13  C12 UNL     1      20.530  11.227 125.402  1.00  0.00     0.309 C
HETATM   14  N8  UNL     1      20.265  12.634 125.570  1.00  0.00    -0.089 NA
HETATM   15  N9  UNL     1      20.084  13.015 126.890  1.00  0.00    -0.033 NA
HETATM   16  N10 UNL     1      19.546  12.006 127.675  1.00  0.00    -0.070 NA
HETATM   17  C13 UNL     1      18.794  11.040 126.926  1.00  0.00     0.435 C
HETATM   18  O7  UNL     1      19.533  10.420 125.926  1.00  0.00    -0.315 OA
BRANCH  17  19
HETATM   19  N11 UNL     1      17.627  11.635 126.303  1.00  0.00    -0.037 N
ATOM     20 3H11 UNL     1      17.072  10.936 125.808  1.00  0.00     0.279 HD
ATOM     21 2H11 UNL     1      16.938  11.920 127.000  1.00  0.00     0.279 HD
ATOM     22 1H11 UNL     1      17.879  12.412 125.692  1.00  0.00     0.279 HD
ENDBRANCH  17  19
ENDBRANCH   9  13
ENDBRANCH   8   9
ENDBRANCH   7   8
ENDBRANCH   1   7
BRANCH   1  23
HETATM   23  O2  UNL     1      18.332  13.467 123.678  1.00  0.00    -0.341 OA
ATOM     24  H2  UNL     1      17.764  13.450 124.440  1.00  0.00     0.215 HD
ENDBRANCH   1  23
BRANCH   3  25
HETATM   25  C5  UNL     1      15.149  13.933 122.492  1.00  0.00     0.225 C
BRANCH  25  26
HETATM   26  O4  UNL     1      15.799  15.141 122.506  1.00  0.00    -0.396 OA
ATOM     27  H4  UNL     1      16.159  15.382 121.660  1.00  0.00     0.209 HD
ENDBRANCH  25  26
ENDBRANCH   3  25
BRANCH   5  28
HETATM   28  N2  UNL     1      15.663   9.837 123.573  1.00  0.00    -0.276 N
HETATM   29  C7  UNL     1      14.358   9.698 123.825  1.00  0.00     0.190 A
HETATM   30  N3  UNL     1      14.149   8.713 124.719  1.00  0.00    -0.346 N
HETATM   31  C8  UNL     1      15.352   8.190 125.063  1.00  0.00     0.123 A
ATOM     32  H3  UNL     1      13.242   8.411 125.076  1.00  0.00     0.167 HD
HETATM   33  C9  UNL     1      15.730   7.179 125.921  1.00  0.00     0.145 A
HETATM   34  C11 UNL     1      16.289   8.908 124.335  1.00  0.00     0.158 A
HETATM   35  N5  UNL     1      17.044   6.916 126.025  1.00  0.00    -0.175 N
HETATM   36  C10 UNL     1      17.947   7.633 125.300  1.00  0.00     0.679 A
ATOM     37  H5  UNL     1      17.366   6.176 126.649  1.00  0.00     0.186 HD
HETATM   38  N7  UNL     1      17.599   8.606 124.472  1.00  0.00    -0.174 N
ATOM     39  H7  UNL     1      18.308   9.119 123.947  1.00  0.00     0.186 HD
BRANCH  33  40
HETATM   40  N4  UNL     1      14.856   6.508 126.602  1.00  0.00    -0.383 N
ATOM     41  H42 UNL     1      13.894   6.836 126.694  1.00  0.00     0.157 HD
ATOM     42  H41 UNL     1      15.100   5.633 127.065  1.00  0.00     0.157 HD
ENDBRANCH  33  40
BRANCH  36  43
HETATM   43  N6  UNL     1      19.211   7.352 125.423  1.00  0.00    -0.234 N
ATOM     44  H62 UNL     1      19.504   6.383 125.299  1.00  0.00     0.174 HD
ATOM     45  H61 UNL     1      19.861   8.108 125.639  1.00  0.00     0.174 HD
ENDBRANCH  36  43
ENDBRANCH   5  28
TORSDOF 12
ENDMDL