MODEL 1
REMARK VINA RESULT: -7.344633470      0.000      0.000
REMARK  8 active torsions:
REMARK  status: ('A' for Active; 'I' for Inactive)
REMARK    1  A    between atoms: N1_1  and  C1_4
REMARK    2  A    between atoms: C2_7  and  C3_8
REMARK    3  A    between atoms: C3_8  and  C4_10
REMARK    4  A    between atoms: C4_10  and  N3_11
REMARK    5  A    between atoms: C4_10  and  C5_15
REMARK    6  A    between atoms: C5_15  and  C6_16
REMARK    7  A    between atoms: C9_25  and  N7_26
REMARK    8  A    between atoms: N7_26  and  N8_28
ROOT
HETATM    1  C1  UNL     1      33.263  74.046  34.128  1.00  0.00     0.692 A
HETATM    2  N2  UNL     1      32.424  73.999  33.083  1.00  0.00    -0.172 N
ATOM      3  H2  UNL     1      31.965  73.115  32.863  1.00  0.00     0.186 HD
HETATM    4  C2  UNL     1      32.162  75.071  32.312  1.00  0.00     0.184 A
HETATM    5  N6  UNL     1      32.800  76.204  32.657  1.00  0.00    -0.170 N
ATOM      6  H6  UNL     1      32.636  77.046  32.105  1.00  0.00     0.186 HD
HETATM    7  C9  UNL     1      33.640  76.271  33.696  1.00  0.00     0.712 A
HETATM    8  N9  UNL     1      33.890  75.190  34.454  1.00  0.00    -0.021 N
ATOM      9  H9  UNL     1      34.530  75.236  35.247  1.00  0.00     0.203 HD
ENDROOT
BRANCH   4  10
HETATM   10  C3  UNL     1      31.252  75.037  31.179  1.00  0.00     0.224 C
HETATM   11  O1  UNL     1      31.673  74.514  30.110  1.00  0.00    -0.287 OA
BRANCH  10  12
HETATM   12  C4  UNL     1      29.883  75.565  31.184  1.00  0.00     0.266 C
BRANCH  12  13
HETATM   13  N3  UNL     1      29.021  74.831  30.268  1.00  0.00    -0.068 N
ATOM     14  H33 UNL     1      29.463  73.967  29.953  1.00  0.00     0.275 HD
ATOM     15  H32 UNL     1      28.218  74.432  30.753  1.00  0.00     0.275 HD
ATOM     16  H31 UNL     1      28.731  75.409  29.480  1.00  0.00     0.275 HD
ENDBRANCH  12  13
BRANCH  12  17
HETATM   17  C5  UNL     1      29.220  75.529  32.550  1.00  0.00     0.099 C
BRANCH  17  18
HETATM   18  C6  UNL     1      28.905  76.861  33.065  1.00  0.00     0.028 A
HETATM   19  C7  UNL     1      29.762  77.865  33.453  1.00  0.00     0.114 A
HETATM   20  N4  UNL     1      29.005  78.908  33.856  1.00  0.00    -0.360 N
HETATM   21  C8  UNL     1      27.706  78.575  33.726  1.00  0.00     0.180 A
ATOM     22  H4  UNL     1      29.359  79.799  34.202  1.00  0.00     0.166 HD
HETATM   23  N5  UNL     1      27.666  77.342  33.250  1.00  0.00    -0.355 N
ATOM     24  H5  UNL     1      26.809  76.826  33.051  1.00  0.00     0.166 HD
ENDBRANCH  17  18
ENDBRANCH  12  17
ENDBRANCH  10  12
ENDBRANCH   4  10
BRANCH   1  25
HETATM   25  N1  UNL     1      33.520  73.015  34.875  1.00  0.00    -0.234 N
ATOM     26  H12 UNL     1      33.262  73.093  35.859  1.00  0.00     0.174 HD
ATOM     27  H11 UNL     1      33.957  72.166  34.518  1.00  0.00     0.174 HD
ENDBRANCH   1  25
BRANCH   7  28
HETATM   28  N7  UNL     1      34.250  77.366  34.021  1.00  0.00    -0.138 N
ATOM     29  H7  UNL     1      33.914  78.266  33.678  1.00  0.00     0.205 HD
BRANCH  28  30
HETATM   30  N8  UNL     1      35.367  77.298  34.844  1.00  0.00    -0.331 N
ATOM     31  H82 UNL     1      35.455  76.531  35.510  1.00  0.00     0.177 HD
ATOM     32  H81 UNL     1      36.084  78.019  34.767  1.00  0.00     0.177 HD
ENDBRANCH  28  30
ENDBRANCH   7  28
TORSDOF 8
ENDMDL