MODEL 1
REMARK VINA RESULT: -8.675485345      0.000      0.000
REMARK  5 active torsions:
REMARK  status: ('A' for Active; 'I' for Inactive)
REMARK    1  A    between atoms: C4_9  and  N4_10
REMARK    2  A    between atoms: C5_12  and  O1_13
REMARK    3  A    between atoms: C5_12  and  C6_15
REMARK    4  A    between atoms: C6_15  and  N5_16
REMARK    5  A    between atoms: C6_15  and  C8_21
REMARK       I    between atoms: N5_16  and  C7_18
ROOT
HETATM    1  N4  UNL     1      30.958  76.322  32.807  1.00  0.00    -0.322 N
ATOM      2  H4  UNL     1      30.429  75.979  32.005  1.00  0.00     0.169 HD
HETATM    3  C5  UNL     1      32.133  75.662  32.715  1.00  0.00     0.151 C
ENDROOT
BRANCH   3   4
HETATM    4  O1  UNL     1      32.519  75.403  31.501  1.00  0.00    -0.347 OA
ATOM      5  H1  UNL     1      32.639  74.481  31.309  1.00  0.00     0.219 HD
ENDBRANCH   3   4
BRANCH   3   6
HETATM    6  C6  UNL     1      33.020  75.199  33.809  1.00  0.00     0.260 C
BRANCH   6   7
HETATM    7  N5  UNL     1      33.618  73.949  33.718  1.00  0.00    -0.346 N
HETATM    8  C7  UNL     1      33.550  72.924  34.638  1.00  0.00     0.198 C
HETATM    9  N6  UNL     1      32.252  72.524  35.124  1.00  0.00    -0.067 NA
HETATM   10  N7  UNL     1      34.528  72.937  35.698  1.00  0.00    -0.067 NA
ATOM     11  H5  UNL     1      34.167  73.769  32.877  1.00  0.00     0.163 HD
ENDBRANCH   6   7
BRANCH   6  12
HETATM   12  C8  UNL     1      33.988  76.273  34.214  1.00  0.00     0.205 C
HETATM   13  O2  UNL     1      34.137  77.247  33.449  1.00  0.00    -0.646 OA
HETATM   14  O3  UNL     1      34.681  76.185  35.387  1.00  0.00    -0.646 OA
ENDBRANCH   6  12
ENDBRANCH   3   6
BRANCH   1  15
HETATM   15  C4  UNL     1      30.201  77.100  33.333  1.00  0.00     0.149 A
HETATM   16  C1  UNL     1      28.811  76.971  33.128  1.00  0.00     0.160 A
HETATM   17  N1  UNL     1      28.299  75.915  32.326  1.00  0.00    -0.079 NA
HETATM   18  N2  UNL     1      27.986  77.841  33.698  1.00  0.00    -0.350 N
HETATM   19  C2  UNL     1      28.408  78.852  34.469  1.00  0.00     0.106 A
ATOM     20  H2  UNL     1      26.984  77.735  33.542  1.00  0.00     0.166 HD
HETATM   21  C3  UNL     1      29.752  79.010  34.692  1.00  0.00     0.107 A
HETATM   22  N3  UNL     1      30.588  78.118  34.108  1.00  0.00    -0.348 N
ATOM     23  H3  UNL     1      31.588  78.232  34.273  1.00  0.00     0.167 HD
ENDBRANCH   1  15
TORSDOF 5
ENDMDL