MODEL 2
REMARK VINA RESULT: -7.318889816      1.612      1.807
REMARK  6 active torsions:
REMARK  status: ('A' for Active; 'I' for Inactive)
REMARK       I    between atoms: C1_4  and  N3_6
REMARK    1  A    between atoms: N3_6  and  N4_8
REMARK    2  A    between atoms: C2_10  and  C3_11
REMARK    3  A    between atoms: C2_10  and  N6_16
REMARK    4  A    between atoms: C3_11  and  N5_12
REMARK    5  A    between atoms: N6_16  and  N7_18
REMARK    6  A    between atoms: C5_24  and  C6_25
ROOT
HETATM    1  N4  UNL     1      32.046  75.694  32.262  1.00  0.00    -0.284 N
ATOM      2  H4  UNL     1      32.777  75.317  31.658  1.00  0.00     0.188 HD
HETATM    3  C2  UNL     1      30.867  75.182  32.153  1.00  0.00     0.138 C
ENDROOT
BRANCH   3   4
HETATM    4  C3  UNL     1      29.781  75.691  32.999  1.00  0.00     0.308 C
BRANCH   4   5
HETATM    5  N5  UNL     1      28.749  76.376  32.258  1.00  0.00    -0.073 N
ATOM      6  H53 UNL     1      29.107  77.240  31.852  1.00  0.00     0.274 HD
ATOM      7  H52 UNL     1      28.520  75.870  31.403  1.00  0.00     0.274 HD
ATOM      8  H51 UNL     1      27.908  76.556  32.806  1.00  0.00     0.274 HD
ENDBRANCH   4   5
ENDBRANCH   3   4
BRANCH   3   9
HETATM    9  N6  UNL     1      30.706  74.139  31.201  1.00  0.00    -0.263 N
ATOM     10  H6  UNL     1      30.767  73.177  31.532  1.00  0.00     0.190 HD
BRANCH   9  11
HETATM   11  N7  UNL     1      30.472  74.346  29.845  1.00  0.00    -0.175 N
HETATM   12  N8  UNL     1      31.235  75.044  29.046  1.00  0.00    -0.273 N
HETATM   13  C4  UNL     1      30.721  75.038  27.818  1.00  0.00     0.201 A
ATOM     14  H8  UNL     1      32.094  75.519  29.321  1.00  0.00     0.190 HD
HETATM   15  N9  UNL     1      29.601  74.317  27.852  1.00  0.00    -0.333 N
HETATM   16  C5  UNL     1      29.442  73.883  29.114  1.00  0.00     0.182 A
ATOM     17  H9  UNL     1      28.979  74.128  27.066  1.00  0.00     0.168 HD
BRANCH  16  18
HETATM   18  C6  UNL     1      28.339  73.057  29.584  1.00  0.00     0.160 C
HETATM   19  N10 UNL     1      28.533  72.020  30.518  1.00  0.00    -0.086 NA
HETATM   20  S1  UNL     1      26.850  73.349  29.014  1.00  0.00    -0.060 SA
ENDBRANCH  16  18
ENDBRANCH   9  11
ENDBRANCH   3   9
BRANCH   1  21
HETATM   21  N3  UNL     1      32.400  76.707  33.122  1.00  0.00    -0.272 N
HETATM   22  C1  UNL     1      33.636  76.665  33.857  1.00  0.00     0.200 C
HETATM   23  N1  UNL     1      34.397  77.704  33.932  1.00  0.00    -0.372 N
HETATM   24  N2  UNL     1      34.058  75.489  34.516  1.00  0.00    -0.062 NA
ATOM     25  H12 UNL     1      35.274  77.673  34.453  1.00  0.00     0.158 HD
ATOM     26  H11 UNL     1      34.093  78.553  33.455  1.00  0.00     0.158 HD
ATOM     27  H3  UNL     1      31.773  77.504  33.241  1.00  0.00     0.189 HD
ENDBRANCH   1  21
TORSDOF 6
ENDMDL