MODEL 2
REMARK VINA RESULT: -6.511152162      1.641      4.456
REMARK  8 active torsions:
REMARK  status: ('A' for Active; 'I' for Inactive)
REMARK    1  A    between atoms: C3_5  and  N2_6
REMARK    2  A    between atoms: C4_11  and  N4_12
REMARK       I    between atoms: N4_12  and  C5_14
REMARK    3  A    between atoms: N6_16  and  N7_18
REMARK    4  A    between atoms: N7_18  and  N8_20
REMARK    5  A    between atoms: N9_23  and  C6_24
REMARK    6  A    between atoms: C6_24  and  C7_25
REMARK    7  A    between atoms: C7_25  and  C8_26
REMARK    8  A    between atoms: C8_26  and  N10_28
ROOT
HETATM    1  C1  UNL     1      33.094  73.037  34.220  1.00  0.00     0.090 C
HETATM    2  C2  UNL     1      33.093  74.529  34.079  1.00  0.00     0.112 A
HETATM    3  N1  UNL     1      34.082  75.278  34.598  1.00  0.00    -0.180 N
ATOM      4  H1  UNL     1      34.842  74.814  35.096  1.00  0.00     0.185 HD
HETATM    5  C3  UNL     1      34.105  76.618  34.485  1.00  0.00     0.691 A
HETATM    6  N3  UNL     1      33.124  77.272  33.839  1.00  0.00    -0.022 N
ATOM      7  H3  UNL     1      33.129  78.287  33.748  1.00  0.00     0.203 HD
HETATM    8  C4  UNL     1      32.134  76.523  33.319  1.00  0.00     0.702 A
HETATM    9  N9  UNL     1      32.110  75.177  33.432  1.00  0.00    -0.171 N
ENDROOT
BRANCH   8  10
HETATM   10  N4  UNL     1      31.165  77.133  32.685  1.00  0.00    -0.161 N
HETATM   11  C5  UNL     1      29.969  77.475  33.341  1.00  0.00     0.222 C
HETATM   12  N5  UNL     1      28.822  76.637  33.373  1.00  0.00    -0.061 NA
HETATM   13  N6  UNL     1      29.899  78.615  33.951  1.00  0.00    -0.259 N
ATOM     14  H6  UNL     1      30.723  79.217  33.926  1.00  0.00     0.191 HD
ATOM     15  H4  UNL     1      31.280  77.365  31.698  1.00  0.00     0.187 HD
BRANCH  13  16
HETATM   16  N7  UNL     1      28.791  79.076  34.632  1.00  0.00    -0.247 N
ATOM     17  H7  UNL     1      28.836  79.187  35.644  1.00  0.00     0.207 HD
BRANCH  16  18
HETATM   18  N8  UNL     1      27.617  79.390  33.962  1.00  0.00    -0.331 N
ATOM     19  H82 UNL     1      27.637  79.437  32.943  1.00  0.00     0.178 HD
ATOM     20  H81 UNL     1      26.752  79.569  34.470  1.00  0.00     0.178 HD
ENDBRANCH  16  18
ENDBRANCH  13  16
ENDBRANCH   8  10
BRANCH   9  21
HETATM   21  C6  UNL     1      31.026  74.421  32.856  1.00  0.00     0.151 C
BRANCH  21  22
HETATM   22  C7  UNL     1      31.131  74.298  31.352  1.00  0.00     0.053 C
BRANCH  22  23
HETATM   23  C8  UNL     1      29.700  74.102  30.841  1.00  0.00     0.181 C
HETATM   24  C9  UNL     1      29.731  73.156  29.655  1.00  0.00     0.039 C
BRANCH  23  25
HETATM   25  N10 UNL     1      29.102  75.348  30.452  1.00  0.00    -0.075 N
ATOM     26 3H10 UNL     1      29.399  75.628  29.517  1.00  0.00     0.274 HD
ATOM     27 2H10 UNL     1      28.102  75.243  30.276  1.00  0.00     0.274 HD
ATOM     28 1H10 UNL     1      29.285  76.082  31.136  1.00  0.00     0.274 HD
ENDBRANCH  23  25
ENDBRANCH  22  23
ENDBRANCH  21  22
ENDBRANCH   9  21
BRANCH   5  29
HETATM   29  N2  UNL     1      35.081  77.303  35.005  1.00  0.00    -0.234 N
ATOM     30  H22 UNL     1      35.280  77.202  36.000  1.00  0.00     0.174 HD
ATOM     31  H21 UNL     1      35.637  77.929  34.422  1.00  0.00     0.174 HD
ENDBRANCH   5  29
TORSDOF 8
ENDMDL