MODEL 5
REMARK VINA RESULT: -5.919859886      1.830      4.631
REMARK  6 active torsions:
REMARK  status: ('A' for Active; 'I' for Inactive)
REMARK    1  A    between atoms: C3_5  and  C4_6
REMARK    2  A    between atoms: C4_6  and  N2_7
REMARK    3  A    between atoms: C5_11  and  C6_12
REMARK       I    between atoms: C6_12  and  N3_14
REMARK    4  A    between atoms: C7_16  and  N4_17
REMARK    5  A    between atoms: N4_17  and  N5_19
REMARK    6  A    between atoms: C8_22  and  N6_23
REMARK       I    between atoms: N6_23  and  C9_25
REMARK       I    between atoms: C9_25  and  N7_26
REMARK       I    between atoms: C9_25  and  N8_30
ROOT
HETATM    1  C1  UNL     1      33.025  74.386  28.982  1.00  0.00     0.089 C
HETATM    2  C2  UNL     1      32.156  74.863  30.084  1.00  0.00     0.078 A
HETATM    3  N1  UNL     1      32.617  75.458  31.185  1.00  0.00    -0.347 N
ATOM      4  H1  UNL     1      33.623  75.595  31.280  1.00  0.00     0.167 HD
HETATM    5  C3  UNL     1      31.798  75.893  32.196  1.00  0.00     0.055 A
HETATM    6  C5  UNL     1      30.449  75.695  32.045  1.00  0.00     0.100 A
HETATM    7  C8  UNL     1      29.956  75.065  30.879  1.00  0.00     0.123 A
HETATM    8  N9  UNL     1      30.833  74.679  29.954  1.00  0.00    -0.332 N
ATOM      9  H9  UNL     1      30.485  74.224  29.110  1.00  0.00     0.168 HD
ENDROOT
BRANCH   7  10
HETATM   10  N6  UNL     1      28.703  74.902  30.778  1.00  0.00    -0.326 N
HETATM   11  C9  UNL     1      27.993  74.111  29.824  1.00  0.00     0.481 C
HETATM   12  N7  UNL     1      28.252  72.698  29.908  1.00  0.00    -0.033 N
HETATM   13  N8  UNL     1      28.138  74.583  28.455  1.00  0.00    -0.033 N
ATOM     14  H73 UNL     1      29.254  72.517  29.844  1.00  0.00     0.278 HD
ATOM     15  H72 UNL     1      28.073  72.360  30.853  1.00  0.00     0.278 HD
ATOM     16  H71 UNL     1      27.745  72.133  29.227  1.00  0.00     0.278 HD
ATOM     17  H83 UNL     1      27.870  75.565  28.382  1.00  0.00     0.278 HD
ATOM     18  H82 UNL     1      29.123  74.656  28.200  1.00  0.00     0.278 HD
ATOM     19  H81 UNL     1      27.630  74.018  27.774  1.00  0.00     0.278 HD
ATOM     20  H6  UNL     1      28.132  75.396  31.464  1.00  0.00     0.164 HD
ENDBRANCH   7  10
BRANCH   6  21
HETATM   21  C6  UNL     1      29.515  76.118  33.067  1.00  0.00     0.262 C
HETATM   22  O1  UNL     1      29.108  75.234  33.896  1.00  0.00    -0.267 OA
HETATM   23  N3  UNL     1      29.032  77.412  33.209  1.00  0.00    -0.318 N
HETATM   24  C7  UNL     1      27.882  77.728  33.706  1.00  0.00     0.199 C
ATOM     25  H3  UNL     1      29.634  78.175  32.897  1.00  0.00     0.169 HD
BRANCH  24  26
HETATM   26  N4  UNL     1      27.465  79.063  33.816  1.00  0.00    -0.303 N
ATOM     27  H4  UNL     1      27.721  79.734  33.092  1.00  0.00     0.187 HD
BRANCH  26  28
HETATM   28  N5  UNL     1      26.705  79.484  34.905  1.00  0.00    -0.344 N
ATOM     29  H52 UNL     1      26.469  78.805  35.628  1.00  0.00     0.176 HD
ATOM     30  H51 UNL     1      26.392  80.451  34.979  1.00  0.00     0.176 HD
ENDBRANCH  26  28
ENDBRANCH  24  26
ENDBRANCH   6  21
BRANCH   5  31
HETATM   31  C4  UNL     1      32.382  76.544  33.376  1.00  0.00     0.287 C
BRANCH  31  32
HETATM   32  N2  UNL     1      33.858  76.421  33.234  1.00  0.00    -0.074 N
ATOM     33  H23 UNL     1      34.192  76.613  32.289  1.00  0.00     0.274 HD
ATOM     34  H22 UNL     1      34.374  77.166  33.703  1.00  0.00     0.274 HD
ATOM     35  H21 UNL     1      34.101  75.488  33.567  1.00  0.00     0.274 HD
ENDBRANCH  31  32
ENDBRANCH   5  31
TORSDOF 6
ENDMDL