MODEL 2
REMARK VINA RESULT: -7.868822692      1.136      1.511
REMARK  6 active torsions:
REMARK  status: ('A' for Active; 'I' for Inactive)
REMARK    1  A    between atoms: N1_1  and  N2_4
REMARK       I    between atoms: N2_4  and  C1_6
REMARK    2  A    between atoms: C1_6  and  C2_8
REMARK    3  A    between atoms: N3_9  and  N4_11
REMARK       I    between atoms: N4_11  and  C3_13
REMARK       I    between atoms: C3_13  and  N5_15
REMARK    4  A    between atoms: N5_15  and  N6_17
REMARK    5  A    between atoms: C4_19  and  C5_20
REMARK    6  A    between atoms: N7_24  and  N8_25
ROOT
HETATM    1  N4  UNL     1      33.811  73.936  35.730  1.00  0.00    -0.251 N
ATOM      2  H4  UNL     1      34.809  74.081  35.579  1.00  0.00     0.191 HD
HETATM    3  C3  UNL     1      32.907  73.947  34.617  1.00  0.00     0.353 C
HETATM    4  O2  UNL     1      31.669  73.770  34.779  1.00  0.00    -0.244 OA
HETATM    5  N5  UNL     1      33.435  74.162  33.322  1.00  0.00    -0.251 N
ATOM      6  H5  UNL     1      34.437  74.305  33.192  1.00  0.00     0.191 HD
ENDROOT
BRANCH   1   7
HETATM    7  N3  UNL     1      33.331  73.730  36.994  1.00  0.00    -0.302 N
HETATM    8  C2  UNL     1      33.821  73.060  37.927  1.00  0.00     0.182 C
ATOM      9  H3  UNL     1      32.446  74.191  37.206  1.00  0.00     0.186 HD
BRANCH   8  10
HETATM   10  C1  UNL     1      35.028  72.312  37.936  1.00  0.00     0.276 C
HETATM   11  N2  UNL     1      35.807  71.882  39.022  1.00  0.00    -0.272 N
ATOM     12  H2  UNL     1      35.499  72.119  39.965  1.00  0.00     0.189 HD
HETATM   13  O1  UNL     1      35.499  71.962  36.776  1.00  0.00    -0.265 OA
BRANCH  11  14
HETATM   14  N1  UNL     1      37.000  71.135  38.872  1.00  0.00    -0.342 N
ATOM     15  H12 UNL     1      37.864  71.657  38.729  1.00  0.00     0.176 HD
ATOM     16  H11 UNL     1      37.028  70.116  38.900  1.00  0.00     0.176 HD
ENDBRANCH  11  14
ENDBRANCH   8  10
ENDBRANCH   1   7
BRANCH   5  17
HETATM   17  N6  UNL     1      32.573  74.176  32.226  1.00  0.00    -0.306 N
HETATM   18  C4  UNL     1      32.151  75.282  31.691  1.00  0.00     0.138 C
ATOM     19  H6  UNL     1      32.263  73.288  31.832  1.00  0.00     0.186 HD
BRANCH  18  20
HETATM   20  C5  UNL     1      31.255  75.166  30.552  1.00  0.00     0.072 A
HETATM   21  C6  UNL     1      31.666  74.835  29.281  1.00  0.00     0.034 A
HETATM   22  C7  UNL     1      30.536  74.827  28.486  1.00  0.00     0.022 A
HETATM   23  C8  UNL     1      29.460  75.147  29.255  1.00  0.00     0.116 A
HETATM   24  N7  UNL     1      29.928  75.348  30.506  1.00  0.00    -0.273 N
BRANCH  24  25
HETATM   25  N8  UNL     1      29.174  75.702  31.650  1.00  0.00    -0.339 N
ATOM     26  H82 UNL     1      29.241  75.290  32.581  1.00  0.00     0.177 HD
ATOM     27  H81 UNL     1      28.466  76.436  31.631  1.00  0.00     0.177 HD
ENDBRANCH  24  25
ENDBRANCH  18  20
ENDBRANCH   5  17
TORSDOF 6
ENDMDL