MODEL 1
REMARK VINA RESULT: -7.646747269      0.000      0.000
REMARK  8 active torsions:
REMARK  status: ('A' for Active; 'I' for Inactive)
REMARK    1  A    between atoms: N1_1  and  C1_4
REMARK    2  A    between atoms: C4_13  and  N5_14
REMARK    3  A    between atoms: N5_14  and  N6_16
REMARK    4  A    between atoms: N6_16  and  C5_18
REMARK    5  A    between atoms: C5_18  and  C6_19
REMARK    6  A    between atoms: C5_18  and  C7_21
REMARK    7  A    between atoms: C7_21  and  N7_22
REMARK    8  A    between atoms: C7_21  and  O2_26
ROOT
HETATM    1  C1  UNL     1      29.611  78.599  34.397  1.00  0.00     0.115 A
HETATM    2  N2  UNL     1      28.325  79.020  34.567  1.00  0.00    -0.338 N
ATOM      3  H2  UNL     1      28.125  79.817  35.173  1.00  0.00     0.168 HD
HETATM    4  C2  UNL     1      27.321  78.386  33.937  1.00  0.00     0.183 A
HETATM    5  N3  UNL     1      27.596  77.335  33.139  1.00  0.00    -0.337 N
ATOM      6  H3  UNL     1      26.828  76.861  32.665  1.00  0.00     0.168 HD
HETATM    7  C3  UNL     1      28.857  76.890  32.949  1.00  0.00     0.137 A
HETATM    8  N4  UNL     1      29.137  75.849  32.161  1.00  0.00    -0.174 N
ATOM      9  H4  UNL     1      28.368  75.375  31.688  1.00  0.00     0.186 HD
HETATM   10  C4  UNL     1      30.417  75.388  31.960  1.00  0.00     0.698 A
HETATM   11  N8  UNL     1      31.428  76.005  32.577  1.00  0.00    -0.199 N
ATOM     12  H8  UNL     1      32.384  75.676  32.439  1.00  0.00     0.183 HD
HETATM   13  C8  UNL     1      31.193  77.053  33.375  1.00  0.00     0.125 A
HETATM   14  C9  UNL     1      29.902  77.525  33.585  1.00  0.00     0.068 A
ENDROOT
BRANCH  10  15
HETATM   15  N5  UNL     1      30.615  74.384  31.191  1.00  0.00    -0.135 N
ATOM     16  H5  UNL     1      30.654  73.448  31.594  1.00  0.00     0.205 HD
BRANCH  15  17
HETATM   17  N6  UNL     1      30.778  74.540  29.832  1.00  0.00    -0.306 N
ATOM     18  H6  UNL     1      31.646  74.952  29.490  1.00  0.00     0.181 HD
BRANCH  17  19
HETATM   19  C5  UNL     1      29.766  74.142  28.859  1.00  0.00     0.216 C
BRANCH  19  20
HETATM   20  C6  UNL     1      29.167  75.355  28.270  1.00  0.00     0.262 C
HETATM   21  O1  UNL     1      28.225  75.288  27.519  1.00  0.00    -0.304 OA
ENDBRANCH  19  20
BRANCH  19  22
HETATM   22  C7  UNL     1      28.723  73.252  29.512  1.00  0.00     0.347 C
BRANCH  22  23
HETATM   23  N7  UNL     1      27.982  72.486  28.564  1.00  0.00    -0.051 N
ATOM     24  H73 UNL     1      28.469  71.620  28.332  1.00  0.00     0.277 HD
ATOM     25  H72 UNL     1      27.141  72.093  28.987  1.00  0.00     0.277 HD
ATOM     26  H71 UNL     1      27.756  73.015  27.721  1.00  0.00     0.277 HD
ENDBRANCH  22  23
BRANCH  22  27
HETATM   27  O2  UNL     1      27.868  74.034  30.262  1.00  0.00    -0.368 OA
ATOM     28  H2  UNL     1      26.973  73.761  30.100  1.00  0.00     0.212 HD
ENDBRANCH  22  27
ENDBRANCH  19  22
ENDBRANCH  17  19
ENDBRANCH  15  17
ENDBRANCH  10  15
BRANCH   1  29
HETATM   29  N1  UNL     1      30.593  79.182  34.985  1.00  0.00    -0.385 N
ATOM     30  H12 UNL     1      30.490  80.173  35.207  1.00  0.00     0.157 HD
ATOM     31  H11 UNL     1      31.447  78.679  35.222  1.00  0.00     0.157 HD
ENDBRANCH   1  29
TORSDOF 8
ENDMDL