MODEL 4
REMARK VINA RESULT: -7.893710819      3.989      5.905
REMARK  5 active torsions:
REMARK  status: ('A' for Active; 'I' for Inactive)
REMARK    1  A    between atoms: N1_1  and  C1_4
REMARK    2  A    between atoms: C3_11  and  C4_12
REMARK    3  A    between atoms: N4_13  and  N5_15
REMARK       I    between atoms: N5_15  and  C5_17
REMARK       I    between atoms: C5_17  and  N6_19
REMARK    4  A    between atoms: N6_19  and  N7_21
REMARK    5  A    between atoms: C6_24  and  N8_25
ROOT
HETATM    1  C1  UNL     1      32.482  75.124  32.903  1.00  0.00     0.148 A
HETATM    2  N2  UNL     1      32.487  76.441  32.708  1.00  0.00    -0.281 N
ATOM      3  H2  UNL     1      32.009  76.833  31.897  1.00  0.00     0.188 HD
HETATM    4  N3  UNL     1      33.105  77.248  33.555  1.00  0.00    -0.264 N
ATOM      5  H3  UNL     1      33.091  78.252  33.376  1.00  0.00     0.190 HD
HETATM    6  C2  UNL     1      33.749  76.793  34.639  1.00  0.00     0.274 A
HETATM    7  O1  UNL     1      34.340  77.584  35.445  1.00  0.00    -0.266 OA
HETATM    8  C3  UNL     1      33.798  75.427  34.927  1.00  0.00     0.087 A
HETATM    9  C6  UNL     1      33.149  74.613  34.031  1.00  0.00     0.164 A
ENDROOT
BRANCH   8  10
HETATM   10  C4  UNL     1      34.491  74.968  36.104  1.00  0.00     0.127 C
HETATM   11  N4  UNL     1      34.046  74.184  36.995  1.00  0.00    -0.307 N
ATOM     12  H4  UNL     1      33.097  73.828  36.887  1.00  0.00     0.186 HD
BRANCH  11  13
HETATM   13  N5  UNL     1      34.770  73.779  38.109  1.00  0.00    -0.251 N
HETATM   14  C5  UNL     1      35.613  72.639  38.152  1.00  0.00     0.352 C
HETATM   15  O2  UNL     1      35.743  71.919  37.126  1.00  0.00    -0.244 OA
HETATM   16  N6  UNL     1      36.299  72.328  39.344  1.00  0.00    -0.257 N
ATOM     17  H6  UNL     1      36.187  72.918  40.168  1.00  0.00     0.191 HD
ATOM     18  H5  UNL     1      34.689  74.341  38.957  1.00  0.00     0.191 HD
BRANCH  16  19
HETATM   19  N7  UNL     1      37.125  71.218  39.392  1.00  0.00    -0.341 N
ATOM     20  H72 UNL     1      36.785  70.329  39.026  1.00  0.00     0.177 HD
ATOM     21  H71 UNL     1      38.062  71.301  39.789  1.00  0.00     0.177 HD
ENDBRANCH  16  19
ENDBRANCH  11  13
ENDBRANCH   8  10
BRANCH   9  22
HETATM   22  N8  UNL     1      33.177  73.197  34.244  1.00  0.00    -0.111 N
HETATM   23  O3  UNL     1      34.100  72.491  33.798  1.00  0.00    -0.532 OA
HETATM   24  O4  UNL     1      32.180  72.560  34.951  1.00  0.00    -0.532 OA
ENDBRANCH   9  22
BRANCH   1  25
HETATM   25  N1  UNL     1      31.901  74.290  32.111  1.00  0.00    -0.382 N
ATOM     26  H12 UNL     1      31.513  74.646  31.238  1.00  0.00     0.157 HD
ATOM     27  H11 UNL     1      31.805  73.295  32.313  1.00  0.00     0.157 HD
ENDBRANCH   1  25
TORSDOF 5
ENDMDL