MODEL 3
REMARK VINA RESULT: -8.521719785      0.778      1.281
REMARK  4 active torsions:
REMARK  status: ('A' for Active; 'I' for Inactive)
REMARK    1  A    between atoms: C2_3  and  N2_4
REMARK    2  A    between atoms: C2_3  and  S1_8
REMARK    3  A    between atoms: S1_8  and  C3_9
REMARK    4  A    between atoms: C4_12  and  C5_13
REMARK       I    between atoms: C5_13  and  N4_15
ROOT
HETATM    1  N1  UNL     1      25.833  74.113  28.617  1.00  0.00    -0.194 NA
HETATM    2  C1  UNL     1      26.889  73.726  28.885  1.00  0.00     0.103 C
HETATM    3  C2  UNL     1      28.242  73.250  29.218  1.00  0.00     0.358 C
ENDROOT
BRANCH   3   4
HETATM    4  N2  UNL     1      28.667  72.212  28.278  1.00  0.00    -0.053 N
ATOM      5  H23 UNL     1      28.148  72.259  27.400  1.00  0.00     0.276 HD
ATOM      6  H22 UNL     1      29.601  72.392  27.911  1.00  0.00     0.276 HD
ATOM      7  H21 UNL     1      28.600  71.289  28.709  1.00  0.00     0.276 HD
ENDBRANCH   3   4
BRANCH   3   8
HETATM    8  S1  UNL     1      29.425  74.588  29.124  1.00  0.00    -0.046 SA
BRANCH   8   9
HETATM    9  C3  UNL     1      30.045  75.073  30.720  1.00  0.00     0.164 A
HETATM   10  N3  UNL     1      31.257  74.684  31.104  1.00  0.00    -0.317 N
HETATM   11  C4  UNL     1      31.813  75.003  32.298  1.00  0.00     0.191 A
ATOM     12  H3  UNL     1      31.801  74.110  30.461  1.00  0.00     0.169 HD
HETATM   13  N7  UNL     1      31.050  75.765  33.108  1.00  0.00    -0.171 N
HETATM   14  C7  UNL     1      29.814  76.187  32.770  1.00  0.00     0.679 A
ATOM     15  H7  UNL     1      31.424  76.033  34.018  1.00  0.00     0.186 HD
HETATM   16  N8  UNL     1      29.110  76.907  33.554  1.00  0.00    -0.234 N
HETATM   17  N9  UNL     1      29.319  75.832  31.564  1.00  0.00    -0.170 N
ATOM     18  H82 UNL     1      29.484  77.175  34.465  1.00  0.00     0.174 HD
ATOM     19  H81 UNL     1      28.176  77.227  33.299  1.00  0.00     0.174 HD
ATOM     20  H9  UNL     1      28.387  76.142  31.290  1.00  0.00     0.186 HD
BRANCH  11  21
HETATM   21  C5  UNL     1      33.135  74.556  32.674  1.00  0.00     0.292 C
HETATM   22  O1  UNL     1      34.135  75.154  32.242  1.00  0.00    -0.264 OA
HETATM   23  N4  UNL     1      33.290  73.448  33.530  1.00  0.00    -0.297 N
HETATM   24  C6  UNL     1      33.712  73.603  34.753  1.00  0.00     0.203 C
ATOM     25  H4  UNL     1      33.068  72.513  33.188  1.00  0.00     0.171 HD
HETATM   26  N5  UNL     1      33.870  72.501  35.615  1.00  0.00    -0.066 NA
HETATM   27  N6  UNL     1      34.014  74.908  35.213  1.00  0.00    -0.066 NA
ENDBRANCH  11  21
ENDBRANCH   8   9
ENDBRANCH   3   8
TORSDOF 4
ENDMDL