MODEL 1
REMARK VINA RESULT: -9.056092592      0.000      0.000
REMARK  4 active torsions:
REMARK  status: ('A' for Active; 'I' for Inactive)
REMARK       I    between atoms: C1_4  and  N3_6
REMARK    1  A    between atoms: N3_6  and  N4_8
REMARK       I    between atoms: N4_8  and  C2_10
REMARK    2  A    between atoms: C2_10  and  C3_12
REMARK    3  A    between atoms: C3_12  and  C4_13
REMARK    4  A    between atoms: C3_12  and  N5_16
ROOT
HETATM    1  C3  UNL     1      31.345  74.985  32.736  1.00  0.00     0.303 C
ENDROOT
BRANCH   1   2
HETATM    2  C2  UNL     1      32.719  75.539  32.759  1.00  0.00     0.271 C
HETATM    3  N4  UNL     1      32.927  76.720  33.544  1.00  0.00    -0.265 N
ATOM      4  H4  UNL     1      32.130  77.118  34.042  1.00  0.00     0.190 HD
HETATM    5  O1  UNL     1      33.623  74.982  32.119  1.00  0.00    -0.269 OA
BRANCH   3   6
HETATM    6  N3  UNL     1      34.166  77.352  33.661  1.00  0.00    -0.271 N
HETATM    7  C1  UNL     1      35.034  77.103  34.752  1.00  0.00     0.200 C
HETATM    8  N1  UNL     1      36.101  77.795  34.928  1.00  0.00    -0.372 N
HETATM    9  N2  UNL     1      34.755  76.073  35.713  1.00  0.00    -0.062 NA
ATOM     10  H12 UNL     1      36.726  77.616  35.714  1.00  0.00     0.158 HD
ATOM     11  H11 UNL     1      36.299  78.527  34.246  1.00  0.00     0.158 HD
ATOM     12  H3  UNL     1      34.455  78.012  32.939  1.00  0.00     0.189 HD
ENDBRANCH   3   6
ENDBRANCH   1   2
BRANCH   1  13
HETATM   13  C4  UNL     1      30.448  75.789  33.641  1.00  0.00     0.208 C
HETATM   14  O2  UNL     1      29.884  76.843  33.274  1.00  0.00    -0.646 OA
HETATM   15  O3  UNL     1      30.230  75.361  34.938  1.00  0.00    -0.646 OA
ENDBRANCH   1  13
BRANCH   1  16
HETATM   16  N5  UNL     1      30.741  75.055  31.418  1.00  0.00    -0.247 N
HETATM   17  N6  UNL     1      29.442  75.158  31.081  1.00  0.00    -0.277 N
HETATM   18  C5  UNL     1      29.806  75.175  29.787  1.00  0.00     0.166 A
ATOM     19  H6  UNL     1      28.560  75.204  31.590  1.00  0.00     0.189 HD
HETATM   20  N7  UNL     1      29.470  75.241  28.490  1.00  0.00    -0.347 N
HETATM   21  C8  UNL     1      31.140  75.067  30.133  1.00  0.00     0.170 A
HETATM   22  C6  UNL     1      30.407  75.206  27.507  1.00  0.00     0.107 A
ATOM     23  H7  UNL     1      28.485  75.319  28.236  1.00  0.00     0.167 HD
HETATM   24  C7  UNL     1      31.721  75.100  27.894  1.00  0.00     0.107 A
HETATM   25  N8  UNL     1      32.074  75.030  29.202  1.00  0.00    -0.347 N
ATOM     26  H8  UNL     1      33.057  74.950  29.464  1.00  0.00     0.167 HD
ENDBRANCH   1  16
TORSDOF 4
ENDMDL