MODEL 1
REMARK VINA RESULT: -5.308890598      0.000      0.000
REMARK  3 active torsions:
REMARK  status: ('A' for Active; 'I' for Inactive)
REMARK       I    between atoms: C2_2  and  N1_4
REMARK    1  A    between atoms: N1_4  and  C3_6
REMARK    2  A    between atoms: C3_6  and  S2_8
REMARK    3  A    between atoms: S2_8  and  C4_9
ROOT
HETATM    1  C3  UNL     1      23.050  30.960  11.309  1.00  0.00     0.141 C
HETATM    2  S1  UNL     1      22.686  32.490  10.796  1.00  0.00    -0.052 SA
ENDROOT
BRANCH   1   3
HETATM    3  N1  UNL     1      23.612  30.825  12.602  1.00  0.00    -0.313 N
HETATM    4  C2  UNL     1      25.003  30.910  12.830  1.00  0.00     0.219 C
HETATM    5  C1  UNL     1      25.527  30.758  14.221  1.00  0.00     0.117 C
HETATM    6  O1  UNL     1      25.837  31.110  11.919  1.00  0.00    -0.274 OA
ATOM      7  H1  UNL     1      22.991  30.660  13.394  1.00  0.00     0.170 HD
ENDBRANCH   1   3
BRANCH   1   8
HETATM    8  S2  UNL     1      22.708  29.580  10.229  1.00  0.00    -0.096 SA
BRANCH   8   9
HETATM    9  C4  UNL     1      21.119  28.859  10.723  1.00  0.00     0.054 C
HETATM   10  C5  UNL     1      20.846  27.569   9.970  1.00  0.00     0.015 C
HETATM   11  C6  UNL     1      19.372  27.452   9.703  1.00  0.00     0.001 C
HETATM   12  C7  UNL     1      18.914  28.450   8.654  1.00  0.00     0.000 C
HETATM   13  C8  UNL     1      19.879  29.629   8.767  1.00  0.00     0.001 C
HETATM   14  C9  UNL     1      20.047  29.868  10.275  1.00  0.00     0.015 C
ENDBRANCH   8   9
ENDBRANCH   1   8
TORSDOF 3
ENDMDL