MODEL 3
REMARK VINA RESULT: -5.741115990      2.563      3.574
REMARK  4 active torsions:
REMARK  status: ('A' for Active; 'I' for Inactive)
REMARK    1  A    between atoms: C4_4  and  C5_5
REMARK    2  A    between atoms: C5_5  and  C7_8
REMARK    3  A    between atoms: C7_8  and  C8_13
REMARK    4  A    between atoms: N2_9  and  O1_11
ROOT
HETATM    1  C1  UNL     1      27.024  29.722  15.945  1.00  0.00     0.027 C
HETATM    2  C2  UNL     1      26.321  29.829  14.968  1.00  0.00    -0.026 C
HETATM    3  C3  UNL     1      25.514  29.968  13.814  1.00  0.00    -0.014 C
HETATM    4  C4  UNL     1      24.833  30.105  12.820  1.00  0.00    -0.067 C
ENDROOT
BRANCH   4   5
HETATM    5  C5  UNL     1      24.027  30.279  11.598  1.00  0.00     0.220 C
HETATM    6  C6  UNL     1      23.420  31.615  11.572  1.00  0.00     0.082 C
HETATM    7  N1  UNL     1      22.951  32.686  11.569  1.00  0.00    -0.196 NA
BRANCH   5   8
HETATM    8  C7  UNL     1      23.001  29.227  11.531  1.00  0.00     0.043 C
HETATM    9  N2  UNL     1      23.114  28.246  12.365  1.00  0.00    -0.275 N
ATOM     10  H2  UNL     1      23.899  28.253  13.017  1.00  0.00     0.193 HD
BRANCH   9  11
HETATM   11  O1  UNL     1      22.247  27.214  12.416  1.00  0.00    -0.290 OA
ATOM     12  H1  UNL     1      21.884  26.878  13.227  1.00  0.00     0.244 HD
ENDBRANCH   9  11
BRANCH   8  13
HETATM   13  C8  UNL     1      21.870  29.187  10.613  1.00  0.00     0.035 C
HETATM   14  C9  UNL     1      20.706  30.073  10.943  1.00  0.00     0.010 C
HETATM   15  C10 UNL     1      19.519  29.522  10.134  1.00  0.00     0.001 C
HETATM   16  C11 UNL     1      19.960  28.914   8.840  1.00  0.00     0.000 C
HETATM   17  C12 UNL     1      21.115  29.754   8.305  1.00  0.00     0.001 C
HETATM   18  C13 UNL     1      22.330  29.481   9.172  1.00  0.00     0.010 C
ENDBRANCH   8  13
ENDBRANCH   5   8
ENDBRANCH   4   5
TORSDOF 4
ENDMDL