MODEL 5
REMARK VINA RESULT: -5.139383687      3.289      5.596
REMARK  2 active torsions:
REMARK  status: ('A' for Active; 'I' for Inactive)
REMARK    1  A    between atoms: O1_1  and  C1_3
REMARK    2  A    between atoms: N1_9  and  C7_11
ROOT
HETATM    1  C1  UNL     1      25.544  33.285  11.802  1.00  0.00     0.123 C
HETATM    2  C2  UNL     1      26.265  31.995  12.077  1.00  0.00     0.032 C
HETATM    3  C3  UNL     1      26.108  31.521  13.492  1.00  0.00     0.003 C
HETATM    4  C4  UNL     1      24.707  31.173  13.860  1.00  0.00     0.006 C
HETATM    5  C5  UNL     1      23.992  30.650  12.634  1.00  0.00     0.052 C
HETATM    6  C6  UNL     1      23.557  31.783  11.784  1.00  0.00    -0.015 C
HETATM    7  N1  UNL     1      22.650  31.562  10.926  1.00  0.00    -0.391 N
ATOM      8  H1  UNL     1      22.365  32.354  10.349  1.00  0.00     0.159 HD
HETATM    9  C11 UNL     1      24.063  33.174  11.810  1.00  0.00     0.083 C
ENDROOT
BRANCH   7  10
HETATM   10  C7  UNL     1      21.995  30.340  10.685  1.00  0.00     0.091 C
HETATM   11  C8  UNL     1      22.557  29.639   9.457  1.00  0.00     0.036 C
HETATM   12  C9  UNL     1      21.874  28.263   9.492  1.00  0.00     0.076 C
HETATM   13  S1  UNL     1      20.139  28.841   9.686  1.00  0.00    -0.167 SA
HETATM   14  C10 UNL     1      20.507  30.476  10.443  1.00  0.00     0.098 C
ENDBRANCH   7  10
BRANCH   1  15
HETATM   15  O1  UNL     1      25.997  34.277  12.661  1.00  0.00    -0.395 OA
ATOM     16  H1  UNL     1      25.736  34.081  13.553  1.00  0.00     0.210 HD
ENDBRANCH   1  15
TORSDOF 2
ENDMDL