MODEL 2
REMARK VINA RESULT: -6.154660434      2.403      4.894
REMARK  1 active torsions:
REMARK  status: ('A' for Active; 'I' for Inactive)
REMARK    1  A    between atoms: S1_2  and  C2_3
ROOT
HETATM    1  C2  UNL     1      22.601  30.914  11.654  1.00  0.00     0.183 C
HETATM    2  C3  UNL     1      23.576  29.906  11.130  1.00  0.00     0.046 C
HETATM    3  C4  UNL     1      22.831  29.398   9.899  1.00  0.00     0.043 C
HETATM    4  C5  UNL     1      21.411  29.487  10.390  1.00  0.00     0.082 C
HETATM    5  C6  UNL     1      21.061  28.193  11.107  1.00  0.00     0.040 C
HETATM    6  C7  UNL     1      20.780  27.170  10.039  1.00  0.00     0.008 C
HETATM    7  C8  UNL     1      19.338  26.994   9.716  1.00  0.00     0.044 C
HETATM    8  C9  UNL     1      18.490  28.205   9.700  1.00  0.00     0.056 C
HETATM    9  N1  UNL     1      19.108  29.464   9.836  1.00  0.00    -0.395 N
ATOM     10  H1  UNL     1      18.636  30.228  10.318  1.00  0.00     0.159 HD
HETATM   11  C10 UNL     1      20.404  29.643   9.286  1.00  0.00     0.111 C
HETATM   12  C11 UNL     1      20.497  31.091   8.816  1.00  0.00     0.035 C
HETATM   13  O1  UNL     1      21.331  30.546  11.267  1.00  0.00    -0.362 OA
ENDROOT
BRANCH   1  14
HETATM   14  S1  UNL     1      22.899  32.589  11.074  1.00  0.00    -0.142 SA
HETATM   15  C1  UNL     1      24.365  33.350  11.773  1.00  0.00     0.092 C
ENDBRANCH   1  14
TORSDOF 1
ENDMDL