MODEL 1
REMARK VINA RESULT: -7.082354346      0.000      0.000
REMARK  1 active torsions:
REMARK  status: ('A' for Active; 'I' for Inactive)
REMARK    1  A    between atoms: C2_2  and  C4_5
ROOT
HETATM    1  C1  UNL     1      18.135  28.185   9.849  1.00  0.00     0.028 C
HETATM    2  C2  UNL     1      19.475  27.578   9.511  1.00  0.00     0.121 C
HETATM    3  C3  UNL     1      19.954  26.700  10.579  1.00  0.00     0.066 C
HETATM    4  N1  UNL     1      20.327  26.007  11.417  1.00  0.00    -0.197 NA
ENDROOT
BRANCH   2   5
HETATM    5  C4  UNL     1      20.490  28.733   9.345  1.00  0.00     0.156 C
HETATM    6  N2  UNL     1      21.255  28.709  10.538  1.00  0.00    -0.403 N
HETATM    7  C5  UNL     1      22.595  29.278  10.436  1.00  0.00     0.078 C
ATOM      8  H2  UNL     1      20.894  28.321  11.409  1.00  0.00     0.154 HD
HETATM    9  C6  UNL     1      22.926  29.920  11.782  1.00  0.00     0.024 C
HETATM   10  C11 UNL     1      22.361  30.478   9.523  1.00  0.00     0.030 C
HETATM   11  C7  UNL     1      23.366  31.358  11.659  1.00  0.00     0.002 C
HETATM   12  C8  UNL     1      22.231  32.252  11.117  1.00  0.00     0.005 C
HETATM   13  C9  UNL     1      21.389  31.324  10.363  1.00  0.00    -0.003 C
HETATM   14  C10 UNL     1      20.341  31.768   9.434  1.00  0.00     0.080 C
HETATM   15  S1  UNL     1      19.533  30.179   8.978  1.00  0.00    -0.142 SA
ENDBRANCH   2   5
TORSDOF 1
ENDMDL