MODEL 4
REMARK VINA RESULT: -6.386984588      1.170      1.462
REMARK  3 active torsions:
REMARK  status: ('A' for Active; 'I' for Inactive)
REMARK    1  A    between atoms: C1_2  and  O2_3
REMARK    2  A    between atoms: C1_2  and  C8_13
REMARK    3  A    between atoms: O2_3  and  C2_4
ROOT
HETATM    1  C2  UNL     1      20.475  30.038   9.736  1.00  0.00     0.134 C
HETATM    2  C3  UNL     1      20.908  28.674   9.225  1.00  0.00     0.041 C
HETATM    3  C4  UNL     1      19.645  27.939   8.899  1.00  0.00     0.044 A
HETATM    4  C5  UNL     1      18.847  27.431  10.069  1.00  0.00     0.239 A
HETATM    5  N1  UNL     1      17.873  28.498   9.955  1.00  0.00    -0.070 N
ATOM      6  H11 UNL     1      17.704  29.129  10.738  1.00  0.00     0.277 HD
ATOM      7  H12 UNL     1      16.876  28.286   9.920  1.00  0.00     0.277 HD
HETATM    8  C6  UNL     1      18.555  28.964   8.784  1.00  0.00     0.194 A
HETATM    9  C7  UNL     1      19.239  30.293   8.901  1.00  0.00     0.066 C
ENDROOT
BRANCH   1  10
HETATM   10  O2  UNL     1      21.420  31.033   9.454  1.00  0.00    -0.316 OA
BRANCH  10  11
HETATM   11  C1  UNL     1      22.232  31.653  10.361  1.00  0.00     0.263 C
HETATM   12  O1  UNL     1      22.618  32.822  10.110  1.00  0.00    -0.265 OA
BRANCH  11  13
HETATM   13  C8  UNL     1      22.692  31.040  11.630  1.00  0.00     0.085 C
HETATM   14  C9  UNL     1      23.458  29.756  11.385  1.00  0.00     0.014 C
HETATM   15  C10 UNL     1      24.201  29.565  12.689  1.00  0.00     0.001 C
HETATM   16  C11 UNL     1      24.290  30.922  13.341  1.00  0.00     0.001 C
HETATM   17  C12 UNL     1      23.752  31.891  12.298  1.00  0.00     0.014 C
ENDBRANCH  11  13
ENDBRANCH  10  11
ENDBRANCH   1  10
TORSDOF 3
ENDMDL