MODEL 5
REMARK VINA RESULT: -4.610240240      2.005      3.444
REMARK  2 active torsions:
REMARK  status: ('A' for Active; 'I' for Inactive)
REMARK       I    between atoms: C2_2  and  N1_4
REMARK    1  A    between atoms: N1_4  and  O2_5
REMARK    2  A    between atoms: N1_4  and  C3_7
ROOT
HETATM    1  C3  UNL     1      21.145  29.491  10.477  1.00  0.00     0.135 C
HETATM    2  C4  UNL     1      21.581  29.350  11.886  1.00  0.00     0.029 C
HETATM    3  C5  UNL     1      23.068  29.226  12.077  1.00  0.00     0.002 C
HETATM    4  C6  UNL     1      23.870  30.383  11.638  1.00  0.00     0.000 C
HETATM    5  C7  UNL     1      23.269  31.724  12.027  1.00  0.00     0.000 C
HETATM    6  C8  UNL     1      22.641  32.282  10.768  1.00  0.00     0.001 C
HETATM    7  C9  UNL     1      21.148  31.995  10.874  1.00  0.00     0.021 C
HETATM    8  C10 UNL     1      20.715  30.845  10.029  1.00  0.00     0.118 C
HETATM    9  C11 UNL     1      21.253  31.110   8.667  1.00  0.00     0.066 C
HETATM   10  N2  UNL     1      21.683  31.303   7.612  1.00  0.00    -0.197 NA
ENDROOT
BRANCH   1  11
HETATM   11  N1  UNL     1      19.983  28.609  10.266  1.00  0.00    -0.223 N
HETATM   12  C2  UNL     1      20.188  27.221  10.050  1.00  0.00     0.239 C
HETATM   13  C1  UNL     1      19.042  26.308   9.846  1.00  0.00     0.119 C
HETATM   14  O1  UNL     1      21.358  26.763  10.030  1.00  0.00    -0.272 OA
BRANCH  11  15
HETATM   15  O2  UNL     1      18.723  29.073  10.278  1.00  0.00    -0.284 OA
ATOM     16  H2  UNL     1      18.575  29.982  10.048  1.00  0.00     0.245 HD
ENDBRANCH  11  15
ENDBRANCH   1  11
TORSDOF 2
ENDMDL