MODEL 3
REMARK VINA RESULT: -5.603957271      1.521      1.875
REMARK  2 active torsions:
REMARK  status: ('A' for Active; 'I' for Inactive)
REMARK    1  A    between atoms: S1_2  and  C2_3
REMARK    2  A    between atoms: C5_6  and  O1_8
ROOT
HETATM    1  C2  UNL     1      21.807  28.364  10.441  1.00  0.00     0.056 C
HETATM    2  C3  UNL     1      21.518  28.700   8.980  1.00  0.00     0.024 C
HETATM    3  C4  UNL     1      21.453  30.203   8.897  1.00  0.00     0.029 C
HETATM    4  C5  UNL     1      20.094  30.610   9.383  1.00  0.00     0.059 C
HETATM    5  C6  UNL     1      18.960  30.016   8.593  1.00  0.00     0.046 C
HETATM    6  C7  UNL     1      20.134  30.089  10.816  1.00  0.00     0.048 C
HETATM    7  C8  UNL     1      21.577  29.713  11.085  1.00  0.00    -0.021 C
HETATM    8  C9  UNL     1      21.998  29.830  12.490  1.00  0.00     0.017 C
HETATM    9  C10 UNL     1      22.309  30.581  10.101  1.00  0.00    -0.033 C
HETATM   10  C11 UNL     1      22.301  32.033  10.414  1.00  0.00     0.016 C
HETATM   11  C12 UNL     1      23.726  30.109   9.841  1.00  0.00     0.016 C
ENDROOT
BRANCH   4  12
HETATM   12  O1  UNL     1      19.925  31.989   9.354  1.00  0.00    -0.390 OA
ATOM     13  H1  UNL     1      19.446  32.272   8.583  1.00  0.00     0.210 HD
ENDBRANCH   4  12
BRANCH   1  14
HETATM   14  S1  UNL     1      20.609  27.208  11.122  1.00  0.00    -0.168 SA
HETATM   15  C1  UNL     1      19.497  26.535   9.876  1.00  0.00     0.090 C
ENDBRANCH   1  14
TORSDOF 2
ENDMDL