MODEL 3
REMARK VINA RESULT: -6.296205902      1.989      2.968
REMARK  3 active torsions:
REMARK  status: ('A' for Active; 'I' for Inactive)
REMARK    1  A    between atoms: C4_4  and  O1_5
REMARK    2  A    between atoms: C10_12  and  C11_13
REMARK    3  A    between atoms: C11_13  and  O3_15
ROOT
HETATM    1  C1  UNL     1      20.516  31.805  10.439  1.00  0.00     0.015 C
HETATM    2  C2  UNL     1      20.524  30.456  10.467  1.00  0.00    -0.073 C
HETATM    3  C3  UNL     1      19.372  30.024   9.586  1.00  0.00     0.065 C
HETATM    4  C4  UNL     1      19.579  28.820   8.757  1.00  0.00     0.122 C
HETATM    5  C5  UNL     1      19.259  27.451   9.259  1.00  0.00     0.036 C
HETATM    6  C6  UNL     1      20.345  26.808  10.181  1.00  0.00    -0.016 C
HETATM    7  C7  UNL     1      19.631  25.900  11.161  1.00  0.00     0.010 C
HETATM    8  C8  UNL     1      20.936  27.922  10.803  1.00  0.00     0.005 C
HETATM    9  C9  UNL     1      21.833  28.587  11.651  1.00  0.00     0.019 C
HETATM   10  C10 UNL     1      21.643  30.075  11.344  1.00  0.00     0.114 C
ENDROOT
BRANCH  10  11
HETATM   11  C11 UNL     1      22.936  30.575  10.833  1.00  0.00     0.266 C
HETATM   12  O2  UNL     1      23.467  30.224   9.749  1.00  0.00    -0.265 OA
BRANCH  11  13
HETATM   13  O3  UNL     1      23.642  31.506  11.586  1.00  0.00    -0.326 OA
HETATM   14  C12 UNL     1      24.199  31.201  12.846  1.00  0.00     0.213 C
ENDBRANCH  11  13
ENDBRANCH  10  11
BRANCH   4  15
HETATM   15  O1  UNL     1      18.613  28.956   7.696  1.00  0.00    -0.395 OA
ATOM     16  H1  UNL     1      18.941  28.386   7.011  1.00  0.00     0.210 HD
ENDBRANCH   4  15
TORSDOF 3
ENDMDL