MODEL 1
REMARK VINA RESULT: -5.769424053      0.000      0.000
REMARK  1 active torsions:
REMARK  status: ('A' for Active; 'I' for Inactive)
REMARK    1  A    between atoms: C9_11  and  O2_13
ROOT
HETATM    1  C1  UNL     1      20.012  26.835   9.662  1.00  0.00     0.046 C
HETATM    2  C2  UNL     1      19.681  28.263   9.807  1.00  0.00     0.061 C
HETATM    3  C3  UNL     1      18.167  28.436  10.017  1.00  0.00     0.046 C
HETATM    4  O1  UNL     1      20.037  29.101   8.720  1.00  0.00    -0.365 OA
HETATM    5  C4  UNL     1      21.172  29.477   9.401  1.00  0.00     0.105 C
HETATM    6  C5  UNL     1      22.365  28.666   9.049  1.00  0.00     0.051 C
HETATM    7  C6  UNL     1      20.454  29.132  10.684  1.00  0.00     0.058 C
HETATM    8  C7  UNL     1      21.375  28.625  11.707  1.00  0.00     0.021 C
HETATM    9  C8  UNL     1      22.362  29.688  12.098  1.00  0.00     0.077 C
HETATM   10  S1  UNL     1      22.398  31.119  11.053  1.00  0.00    -0.129 SA
HETATM   11  C9  UNL     1      21.494  30.929   9.489  1.00  0.00     0.133 C
HETATM   12  C10 UNL     1      20.273  31.815   9.587  1.00  0.00     0.061 C
ENDROOT
BRANCH  11  13
HETATM   13  O2  UNL     1      22.299  31.372   8.436  1.00  0.00    -0.377 OA
ATOM     14  H2  UNL     1      22.181  32.294   8.244  1.00  0.00     0.211 HD
ENDBRANCH  11  13
TORSDOF 1
ENDMDL