MODEL 2
REMARK VINA RESULT: -6.681965064      0.056      1.033
REMARK  4 active torsions:
REMARK  status: ('A' for Active; 'I' for Inactive)
REMARK    1  A    between atoms: C6_9  and  C7_10
REMARK    2  A    between atoms: N3_11  and  N4_13
REMARK    3  A    between atoms: N4_13  and  C8_15
REMARK    4  A    between atoms: C8_15  and  C10_17
ROOT
HETATM    1  C7  UNL     1      14.539  -8.664  -8.644  1.00  0.00     0.122 C
HETATM    2  N3  UNL     1      15.807  -8.608  -8.546  1.00  0.00    -0.315 N
ATOM      3  H3  UNL     1      16.339  -9.370  -8.968  1.00  0.00     0.185 HD
ENDROOT
BRANCH   1   4
HETATM    4  C6  UNL     1      13.885  -9.753  -9.321  1.00  0.00     0.028 A
HETATM    5  C2  UNL     1      13.561  -9.827 -10.681  1.00  0.00     0.035 A
HETATM    6  C1  UNL     1      13.838  -8.773 -11.696  1.00  0.00     0.070 C
HETATM    7  N1  UNL     1      12.964 -11.017 -10.869  1.00  0.00    -0.302 N
HETATM    8  N2  UNL     1      12.887 -11.688  -9.753  1.00  0.00    -0.300 N
ATOM      9  H1  UNL     1      12.615 -11.351 -11.768  1.00  0.00     0.186 HD
HETATM   10  C3  UNL     1      12.310 -13.021  -9.538  1.00  0.00     0.177 C
HETATM   11  C4  UNL     1      13.439 -10.953  -8.776  1.00  0.00     0.037 A
HETATM   12  C5  UNL     1      13.585 -11.304  -7.322  1.00  0.00     0.071 C
ENDBRANCH   1   4
BRANCH   2  13
HETATM   13  N4  UNL     1      16.525  -7.610  -7.920  1.00  0.00    -0.332 N
ATOM     14  H4  UNL     1      17.346  -7.207  -8.372  1.00  0.00     0.180 HD
BRANCH  13  15
HETATM   15  C8  UNL     1      16.106  -7.143  -6.624  1.00  0.00     0.102 C
HETATM   16  C9  UNL     1      17.054  -7.735  -5.602  1.00  0.00     0.034 C
BRANCH  15  17
HETATM   17  C10 UNL     1      16.146  -5.637  -6.511  1.00  0.00    -0.030 C
HETATM   18  C11 UNL     1      17.450  -5.202  -5.834  1.00  0.00     0.016 C
HETATM   19  C12 UNL     1      15.029  -5.147  -5.616  1.00  0.00     0.016 C
HETATM   20  C13 UNL     1      16.089  -4.965  -7.845  1.00  0.00     0.016 C
ENDBRANCH  15  17
ENDBRANCH  13  15
ENDBRANCH   2  13
TORSDOF 4
ENDMDL