MODEL 2
REMARK VINA RESULT: -3.895374245      3.190      5.324
REMARK  3 active torsions:
REMARK  status: ('A' for Active; 'I' for Inactive)
REMARK    1  A    between atoms: C2_2  and  C3_4
REMARK    2  A    between atoms: C8_10  and  N1_11
REMARK    3  A    between atoms: N1_11  and  C9_13
ROOT
HETATM    1  C3  UNL     1      16.753  -5.993  -6.470  1.00  0.00     0.045 C
HETATM    2  C4  UNL     1      17.774  -7.067  -6.118  1.00  0.00     0.026 C
HETATM    3  C5  UNL     1      17.563  -4.680  -6.395  1.00  0.00     0.092 C
HETATM    4  S1  UNL     1      18.388  -4.358  -7.987  1.00  0.00    -0.168 SA
HETATM    5  C6  UNL     1      17.065  -4.398  -9.234  1.00  0.00     0.076 C
HETATM    6  C7  UNL     1      15.801  -4.830  -8.492  1.00  0.00     0.036 C
HETATM    7  C8  UNL     1      16.128  -6.163  -7.818  1.00  0.00     0.094 C
ENDROOT
BRANCH   7   8
HETATM    8  N1  UNL     1      14.970  -6.983  -7.848  1.00  0.00    -0.408 N
ATOM      9  H1  UNL     1      14.146  -6.774  -7.287  1.00  0.00     0.154 HD
BRANCH   8  10
HETATM   10  C9  UNL     1      15.028  -8.108  -8.705  1.00  0.00     0.015 C
HETATM   11  C10 UNL     1      15.668  -9.255  -7.916  1.00  0.00     0.037 C
HETATM   12  C11 UNL     1      15.762  -7.963  -9.985  1.00  0.00     0.037 C
HETATM   13  C12 UNL     1      13.632  -8.635  -9.045  1.00  0.00     0.037 C
ENDBRANCH   8  10
ENDBRANCH   7   8
BRANCH   1  14
HETATM   14  C2  UNL     1      15.764  -5.993  -5.345  1.00  0.00     0.134 C
HETATM   15  C1  UNL     1      14.949  -4.812  -5.034  1.00  0.00     0.091 C
HETATM   16  O1  UNL     1      15.633  -6.994  -4.696  1.00  0.00    -0.297 OA
ENDBRANCH   1  14
TORSDOF 3
ENDMDL