MODEL 4
REMARK VINA RESULT: -4.191555787      7.438      9.156
REMARK  1 active torsions:
REMARK  status: ('A' for Active; 'I' for Inactive)
REMARK    1  A    between atoms: C2_2  and  C3_3
ROOT
HETATM    1  C1  UNL     1      13.955  -5.503  -0.712  1.00  0.00     0.047 C
HETATM    2  C2  UNL     1      14.312  -4.462  -1.797  1.00  0.00     0.067 C
HETATM    3  C4  UNL     1      14.575  -5.237  -3.032  1.00  0.00     0.038 C
HETATM    4  C5  UNL     1      13.998  -4.684  -4.283  1.00  0.00     0.006 C
HETATM    5  C6  UNL     1      13.878  -3.183  -4.121  1.00  0.00     0.038 C
HETATM    6  C7  UNL     1      12.972  -2.928  -2.950  1.00  0.00     0.063 C
HETATM    7  C8  UNL     1      13.055  -1.429  -2.636  1.00  0.00     0.039 C
HETATM    8  C9  UNL     1      13.220  -0.602  -3.872  1.00  0.00     0.030 C
HETATM    9  C10 UNL     1      11.961  -0.461  -4.675  1.00  0.00     0.232 C
HETATM   10  N1  UNL     1      10.843  -1.166  -4.129  1.00  0.00    -0.075 N
ATOM     11  H11 UNL     1       9.950  -0.780  -4.436  1.00  0.00     0.277 HD
ATOM     12  H12 UNL     1      10.729  -1.004  -3.129  1.00  0.00     0.277 HD
HETATM   13  C11 UNL     1      10.982  -2.562  -4.452  1.00  0.00     0.235 C
HETATM   14  C12 UNL     1      11.570  -3.320  -3.313  1.00  0.00     0.065 C
HETATM   15  O1  UNL     1      13.296  -3.582  -1.809  1.00  0.00    -0.369 OA
ENDROOT
BRANCH   2  16
HETATM   16  C3  UNL     1      15.589  -3.815  -1.240  1.00  0.00     0.123 C
HETATM   17  S1  UNL     1      16.998  -4.794  -1.854  1.00  0.00    -0.095 SA
ENDBRANCH   2  16
TORSDOF 1
ENDMDL