MODEL 4
REMARK VINA RESULT: -6.130823583      1.953      2.583
REMARK  3 active torsions:
REMARK  status: ('A' for Active; 'I' for Inactive)
REMARK    1  A    between atoms: N1_1  and  N2_4
REMARK    2  A    between atoms: N3_6  and  C1_8
REMARK    3  A    between atoms: C1_8  and  N4_9
ROOT
HETATM    1  C1  UNL     1      16.067  -7.672  -7.326  1.00  0.00     0.120 C
HETATM    2  C7  UNL     1      17.555  -7.444  -7.011  1.00  0.00     0.055 C
HETATM    3  C8  UNL     1      17.611  -7.299  -5.497  1.00  0.00     0.004 C
HETATM    4  C9  UNL     1      17.179  -8.518  -4.778  1.00  0.00     0.000 C
HETATM    5  C10 UNL     1      16.023  -9.249  -5.354  1.00  0.00     0.004 C
HETATM    6  C11 UNL     1      15.800  -9.095  -6.814  1.00  0.00     0.055 C
ENDROOT
BRANCH   1   7
HETATM    7  N3  UNL     1      15.335  -6.712  -6.562  1.00  0.00    -0.294 N
HETATM    8  N2  UNL     1      15.354  -5.494  -6.736  1.00  0.00    -0.252 N
ATOM      9  H2  UNL     1      14.757  -5.367  -7.554  1.00  0.00     0.207 HD
ATOM     10  H3  UNL     1      14.747  -7.067  -5.808  1.00  0.00     0.184 HD
BRANCH   8  11
HETATM   11  N1  UNL     1      15.703  -4.332  -6.459  1.00  0.00    -0.331 N
ATOM     12  H12 UNL     1      16.700  -4.469  -6.294  1.00  0.00     0.178 HD
ATOM     13  H11 UNL     1      15.535  -3.338  -6.310  1.00  0.00     0.178 HD
ENDBRANCH   8  11
ENDBRANCH   1   7
BRANCH   1  14
HETATM   14  N4  UNL     1      15.811  -7.686  -8.716  1.00  0.00    -0.352 N
HETATM   15  C2  UNL     1      14.880  -8.253  -9.363  1.00  0.00     0.074 C
HETATM   16  C3  UNL     1      13.857  -9.042  -8.665  1.00  0.00     0.076 C
HETATM   17  N5  UNL     1      14.808  -8.136 -10.787  1.00  0.00    -0.380 N
HETATM   18  C4  UNL     1      12.683  -9.388  -9.590  1.00  0.00     0.009 C
HETATM   19  C5  UNL     1      13.345 -10.035 -10.815  1.00  0.00     0.020 C
HETATM   20  C6  UNL     1      13.905  -8.886 -11.625  1.00  0.00     0.121 C
ATOM     21  H5  UNL     1      15.439  -7.476 -11.241  1.00  0.00     0.160 HD
ATOM     22  H4  UNL     1      16.476  -7.161  -9.284  1.00  0.00     0.163 HD
ENDBRANCH   1  14
TORSDOF 3
ENDMDL