MODEL 4
REMARK VINA RESULT: -5.229428307      2.740      3.907
REMARK  2 active torsions:
REMARK  status: ('A' for Active; 'I' for Inactive)
REMARK    1  A    between atoms: C2_2  and  C3_3
REMARK    2  A    between atoms: C3_3  and  C5_5
ROOT
HETATM    1  C5  UNL     1      15.990  -7.610  -4.950  1.00  0.00     0.004 C
HETATM    2  C6  UNL     1      15.901  -6.162  -5.412  1.00  0.00     0.046 C
HETATM    3  C7  UNL     1      15.435  -5.248  -4.331  1.00  0.00     0.098 C
HETATM    4  C8  UNL     1      14.394  -4.274  -4.718  1.00  0.00     0.049 C
HETATM    5  C9  UNL     1      15.015  -6.002  -3.075  1.00  0.00     0.113 C
HETATM    6  C10 UNL     1      16.395  -6.547  -2.741  1.00  0.00     0.265 C
HETATM    7  N1  UNL     1      16.470  -6.952  -1.370  1.00  0.00    -0.039 N
ATOM      8  H11 UNL     1      15.699  -7.572  -1.125  1.00  0.00     0.281 HD
ATOM      9  H12 UNL     1      16.258  -6.176  -0.743  1.00  0.00     0.281 HD
HETATM   10  C11 UNL     1      17.732  -7.544  -1.051  1.00  0.00     0.236 C
HETATM   11  C12 UNL     1      18.227  -8.544  -2.016  1.00  0.00     0.028 C
HETATM   12  C13 UNL     1      17.947  -8.249  -3.471  1.00  0.00     0.011 C
HETATM   13  C14 UNL     1      16.540  -7.809  -3.592  1.00  0.00     0.057 C
HETATM   14  O1  UNL     1      17.228  -5.534  -3.121  1.00  0.00    -0.199 OA
HETATM   15  O2  UNL     1      16.600  -4.640  -3.802  1.00  0.00    -0.227 OA
ENDROOT
BRANCH   1  16
HETATM   16  C3  UNL     1      16.467  -8.519  -6.027  1.00  0.00     0.008 C
HETATM   17  C4  UNL     1      16.113  -8.107  -7.429  1.00  0.00     0.014 C
BRANCH  16  18
HETATM   18  C2  UNL     1      15.780  -9.857  -5.823  1.00  0.00    -0.032 C
HETATM   19  C1  UNL     1      15.383 -10.629  -6.814  1.00  0.00     0.007 C
ENDBRANCH  16  18
ENDBRANCH   1  16
TORSDOF 2
ENDMDL