MODEL 5
REMARK VINA RESULT: -6.538117385      1.702      2.120
REMARK  5 active torsions:
REMARK  status: ('A' for Active; 'I' for Inactive)
REMARK    1  A    between atoms: C2_2  and  C4_4
REMARK    2  A    between atoms: C4_4  and  C5_5
REMARK    3  A    between atoms: C5_5  and  O1_6
REMARK    4  A    between atoms: C5_5  and  N1_8
REMARK    5  A    between atoms: N1_8  and  N2_10
ROOT
HETATM    1  N2  UNL     1      15.083  -8.053  -8.932  1.00  0.00    -0.307 N
ATOM      2  H2  UNL     1      14.957  -7.275  -9.579  1.00  0.00     0.186 HD
HETATM    3  C6  UNL     1      14.171  -8.960  -8.816  1.00  0.00     0.004 C
HETATM    4  C7  UNL     1      13.035  -8.637  -9.737  1.00  0.00     0.054 C
HETATM    5  C8  UNL     1      13.013  -9.569 -10.912  1.00  0.00     0.006 C
HETATM    6  C9  UNL     1      12.319 -10.855 -10.476  1.00  0.00     0.000 C
HETATM    7  C10 UNL     1      13.300 -11.790  -9.857  1.00  0.00     0.000 C
HETATM    8  C11 UNL     1      13.081 -12.037  -8.395  1.00  0.00     0.000 C
HETATM    9  C12 UNL     1      13.238 -10.834  -7.532  1.00  0.00     0.006 C
HETATM   10  C13 UNL     1      14.485 -10.036  -7.839  1.00  0.00     0.054 C
ENDROOT
BRANCH   1  11
HETATM   11  N1  UNL     1      16.272  -8.154  -8.142  1.00  0.00    -0.280 N
ATOM     12  H1  UNL     1      16.856  -8.989  -8.172  1.00  0.00     0.189 HD
BRANCH  11  13
HETATM   13  C5  UNL     1      16.606  -7.066  -7.326  1.00  0.00     0.154 C
BRANCH  13  14
HETATM   14  C4  UNL     1      15.780  -6.095  -6.694  1.00  0.00     0.059 C
BRANCH  14  15
HETATM   15  C2  UNL     1      15.474  -5.939  -5.462  1.00  0.00    -0.084 C
HETATM   16  C1  UNL     1      15.897  -6.780  -4.347  1.00  0.00     0.043 C
HETATM   17  C3  UNL     1      14.572  -4.753  -5.103  1.00  0.00     0.043 C
ENDBRANCH  14  15
ENDBRANCH  13  14
BRANCH  13  18
HETATM   18  O1  UNL     1      17.915  -6.973  -7.146  1.00  0.00    -0.345 OA
ATOM     19  H1  UNL     1      18.478  -7.191  -7.879  1.00  0.00     0.219 HD
ENDBRANCH  13  18
ENDBRANCH  11  13
ENDBRANCH   1  11
TORSDOF 5
ENDMDL