MODEL 5
REMARK VINA RESULT: -3.710535029      3.126      5.791
REMARK  3 active torsions:
REMARK  status: ('A' for Active; 'I' for Inactive)
REMARK    1  A    between atoms: C2_2  and  N1_4
REMARK    2  A    between atoms: N1_4  and  C4_6
REMARK    3  A    between atoms: N2_11  and  O1_12
ROOT
HETATM    1  C4  UNL     1      16.087  -6.790  -5.645  1.00  0.00     0.111 C
HETATM    2  C5  UNL     1      15.690  -6.363  -4.253  1.00  0.00     0.054 C
HETATM    3  C6  UNL     1      15.699  -4.836  -4.492  1.00  0.00     0.034 C
HETATM    4  C7  UNL     1      14.284  -4.406  -4.820  1.00  0.00     0.034 C
HETATM    5  C8  UNL     1      16.089  -4.119  -3.215  1.00  0.00     0.034 C
HETATM    6  N2  UNL     1      16.615  -4.586  -5.561  1.00  0.00    -0.180 NA
HETATM    7  C9  UNL     1      17.181  -5.871  -5.984  1.00  0.00     0.052 C
HETATM    8  C10 UNL     1      18.481  -6.047  -5.290  1.00  0.00     0.036 C
HETATM    9  C11 UNL     1      17.462  -5.773  -7.471  1.00  0.00     0.036 C
ENDROOT
BRANCH   1  10
HETATM   10  N1  UNL     1      16.188  -8.165  -5.906  1.00  0.00    -0.373 N
HETATM   11  C3  UNL     1      16.912  -8.962  -4.869  1.00  0.00     0.150 C
BRANCH  10  12
HETATM   12  C2  UNL     1      15.688  -8.925  -6.981  1.00  0.00     0.071 C
HETATM   13  C1  UNL     1      15.630 -10.406  -6.860  1.00  0.00     0.081 C
HETATM   14  S1  UNL     1      15.180  -8.301  -8.389  1.00  0.00    -0.066 SA
ENDBRANCH  10  12
ENDBRANCH   1  10
BRANCH   6  15
HETATM   15  O1  UNL     1      16.109  -3.900  -6.587  1.00  0.00    -0.311 OA
ATOM     16  H1  UNL     1      15.743  -4.432  -7.283  1.00  0.00     0.237 HD
ENDBRANCH   6  15
TORSDOF 3
ENDMDL