MODEL 3
REMARK VINA RESULT: -6.627253125      3.365      5.046
REMARK  2 active torsions:
REMARK  status: ('A' for Active; 'I' for Inactive)
REMARK    1  A    between atoms: C2_2  and  C3_3
REMARK       I    between atoms: C3_3  and  N1_5
REMARK    2  A    between atoms: N1_5  and  C4_7
ROOT
HETATM    1  C4  UNL     1      15.636  -8.471  -8.046  1.00  0.00     0.098 A
HETATM    2  S1  UNL     1      16.605  -6.996  -7.827  1.00  0.00    -0.075 SA
HETATM    3  C5  UNL     1      17.100  -7.214  -6.252  1.00  0.00    -0.007 A
HETATM    4  C6  UNL     1      16.527  -8.413  -5.887  1.00  0.00    -0.021 A
HETATM    5  C7  UNL     1      15.777  -9.042  -6.832  1.00  0.00     0.085 A
HETATM    6  C8  UNL     1      15.126 -10.341  -6.524  1.00  0.00     0.103 C
HETATM    7  N2  UNL     1      14.628 -11.368  -6.238  1.00  0.00    -0.191 NA
HETATM    8  C9  UNL     1      16.835  -8.857  -4.451  1.00  0.00     0.041 C
HETATM    9  C10 UNL     1      16.681  -7.707  -3.541  1.00  0.00     0.005 C
HETATM   10  C11 UNL     1      16.961  -6.349  -4.045  1.00  0.00     0.005 C
HETATM   11  C12 UNL     1      17.941  -6.471  -5.217  1.00  0.00     0.047 C
ENDROOT
BRANCH   1  12
HETATM   12  N1  UNL     1      14.989  -8.747  -9.263  1.00  0.00    -0.317 N
HETATM   13  C3  UNL     1      13.723  -9.148  -9.629  1.00  0.00     0.245 C
HETATM   14  O1  UNL     1      12.723  -9.396  -8.937  1.00  0.00    -0.268 OA
ATOM     15  H1  UNL     1      15.603  -8.620 -10.066  1.00  0.00     0.169 HD
BRANCH  13  16
HETATM   16  C2  UNL     1      13.429  -9.335 -11.089  1.00  0.00     0.064 C
HETATM   17  C1  UNL     1      12.441 -10.076 -11.454  1.00  0.00     0.017 C
ENDBRANCH  13  16
ENDBRANCH   1  12
TORSDOF 2
ENDMDL