MODEL 3
REMARK VINA RESULT: -4.444724933      1.754      2.295
REMARK  3 active torsions:
REMARK  status: ('A' for Active; 'I' for Inactive)
REMARK    1  A    between atoms: C2_2  and  C5_6
REMARK    2  A    between atoms: C3_3  and  C4_4
REMARK    3  A    between atoms: C11_13  and  O2_15
ROOT
HETATM    1  C5  UNL     1      16.143  -8.735  -7.898  1.00  0.00     0.110 C
HETATM    2  S1  UNL     1      15.313 -10.218  -7.206  1.00  0.00    -0.156 SA
HETATM    3  C6  UNL     1      14.510 -10.981  -8.642  1.00  0.00     0.083 C
HETATM    4  C7  UNL     1      13.714  -9.903  -9.332  1.00  0.00    -0.036 C
HETATM    5  C8  UNL     1      13.097 -10.568 -10.553  1.00  0.00     0.015 C
HETATM    6  C9  UNL     1      12.573  -9.510  -8.436  1.00  0.00     0.015 C
HETATM    7  C10 UNL     1      14.527  -8.764  -9.821  1.00  0.00     0.048 C
HETATM    8  C11 UNL     1      15.243  -7.953  -8.795  1.00  0.00     0.071 C
HETATM    9  C12 UNL     1      16.182  -7.027  -9.600  1.00  0.00     0.047 C
ENDROOT
BRANCH   1  10
HETATM   10  C2  UNL     1      16.649  -7.879  -6.795  1.00  0.00    -0.064 C
HETATM   11  C1  UNL     1      17.690  -6.851  -7.010  1.00  0.00     0.044 C
HETATM   12  C3  UNL     1      16.152  -8.055  -5.590  1.00  0.00     0.045 C
BRANCH  12  13
HETATM   13  C4  UNL     1      16.595  -7.271  -4.472  1.00  0.00     0.259 C
HETATM   14  O1  UNL     1      15.797  -6.843  -3.596  1.00  0.00    -0.302 OA
ENDBRANCH  12  13
ENDBRANCH   1  10
BRANCH   8  15
HETATM   15  O2  UNL     1      14.401  -7.063  -8.122  1.00  0.00    -0.389 OA
ATOM     16  H2  UNL     1      14.679  -6.859  -7.238  1.00  0.00     0.210 HD
ENDBRANCH   8  15
TORSDOF 3
ENDMDL