MODEL 3
REMARK VINA RESULT: -6.320279501      1.058      1.556
REMARK  4 active torsions:
REMARK  status: ('A' for Active; 'I' for Inactive)
REMARK    1  A    between atoms: O1_2  and  C2_3
REMARK    2  A    between atoms: C2_3  and  C3_5
REMARK    3  A    between atoms: C8_10  and  C9_11
REMARK    4  A    between atoms: C9_11  and  O3_13
ROOT
HETATM    1  C3  UNL     1      15.667  -8.182  -7.136  1.00  0.00     0.019 C
HETATM    2  C4  UNL     1      15.483  -7.853  -8.389  1.00  0.00    -0.071 C
HETATM    3  C5  UNL     1      16.091  -6.588  -8.813  1.00  0.00     0.044 C
HETATM    4  C6  UNL     1      14.729  -8.580  -9.498  1.00  0.00     0.035 C
HETATM    5  C7  UNL     1      13.438  -9.035  -8.944  1.00  0.00     0.011 C
HETATM    6  C8  UNL     1      13.280 -10.425  -8.542  1.00  0.00     0.014 C
HETATM    7  C11 UNL     1      14.392 -11.207  -8.025  1.00  0.00     0.007 C
HETATM    8  C12 UNL     1      15.478 -10.586  -7.273  1.00  0.00     0.005 C
HETATM    9  C13 UNL     1      15.159  -9.429  -6.401  1.00  0.00     0.045 C
ENDROOT
BRANCH   1  10
HETATM   10  C2  UNL     1      16.421  -7.310  -6.306  1.00  0.00     0.289 C
HETATM   11  O2  UNL     1      17.695  -7.422  -6.217  1.00  0.00    -0.260 OA
BRANCH  10  12
HETATM   12  O1  UNL     1      15.917  -6.301  -5.544  1.00  0.00    -0.323 OA
HETATM   13  C1  UNL     1      15.713  -6.383  -4.137  1.00  0.00     0.213 C
ENDBRANCH  10  12
ENDBRANCH   1  10
BRANCH   6  14
HETATM   14  C9  UNL     1      12.686 -11.190  -9.745  1.00  0.00     0.118 C
HETATM   15  C10 UNL     1      12.340 -10.257 -10.866  1.00  0.00     0.040 C
BRANCH  14  16
HETATM   16  O3  UNL     1      11.594 -11.948  -9.328  1.00  0.00    -0.396 OA
ATOM     17  H3  UNL     1      10.996 -11.403  -8.832  1.00  0.00     0.210 HD
ENDBRANCH  14  16
ENDBRANCH   6  14
TORSDOF 4
ENDMDL