MODEL 3
REMARK VINA RESULT: -6.361940895      0.894      1.375
REMARK  5 active torsions:
REMARK  status: ('A' for Active; 'I' for Inactive)
REMARK    1  A    between atoms: C2_2  and  O1_5
REMARK    2  A    between atoms: O1_5  and  C5_6
REMARK    3  A    between atoms: C5_6  and  C6_8
REMARK    4  A    between atoms: C6_8  and  N1_9
REMARK    5  A    between atoms: N1_9  and  C7_11
ROOT
HETATM    1  N1  UNL     1      14.050  -9.656  -6.366  1.00  0.00    -0.409 N
ATOM      2  H1  UNL     1      13.348  -9.392  -5.674  1.00  0.00     0.154 HD
ENDROOT
BRANCH   1   3
HETATM    3  C6  UNL     1      15.428  -9.707  -6.031  1.00  0.00     0.225 C
BRANCH   3   4
HETATM    4  C5  UNL     1      15.786  -8.372  -5.433  1.00  0.00     0.277 C
HETATM    5  O2  UNL     1      16.448  -8.301  -4.350  1.00  0.00    -0.263 OA
BRANCH   4   6
HETATM    6  O1  UNL     1      15.428  -7.169  -6.011  1.00  0.00    -0.310 OA
BRANCH   6   7
HETATM    7  C2  UNL     1      16.336  -6.340  -6.675  1.00  0.00     0.060 C
HETATM    8  C1  UNL     1      16.496  -5.087  -5.804  1.00  0.00     0.045 C
HETATM    9  C3  UNL     1      15.818  -5.882  -8.023  1.00  0.00     0.045 C
HETATM   10  C4  UNL     1      17.702  -6.917  -6.884  1.00  0.00     0.045 C
ENDBRANCH   6   7
ENDBRANCH   4   6
ENDBRANCH   3   4
ENDBRANCH   1   3
BRANCH   1  11
HETATM   11  C7  UNL     1      13.679  -9.989  -7.704  1.00  0.00     0.077 C
HETATM   12  C8  UNL     1      13.676 -11.499  -7.811  1.00  0.00     0.024 C
HETATM   13  C9  UNL     1      12.548 -12.035  -8.615  1.00  0.00     0.002 C
HETATM   14  C10 UNL     1      12.060 -11.192  -9.742  1.00  0.00     0.000 C
HETATM   15  C11 UNL     1      13.094 -10.774 -10.736  1.00  0.00     0.000 C
HETATM   16  C12 UNL     1      13.200  -9.279 -10.854  1.00  0.00     0.000 C
HETATM   17  C13 UNL     1      13.826  -8.575  -9.712  1.00  0.00     0.002 C
HETATM   18  C14 UNL     1      14.594  -9.400  -8.746  1.00  0.00     0.024 C
ENDBRANCH   1  11
TORSDOF 5
ENDMDL