MODEL 5
REMARK VINA RESULT: -6.838797362      1.243      1.474
REMARK  4 active torsions:
REMARK  status: ('A' for Active; 'I' for Inactive)
REMARK    1  A    between atoms: N1_1  and  C1_5
REMARK    2  A    between atoms: N2_10  and  N3_11
REMARK    3  A    between atoms: C6_13  and  C7_14
REMARK    4  A    between atoms: C8_15  and  C9_16
ROOT
HETATM    1  N3  UNL     1      16.098  -4.901  -9.441  1.00  0.00    -0.312 N
ATOM      2  H3  UNL     1      15.510  -5.491 -10.029  1.00  0.00     0.185 HD
HETATM    3  C6  UNL     1      16.459  -5.328  -8.293  1.00  0.00     0.107 C
ENDROOT
BRANCH   1   4
HETATM    4  N2  UNL     1      16.484  -3.661  -9.907  1.00  0.00    -0.298 N
HETATM    5  C1  UNL     1      17.142  -2.755  -9.019  1.00  0.00     0.298 C
HETATM    6  C2  UNL     1      16.260  -1.505  -8.962  1.00  0.00     0.056 C
HETATM    7  C3  UNL     1      16.115  -1.000 -10.376  1.00  0.00     0.006 C
HETATM    8  C4  UNL     1      15.388  -2.013 -11.216  1.00  0.00     0.022 C
HETATM    9  C5  UNL     1      16.217  -3.304 -11.270  1.00  0.00     0.145 C
BRANCH   5  10
HETATM   10  N1  UNL     1      18.487  -2.426  -9.415  1.00  0.00    -0.057 N
ATOM     11  H13 UNL     1      18.669  -2.696 -10.382  1.00  0.00     0.276 HD
ATOM     12  H12 UNL     1      18.614  -1.419  -9.508  1.00  0.00     0.276 HD
ATOM     13  H11 UNL     1      19.169  -2.834  -8.777  1.00  0.00     0.276 HD
ENDBRANCH   5  10
ENDBRANCH   1   4
BRANCH   3  14
HETATM   14  C7  UNL     1      16.043  -6.638  -7.818  1.00  0.00     0.019 C
HETATM   15  C8  UNL     1      15.682  -7.568  -8.730  1.00  0.00     0.002 C
BRANCH  15  16
HETATM   16  C9  UNL     1      15.273  -8.860  -8.238  1.00  0.00     0.007 C
HETATM   17  C10 UNL     1      14.233  -9.489  -8.712  1.00  0.00    -0.058 C
HETATM   18  C11 UNL     1      13.863 -10.794  -8.178  1.00  0.00     0.003 C
HETATM   19  C15 UNL     1      13.417  -8.909  -9.783  1.00  0.00     0.039 C
HETATM   20  C12 UNL     1      12.946 -11.517  -8.788  1.00  0.00    -0.026 C
HETATM   21  C13 UNL     1      12.244 -11.084 -10.017  1.00  0.00     0.027 C
HETATM   22  C14 UNL     1      13.026 -10.016 -10.754  1.00  0.00     0.008 C
ENDBRANCH  15  16
ENDBRANCH   3  14
TORSDOF 4
ENDMDL