MODEL 4
REMARK VINA RESULT: -5.957970233      1.416      4.805
REMARK  4 active torsions:
REMARK  status: ('A' for Active; 'I' for Inactive)
REMARK    1  A    between atoms: C2_2  and  C4_4
REMARK    2  A    between atoms: C4_4  and  C5_8
REMARK    3  A    between atoms: C5_8  and  N2_9
REMARK    4  A    between atoms: C5_8  and  C6_13
ROOT
HETATM    1  C5  UNL     1      15.554  -6.620  -8.202  1.00  0.00     0.237 C
ENDROOT
BRANCH   1   2
HETATM    2  C4  UNL     1      16.451  -5.813  -7.428  1.00  0.00     0.015 C
HETATM    3  N1  UNL     1      15.997  -4.667  -7.035  1.00  0.00    -0.404 N
ATOM      4  H12 UNL     1      16.635  -4.092  -6.484  1.00  0.00     0.155 HD
ATOM      5  H11 UNL     1      15.041  -4.472  -7.330  1.00  0.00     0.155 HD
BRANCH   2   6
HETATM    6  C2  UNL     1      17.838  -6.095  -6.999  1.00  0.00     0.025 C
HETATM    7  C1  UNL     1      18.723  -4.847  -7.165  1.00  0.00     0.016 C
HETATM    8  C3  UNL     1      17.891  -6.385  -5.507  1.00  0.00     0.016 C
ENDBRANCH   2   6
ENDBRANCH   1   2
BRANCH   1   9
HETATM    9  N2  UNL     1      15.950  -6.679  -9.628  1.00  0.00    -0.069 N
ATOM     10  H23 UNL     1      15.605  -7.529 -10.073  1.00  0.00     0.275 HD
ATOM     11  H22 UNL     1      15.442  -5.990 -10.182  1.00  0.00     0.275 HD
ATOM     12  H21 UNL     1      16.958  -6.579  -9.749  1.00  0.00     0.275 HD
ENDBRANCH   1   9
BRANCH   1  13
HETATM   13  C6  UNL     1      15.223  -8.014  -7.813  1.00  0.00    -0.006 C
HETATM   14  C7  UNL     1      16.177  -9.079  -8.226  1.00  0.00     0.016 C
HETATM   15  C8  UNL     1      15.531 -10.459  -8.044  1.00  0.00    -0.013 C
HETATM   16  C9  UNL     1      15.339 -10.598  -6.542  1.00  0.00     0.009 C
HETATM   17  C13 UNL     1      14.262 -10.617  -8.804  1.00  0.00     0.009 C
HETATM   18  C10 UNL     1      14.350  -9.543  -6.068  1.00  0.00    -0.013 C
HETATM   19  C11 UNL     1      13.049  -9.823  -6.811  1.00  0.00     0.009 C
HETATM   20  C15 UNL     1      14.855  -8.169  -6.358  1.00  0.00     0.016 C
HETATM   21  C12 UNL     1      13.297  -9.576  -8.259  1.00  0.00    -0.013 C
HETATM   22  C14 UNL     1      13.909  -8.246  -8.576  1.00  0.00     0.016 C
ENDBRANCH   1  13
TORSDOF 4
ENDMDL