MODEL 3
REMARK VINA RESULT: -6.800237032      2.244      5.323
REMARK  5 active torsions:
REMARK  status: ('A' for Active; 'I' for Inactive)
REMARK    1  A    between atoms: C2_2  and  O2_4
REMARK    2  A    between atoms: O2_4  and  C3_5
REMARK    3  A    between atoms: C3_5  and  C4_6
REMARK    4  A    between atoms: C3_5  and  C6_10
REMARK    5  A    between atoms: C4_6  and  O3_8
ROOT
HETATM    1  C6  UNL     1      15.679  -9.884  -8.167  1.00  0.00     0.040 C
HETATM    2  C7  UNL     1      16.096  -8.483  -7.899  1.00  0.00    -0.023 C
HETATM    3  C8  UNL     1      15.696  -7.318  -7.654  1.00  0.00    -0.030 C
HETATM    4  C9  UNL     1      16.303  -5.964  -7.356  1.00  0.00     0.027 C
HETATM    5  C10 UNL     1      16.493  -6.024  -5.778  1.00  0.00     0.004 C
HETATM    6  C11 UNL     1      17.011  -7.306  -5.259  1.00  0.00     0.000 C
HETATM    7  C12 UNL     1      16.152  -8.466  -4.788  1.00  0.00     0.000 C
HETATM    8  C13 UNL     1      15.990  -9.322  -5.914  1.00  0.00     0.001 C
HETATM    9  C14 UNL     1      15.695 -10.539  -6.629  1.00  0.00     0.011 C
ENDROOT
BRANCH   1  10
HETATM   10  C3  UNL     1      14.389 -10.208  -8.763  1.00  0.00     0.167 C
BRANCH  10  11
HETATM   11  O2  UNL     1      13.747  -9.102  -9.390  1.00  0.00    -0.313 OA
BRANCH  11  12
HETATM   12  C2  UNL     1      13.561  -9.144 -10.774  1.00  0.00     0.255 C
HETATM   13  C1  UNL     1      12.457  -9.984 -11.373  1.00  0.00     0.126 C
HETATM   14  O1  UNL     1      14.304  -8.489 -11.510  1.00  0.00    -0.266 OA
ENDBRANCH  11  12
ENDBRANCH  10  11
BRANCH  10  15
HETATM   15  C4  UNL     1      13.469 -10.772  -7.669  1.00  0.00     0.144 C
HETATM   16  C5  UNL     1      12.527  -9.732  -7.173  1.00  0.00     0.042 C
BRANCH  15  17
HETATM   17  O3  UNL     1      12.738 -11.801  -8.272  1.00  0.00    -0.393 OA
ATOM     18  H3  UNL     1      11.970 -11.388  -8.651  1.00  0.00     0.210 HD
ENDBRANCH  15  17
ENDBRANCH  10  15
ENDBRANCH   1  10
TORSDOF 5
ENDMDL