MODEL 4
REMARK VINA RESULT: -5.317792160      2.409      4.065
REMARK  4 active torsions:
REMARK  status: ('A' for Active; 'I' for Inactive)
REMARK    1  A    between atoms: C2_3  and  C3_4
REMARK    2  A    between atoms: C4_5  and  C5_6
REMARK    3  A    between atoms: C5_6  and  C7_9
REMARK    4  A    between atoms: C11_13  and  O1_14
ROOT
HETATM    1  N1  UNL     1      16.091  -4.624  -8.276  1.00  0.00    -0.197 NA
HETATM    2  C1  UNL     1      16.594  -5.618  -7.931  1.00  0.00     0.063 C
HETATM    3  C2  UNL     1      17.225  -6.848  -7.525  1.00  0.00     0.158 C
ENDROOT
BRANCH   3   4
HETATM    4  C3  UNL     1      16.310  -7.670  -6.629  1.00  0.00    -0.056 C
HETATM    5  C4  UNL     1      16.403  -7.919  -5.349  1.00  0.00    -0.055 C
HETATM    6  C10 UNL     1      15.262  -8.787  -4.885  1.00  0.00     0.074 C
HETATM    7  C11 UNL     1      14.723  -9.358  -6.165  1.00  0.00     0.069 C
HETATM    8  C12 UNL     1      15.384 -10.618  -6.613  1.00  0.00     0.039 C
HETATM    9  C15 UNL     1      15.102  -8.330  -7.204  1.00  0.00     0.050 C
HETATM   10  C13 UNL     1      16.172 -10.307  -7.853  1.00  0.00     0.004 C
HETATM   11  C14 UNL     1      15.471  -9.117  -8.442  1.00  0.00     0.012 C
BRANCH   5  12
HETATM   12  C5  UNL     1      17.505  -7.395  -4.490  1.00  0.00     0.126 C
HETATM   13  C6  UNL     1      17.396  -5.918  -4.360  1.00  0.00     0.068 C
HETATM   14  N2  UNL     1      17.314  -4.769  -4.280  1.00  0.00    -0.197 NA
BRANCH  12  15
HETATM   15  C7  UNL     1      17.450  -7.946  -3.096  1.00  0.00     0.007 A
HETATM   16  C8  UNL     1      18.825  -8.335  -2.555  1.00  0.00     0.007 A
HETATM   17  C9  UNL     1      18.024  -7.189  -1.957  1.00  0.00     0.007 A
ENDBRANCH  12  15
ENDBRANCH   5  12
BRANCH   7  18
HETATM   18  O1  UNL     1      13.349  -9.530  -6.093  1.00  0.00    -0.389 OA
ATOM     19  H1  UNL     1      13.105 -10.421  -6.313  1.00  0.00     0.210 HD
ENDBRANCH   7  18
ENDBRANCH   3   4
TORSDOF 4
ENDMDL