MODEL 1
REMARK VINA RESULT: -7.159996305      0.000      0.000
REMARK  4 active torsions:
REMARK  status: ('A' for Active; 'I' for Inactive)
REMARK       I    between atoms: C1_2  and  N1_3
REMARK    1  A    between atoms: C1_2  and  O3_13
REMARK    2  A    between atoms: N1_3  and  C2_5
REMARK    3  A    between atoms: C2_5  and  C3_6
REMARK    4  A    between atoms: O3_13  and  C9_14
ROOT
HETATM    1  O1  UNL     1      14.933  -9.096  -4.784  1.00  0.00    -0.239 OA
HETATM    2  C1  UNL     1      15.688  -9.203  -5.757  1.00  0.00     0.361 C
HETATM    3  N1  UNL     1      15.486 -10.148  -6.800  1.00  0.00    -0.334 N
ATOM      4  H1  UNL     1      16.130 -10.208  -7.589  1.00  0.00     0.164 HD
ENDROOT
BRANCH   3   5
HETATM    5  C2  UNL     1      14.355 -11.009  -6.709  1.00  0.00     0.169 C
BRANCH   5   6
HETATM    6  C3  UNL     1      13.186 -10.472  -7.568  1.00  0.00     0.211 C
HETATM    7  C4  UNL     1      13.495  -9.438  -8.474  1.00  0.00    -0.149 C
HETATM    8  C5  UNL     1      13.803  -8.587  -9.552  1.00  0.00     0.086 C
HETATM    9  C6  UNL     1      13.464  -9.373 -10.865  1.00  0.00     0.040 C
HETATM   10  C7  UNL     1      12.562 -10.570 -10.567  1.00  0.00    -0.002 C
HETATM   11  C8  UNL     1      12.929 -11.602  -9.632  1.00  0.00     0.132 C
HETATM   12  O2  UNL     1      12.614 -11.580  -8.281  1.00  0.00    -0.345 OA
ENDBRANCH   5   6
ENDBRANCH   3   5
BRANCH   2  13
HETATM   13  O3  UNL     1      16.780  -8.368  -5.841  1.00  0.00    -0.299 OA
BRANCH  13  14
HETATM   14  C9  UNL     1      16.844  -7.177  -6.565  1.00  0.00     0.133 C
HETATM   15  C10 UNL     1      16.734  -7.337  -8.042  1.00  0.00     0.032 C
HETATM   16  C11 UNL     1      16.358  -5.952  -8.527  1.00  0.00     0.002 C
HETATM   17  C12 UNL     1      15.999  -5.144  -7.313  1.00  0.00     0.002 C
HETATM   18  C13 UNL     1      15.728  -6.214  -6.245  1.00  0.00     0.032 C
ENDBRANCH  13  14
ENDBRANCH   2  13
TORSDOF 4
ENDMDL