MODEL 4
REMARK VINA RESULT: -6.698410357      2.354      4.881
REMARK  4 active torsions:
REMARK  status: ('A' for Active; 'I' for Inactive)
REMARK    1  A    between atoms: C17_20  and  O3_21
REMARK    2  A    between atoms: C18_23  and  O4_24
REMARK    3  A    between atoms: C19_26  and  O5_27
REMARK    4  A    between atoms: O5_27  and  C20_28
ROOT
HETATM    1  C1  UNL     1      24.980  13.305  24.087  1.00  0.00     0.015 C
HETATM    2  C2  UNL     1      26.182  13.800  23.905  1.00  0.00    -0.077 C
HETATM    3  C3  UNL     1      26.781  15.146  23.858  1.00  0.00     0.047 C
HETATM    4  C4  UNL     1      28.026  14.463  24.412  1.00  0.00     0.021 C
HETATM    5  C5  UNL     1      27.564  13.306  23.666  1.00  0.00     0.026 C
HETATM    6  C6  UNL     1      27.902  13.249  22.170  1.00  0.00     0.005 C
HETATM    7  C7  UNL     1      29.447  13.203  22.249  1.00  0.00     0.020 C
HETATM    8  C8  UNL     1      27.341  12.006  21.631  1.00  0.00     0.036 C
HETATM    9  C9  UNL     1      26.286  12.062  20.580  1.00  0.00     0.026 C
HETATM   10  C10 UNL     1      25.684  13.381  20.309  1.00  0.00     0.031 C
HETATM   11  C11 UNL     1      26.589  14.543  20.418  1.00  0.00     0.121 C
HETATM   12 CL1  UNL     1      27.354  14.761  18.795  1.00  0.00    -0.122 Cl
HETATM   13  C12 UNL     1      27.592  14.561  21.526  1.00  0.00     0.116 C
HETATM   14  O1  UNL     1      28.723  15.190  20.948  1.00  0.00    -0.340 OA
HETATM   15  C13 UNL     1      28.773  16.488  21.321  1.00  0.00     0.158 C
HETATM   16  C14 UNL     1      28.096  17.509  20.455  1.00  0.00     0.078 C
HETATM   17  C15 UNL     1      30.227  17.011  21.376  1.00  0.00     0.078 C
HETATM   18  O2  UNL     1      28.255  16.542  22.590  1.00  0.00    -0.347 OA
HETATM   19  C16 UNL     1      27.180  15.639  22.504  1.00  0.00     0.170 C
HETATM   20  C17 UNL     1      26.868  11.520  19.278  1.00  0.00     0.154 C
HETATM   21  C18 UNL     1      28.349  11.292  19.554  1.00  0.00     0.177 C
HETATM   22  C19 UNL     1      28.265  10.974  21.028  1.00  0.00     0.168 C
ENDROOT
BRANCH  22  23
HETATM   23  O5  UNL     1      29.401  10.654  21.672  1.00  0.00    -0.313 OA
BRANCH  23  24
HETATM   24  C20 UNL     1      29.548   9.588  22.518  1.00  0.00     0.255 C
HETATM   25  C21 UNL     1      29.042   8.222  22.277  1.00  0.00     0.126 C
HETATM   26  O6  UNL     1      30.167   9.831  23.574  1.00  0.00    -0.266 OA
ENDBRANCH  23  24
ENDBRANCH  22  23
BRANCH  21  27
HETATM   27  O4  UNL     1      28.668  10.145  18.802  1.00  0.00    -0.390 OA
ATOM     28  H4  UNL     1      29.362   9.728  19.298  1.00  0.00     0.210 HD
ENDBRANCH  21  27
BRANCH  20  29
HETATM   29  O3  UNL     1      26.242  10.305  18.903  1.00  0.00    -0.393 OA
ATOM     30  H3  UNL     1      25.597  10.447  18.219  1.00  0.00     0.210 HD
ENDBRANCH  20  29
TORSDOF 4
ENDMDL