MODEL 5
REMARK VINA RESULT: -7.294466108      1.806      4.420
REMARK  6 active torsions:
REMARK  status: ('A' for Active; 'I' for Inactive)
REMARK    1  A    between atoms: C2_2  and  O2_4
REMARK    2  A    between atoms: O2_4  and  C3_5
REMARK    3  A    between atoms: C5_7  and  O3_8
REMARK    4  A    between atoms: C10_14  and  O4_15
REMARK    5  A    between atoms: C16_23  and  C17_24
REMARK    6  A    between atoms: C20_29  and  C22_31
ROOT
HETATM    1  C3  UNL     1      25.118  12.223  21.618  1.00  0.00     0.173 C
HETATM    2  C4  UNL     1      25.618  13.270  22.514  1.00  0.00     0.039 C
HETATM    3  C5  UNL     1      27.027  13.422  22.850  1.00  0.00     0.052 C
HETATM    4  C6  UNL     1      28.078  13.462  21.787  1.00  0.00     0.026 C
HETATM    5  C7  UNL     1      29.370  13.842  22.572  1.00  0.00     0.024 C
HETATM    6  C8  UNL     1      27.701  14.715  21.080  1.00  0.00     0.020 C
HETATM    7  C9  UNL     1      28.264  15.104  19.810  1.00  0.00     0.034 C
HETATM    8  C10 UNL     1      27.349  14.903  18.658  1.00  0.00     0.127 C
HETATM    9  C11 UNL     1      26.444  13.815  18.464  1.00  0.00    -0.006 A
HETATM   10  C12 UNL     1      25.759  14.147  17.071  1.00  0.00     0.019 C
HETATM   11  C13 UNL     1      26.866  12.422  18.354  1.00  0.00     0.037 A
HETATM   12  C14 UNL     1      28.247  12.364  18.535  1.00  0.00     0.177 C
HETATM   13  F1  UNL     1      28.765  11.413  17.584  1.00  0.00    -0.249 F
HETATM   14  C15 UNL     1      29.028  12.206  19.753  1.00  0.00     0.064 C
HETATM   15  C16 UNL     1      28.378  12.237  21.117  1.00  0.00     0.097 C
HETATM   16  C19 UNL     1      27.174  11.381  20.788  1.00  0.00     0.155 C
HETATM   17  O6  UNL     1      27.365  10.199  20.926  1.00  0.00    -0.296 OA
HETATM   18  C20 UNL     1      25.918  11.963  20.350  1.00  0.00     0.053 C
HETATM   19  C21 UNL     1      25.177  10.686  19.814  1.00  0.00     0.027 C
HETATM   20  C22 UNL     1      25.847  12.921  19.296  1.00  0.00     0.023 A
ENDROOT
BRANCH   1  21
HETATM   21  O2  UNL     1      23.809  12.473  21.179  1.00  0.00    -0.311 OA
BRANCH  21  22
HETATM   22  C2  UNL     1      22.640  12.159  21.798  1.00  0.00     0.255 C
HETATM   23  C1  UNL     1      21.397  12.976  21.750  1.00  0.00     0.126 C
HETATM   24  O1  UNL     1      22.611  11.111  22.450  1.00  0.00    -0.266 OA
ENDBRANCH  21  22
ENDBRANCH   1  21
BRANCH   3  25
HETATM   25  O3  UNL     1      27.430  12.911  24.090  1.00  0.00    -0.364 OA
ATOM     26  H3  UNL     1      27.752  13.542  24.723  1.00  0.00     0.217 HD
ENDBRANCH   3  25
BRANCH  15  27
HETATM   27  C17 UNL     1      29.228  11.364  21.968  1.00  0.00     0.140 C
HETATM   28  C18 UNL     1      30.418  10.567  21.702  1.00  0.00     0.092 C
HETATM   29  O5  UNL     1      28.874  11.270  23.166  1.00  0.00    -0.297 OA
ENDBRANCH  15  27
BRANCH   8  30
HETATM   30  O4  UNL     1      26.507  16.069  18.666  1.00  0.00    -0.395 OA
ATOM     31  H4  UNL     1      26.541  16.390  17.773  1.00  0.00     0.210 HD
ENDBRANCH   8  30
TORSDOF 6
ENDMDL