MODEL 2
REMARK VINA RESULT: -8.295385519      2.721      7.227
REMARK  1 active torsions:
REMARK  status: ('A' for Active; 'I' for Inactive)
REMARK    1  A    between atoms: O1_1  and  C1_3
ROOT
HETATM    1  C1  UNL     1      22.262  10.135  21.631  1.00  0.00     0.122 C
HETATM    2  C2  UNL     1      21.957  11.548  22.053  1.00  0.00     0.032 C
HETATM    3  C3  UNL     1      22.425  12.445  20.898  1.00  0.00     0.007 C
HETATM    4  C4  UNL     1      23.910  12.330  20.858  1.00  0.00     0.064 C
HETATM    5  C5  UNL     1      24.426  10.951  20.631  1.00  0.00     0.170 C
HETATM    6  C6  UNL     1      23.683   9.868  21.334  1.00  0.00     0.095 C
HETATM    7  N1  UNL     1      24.547  10.716  19.243  1.00  0.00    -0.366 N
ATOM      8  H1  UNL     1      23.755  10.305  18.747  1.00  0.00     0.161 HD
HETATM    9  C7  UNL     1      25.572  10.987  18.601  1.00  0.00     0.107 C
HETATM   10  C8  UNL     1      26.793  11.588  19.209  1.00  0.00     0.180 C
HETATM   11  O2  UNL     1      26.493  11.779  20.497  1.00  0.00    -0.214 OA
HETATM   12  O3  UNL     1      25.757  10.922  21.116  1.00  0.00    -0.206 OA
HETATM   13  C9  UNL     1      27.114  12.750  18.362  1.00  0.00     0.170 C
HETATM   14  C10 UNL     1      27.523  14.072  18.994  1.00  0.00     0.042 C
HETATM   15  C11 UNL     1      28.932  14.231  18.786  1.00  0.00     0.014 C
HETATM   16  C12 UNL     1      29.914  15.253  18.646  1.00  0.00     0.237 C
HETATM   17  N2  UNL     1      31.166  14.469  18.441  1.00  0.00    -0.074 N
ATOM     18  H21 UNL     1      31.752  14.514  19.276  1.00  0.00     0.277 HD
ATOM     19  H22 UNL     1      31.774  14.942  17.773  1.00  0.00     0.277 HD
HETATM   20  C13 UNL     1      30.960  13.083  18.044  1.00  0.00     0.239 C
HETATM   21  C14 UNL     1      30.075  12.245  18.982  1.00  0.00     0.045 C
HETATM   22  C15 UNL     1      29.543  13.312  19.832  1.00  0.00     0.015 C
HETATM   23  C16 UNL     1      29.006  11.527  18.266  1.00  0.00     0.161 C
HETATM   24  O4  UNL     1      28.108  12.238  17.498  1.00  0.00    -0.372 OA
HETATM   25  C17 UNL     1      28.025  10.693  18.966  1.00  0.00     0.001 C
HETATM   26  C18 UNL     1      28.365   9.713  19.950  1.00  0.00     0.065 C
HETATM   27 BR1  UNL     1      28.798  10.082  21.736  1.00  0.00    -0.063 Br
ENDROOT
BRANCH   1  28
HETATM   28  O1  UNL     1      21.419   9.808  20.568  1.00  0.00    -0.395 OA
ATOM     29  H1  UNL     1      21.911   9.902  19.761  1.00  0.00     0.210 HD
ENDBRANCH   1  28
TORSDOF 1
ENDMDL