MODEL 5
REMARK VINA RESULT: -7.379703017      4.061      6.893
REMARK  6 active torsions:
REMARK  status: ('A' for Active; 'I' for Inactive)
REMARK    1  A    between atoms: O1_2  and  C2_3
REMARK    2  A    between atoms: C2_3  and  C3_5
REMARK    3  A    between atoms: C4_7  and  O3_8
REMARK    4  A    between atoms: O3_8  and  C5_9
REMARK    5  A    between atoms: C14_19  and  O5_20
REMARK    6  A    between atoms: C19_27  and  O7_28
ROOT
HETATM    1  C3  UNL     1      23.010  11.810  21.491  1.00  0.00     0.221 C
HETATM    2  F1  UNL     1      22.748  13.005  22.065  1.00  0.00    -0.229 F
HETATM    3  C4  UNL     1      21.961  11.616  20.385  1.00  0.00     0.183 C
HETATM    4  C7  UNL     1      22.593  12.421  19.254  1.00  0.00     0.046 C
HETATM    5  C8  UNL     1      24.012  11.926  19.292  1.00  0.00    -0.034 C
HETATM    6  C9  UNL     1      24.098  10.679  18.460  1.00  0.00     0.016 C
HETATM    7  C10 UNL     1      24.998  12.987  18.847  1.00  0.00     0.015 C
HETATM    8  C11 UNL     1      25.295  13.709  20.106  1.00  0.00    -0.002 C
HETATM    9  C12 UNL     1      25.395  12.529  21.084  1.00  0.00     0.001 C
HETATM   10  C13 UNL     1      25.532  13.114  22.429  1.00  0.00     0.037 C
HETATM   11  C14 UNL     1      26.986  13.614  22.515  1.00  0.00     0.123 C
HETATM   12  C15 UNL     1      27.562  13.917  21.174  1.00  0.00     0.028 C
HETATM   13  C16 UNL     1      28.647  14.981  21.401  1.00  0.00     0.086 C
HETATM   14  C17 UNL     1      29.315  15.173  20.095  1.00  0.00     0.129 C
HETATM   15  O6  UNL     1      30.524  15.067  20.007  1.00  0.00    -0.298 OA
HETATM   16  C18 UNL     1      28.448  15.494  18.926  1.00  0.00     0.110 C
HETATM   17  C19 UNL     1      27.295  14.499  18.820  1.00  0.00     0.130 C
HETATM   18  C20 UNL     1      26.596  14.427  20.161  1.00  0.00     0.026 C
HETATM   19  C21 UNL     1      24.278  11.675  20.763  1.00  0.00     0.051 C
ENDROOT
BRANCH   1  20
HETATM   20  C2  UNL     1      22.860  10.708  22.508  1.00  0.00     0.301 C
HETATM   21  O2  UNL     1      23.537   9.654  22.396  1.00  0.00    -0.261 OA
BRANCH  20  22
HETATM   22  O1  UNL     1      21.995  10.810  23.574  1.00  0.00    -0.324 OA
HETATM   23  C1  UNL     1      21.794   9.672  24.421  1.00  0.00     0.213 C
ENDBRANCH  20  22
ENDBRANCH   1  20
BRANCH   3  24
HETATM   24  O3  UNL     1      21.791  10.268  20.057  1.00  0.00    -0.312 OA
BRANCH  24  25
HETATM   25  C5  UNL     1      20.516   9.689  20.082  1.00  0.00     0.255 C
HETATM   26  C6  UNL     1      19.892   9.144  18.850  1.00  0.00     0.126 C
HETATM   27  O4  UNL     1      19.924   9.651  21.202  1.00  0.00    -0.266 OA
ENDBRANCH  24  25
ENDBRANCH   3  24
BRANCH  11  28
HETATM   28  O5  UNL     1      27.074  14.706  23.385  1.00  0.00    -0.395 OA
ATOM     29  H5  UNL     1      27.878  14.662  23.889  1.00  0.00     0.210 HD
ENDBRANCH  11  28
BRANCH  17  30
HETATM   30  O7  UNL     1      26.441  15.039  17.830  1.00  0.00    -0.395 OA
ATOM     31  H7  UNL     1      26.674  15.959  17.782  1.00  0.00     0.210 HD
ENDBRANCH  17  30
TORSDOF 6
ENDMDL