MODEL 1
REMARK VINA RESULT: -8.142032137      0.000      0.000
REMARK  3 active torsions:
REMARK  status: ('A' for Active; 'I' for Inactive)
REMARK    1  A    between atoms: C2_2  and  C3_4
REMARK    2  A    between atoms: C12_16  and  O5_17
REMARK    3  A    between atoms: C14_21  and  O6_22
ROOT
HETATM    1  C3  UNL     1      18.860  15.955  26.496  1.00  0.00     0.061 C
HETATM    2  C4  UNL     1      17.677  15.805  27.408  1.00  0.00     0.013 C
HETATM    3  C5  UNL     1      16.927  14.575  26.925  1.00  0.00     0.010 C
HETATM    4  C6  UNL     1      17.962  13.705  26.248  1.00  0.00     0.023 C
HETATM    5  C7  UNL     1      18.898  13.015  27.164  1.00  0.00    -0.036 C
HETATM    6  C8  UNL     1      19.190  12.187  28.159  1.00  0.00     0.180 C
HETATM    7  O2  UNL     1      20.534  12.055  28.483  1.00  0.00    -0.207 OA
HETATM    8  O3  UNL     1      21.281  13.150  28.553  1.00  0.00    -0.202 OA
HETATM    9  C9  UNL     1      20.933  14.160  27.665  1.00  0.00     0.310 C
HETATM   10  O4  UNL     1      22.123  14.636  27.115  1.00  0.00    -0.357 OA
HETATM   11  C10 UNL     1      22.953  13.633  26.690  1.00  0.00     0.178 C
HETATM   12  C11 UNL     1      22.256  12.600  25.878  1.00  0.00     0.045 C
HETATM   13  C12 UNL     1      23.025  12.458  24.554  1.00  0.00     0.141 C
HETATM   14  C13 UNL     1      22.343  11.448  23.698  1.00  0.00     0.115 C
HETATM   15 BR1  UNL     1      21.886  12.169  21.955  1.00  0.00    -0.086 Br
HETATM   16  C14 UNL     1      21.159  10.781  24.303  1.00  0.00     0.135 C
HETATM   17  C15 UNL     1      20.184  11.681  24.997  1.00  0.00     0.039 C
HETATM   18  C16 UNL     1      20.838  12.924  25.505  1.00  0.00     0.015 C
HETATM   19  C17 UNL     1      20.082  13.690  26.528  1.00  0.00     0.047 C
HETATM   20  C18 UNL     1      19.116  14.621  25.895  1.00  0.00     0.023 C
ENDROOT
BRANCH   1  21
HETATM   21  C2  UNL     1      18.505  16.939  25.435  1.00  0.00     0.127 C
HETATM   22  C1  UNL     1      17.990  16.483  24.098  1.00  0.00     0.091 C
HETATM   23  O1  UNL     1      18.641  18.127  25.673  1.00  0.00    -0.298 OA
ENDBRANCH   1  21
BRANCH  13  24
HETATM   24  O5  UNL     1      24.332  12.096  24.891  1.00  0.00    -0.394 OA
ATOM     25  H5  UNL     1      24.301  11.183  25.149  1.00  0.00     0.210 HD
ENDBRANCH  13  24
BRANCH  16  26
HETATM   26  O6  UNL     1      21.485   9.653  25.086  1.00  0.00    -0.394 OA
ATOM     27  H6  UNL     1      20.730   9.134  25.338  1.00  0.00     0.210 HD
ENDBRANCH  16  26
TORSDOF 3
ENDMDL