MODEL 2
REMARK VINA RESULT: -6.651331958      0.502      1.015
REMARK  5 active torsions:
REMARK  status: ('A' for Active; 'I' for Inactive)
REMARK    1  A    between atoms: S1_2  and  C2_3
REMARK    2  A    between atoms: C2_3  and  N1_5
REMARK    3  A    between atoms: N2_8  and  C5_9
REMARK    4  A    between atoms: C6_12  and  N4_13
REMARK    5  A    between atoms: C8_18  and  N5_19
ROOT
HETATM    1  C5  UNL     1      23.906  10.796  20.488  1.00  0.00     0.684 A
HETATM    2  N3  UNL     1      23.751  11.325  19.283  1.00  0.00    -0.175 N
ATOM      3  H3  UNL     1      22.804  11.451  18.926  1.00  0.00     0.186 HD
HETATM    4  C6  UNL     1      24.793  11.706  18.501  1.00  0.00     0.136 A
HETATM    5  C7  UNL     1      26.067  11.512  19.033  1.00  0.00     0.099 A
HETATM    6 BR1  UNL     1      27.597  12.012  18.023  1.00  0.00    -0.043 Br
HETATM    7  C8  UNL     1      26.251  10.965  20.280  1.00  0.00     0.140 A
HETATM    8  N6  UNL     1      25.129  10.620  20.974  1.00  0.00    -0.175 N
ATOM      9  H6  UNL     1      25.234  10.211  21.902  1.00  0.00     0.186 HD
ENDROOT
BRANCH   1  10
HETATM   10  N2  UNL     1      22.777  10.426  21.255  1.00  0.00    -0.200 N
HETATM   11  C4  UNL     1      21.434  10.122  20.818  1.00  0.00     0.163 C
HETATM   12  C3  UNL     1      20.564  10.767  21.848  1.00  0.00     0.146 C
HETATM   13  N1  UNL     1      21.411  10.863  23.014  1.00  0.00    -0.348 N
HETATM   14  C13 UNL     1      22.706  10.277  22.721  1.00  0.00     0.269 C
BRANCH  13  15
HETATM   15  C2  UNL     1      21.029  11.448  24.251  1.00  0.00     0.137 C
HETATM   16  S2  UNL     1      19.454  11.347  24.740  1.00  0.00    -0.053 SA
BRANCH  15  17
HETATM   17  S1  UNL     1      22.170  12.293  25.315  1.00  0.00    -0.105 SA
HETATM   18  C1  UNL     1      21.504  12.324  27.001  1.00  0.00     0.098 C
ENDBRANCH  15  17
ENDBRANCH  13  15
ENDBRANCH   1  10
BRANCH   4  19
HETATM   19  N4  UNL     1      24.636  12.219  17.330  1.00  0.00    -0.384 N
ATOM     20  H42 UNL     1      24.003  13.005  17.183  1.00  0.00     0.157 HD
ATOM     21  H41 UNL     1      25.128  11.875  16.504  1.00  0.00     0.157 HD
ENDBRANCH   4  19
BRANCH   7  22
HETATM   22  N5  UNL     1      27.547  10.754  20.871  1.00  0.00    -0.366 N
HETATM   23  C9  UNL     1      28.286   9.529  20.865  1.00  0.00     0.124 C
HETATM   24  C10 UNL     1      29.236   9.640  22.017  1.00  0.00     0.021 C
HETATM   25  C11 UNL     1      29.012  10.984  22.644  1.00  0.00     0.021 C
HETATM   26  C12 UNL     1      28.308  11.759  21.561  1.00  0.00     0.124 C
ENDBRANCH   7  22
TORSDOF 5
ENDMDL