MODEL 3
REMARK VINA RESULT: -7.698585598      3.985      9.149
REMARK  6 active torsions:
REMARK  status: ('A' for Active; 'I' for Inactive)
REMARK    1  A    between atoms: O1_2  and  C2_3
REMARK    2  A    between atoms: C2_3  and  C3_5
REMARK    3  A    between atoms: C13_16  and  O3_17
REMARK    4  A    between atoms: O3_17  and  C14_18
REMARK    5  A    between atoms: C19_24  and  O5_25
REMARK    6  A    between atoms: C20_27  and  O6_28
ROOT
HETATM    1  C3  UNL     1      18.827  14.286  27.103  1.00  0.00     0.052 C
HETATM    2  C4  UNL     1      19.197  15.546  27.862  1.00  0.00     0.026 C
HETATM    3  C5  UNL     1      18.470  14.644  25.679  1.00  0.00     0.022 C
HETATM    4  C6  UNL     1      18.597  13.320  24.995  1.00  0.00     0.028 C
HETATM    5  C7  UNL     1      19.809  12.642  25.644  1.00  0.00     0.049 C
HETATM    6 CL1  UNL     1      19.226  10.998  26.110  1.00  0.00    -0.118 Cl
HETATM    7  C8  UNL     1      20.933  12.561  24.673  1.00  0.00     0.020 C
HETATM    8  C9  UNL     1      22.235  13.134  25.120  1.00  0.00     0.023 C
HETATM    9  C10 UNL     1      23.454  12.496  24.560  1.00  0.00     0.008 C
HETATM   10  C11 UNL     1      23.175  12.202  23.093  1.00  0.00     0.008 C
HETATM   11  C12 UNL     1      22.175  11.116  23.055  1.00  0.00     0.020 C
HETATM   12  C13 UNL     1      21.397  11.244  21.734  1.00  0.00     0.136 C
HETATM   13  C16 UNL     1      20.328  10.225  22.019  1.00  0.00     0.033 C
HETATM   14  C17 UNL     1      19.945  10.570  23.454  1.00  0.00     0.008 C
HETATM   15  C18 UNL     1      21.139  11.134  24.133  1.00  0.00    -0.002 C
HETATM   16  C19 UNL     1      22.384  13.121  26.641  1.00  0.00     0.151 C
HETATM   17  C20 UNL     1      21.297  14.095  27.077  1.00  0.00     0.154 C
HETATM   18  C21 UNL     1      19.998  13.354  26.919  1.00  0.00     0.059 C
ENDROOT
BRANCH   1  19
HETATM   19  C2  UNL     1      17.683  13.669  27.818  1.00  0.00     0.267 C
HETATM   20  O2  UNL     1      17.860  13.000  28.847  1.00  0.00    -0.264 OA
BRANCH  19  21
HETATM   21  O1  UNL     1      16.377  13.824  27.352  1.00  0.00    -0.326 OA
HETATM   22  C1  UNL     1      15.466  14.594  28.109  1.00  0.00     0.213 C
ENDBRANCH  19  21
ENDBRANCH   1  19
BRANCH  17  23
HETATM   23  O6  UNL     1      21.501  14.350  28.427  1.00  0.00    -0.393 OA
ATOM     24  H6  UNL     1      21.111  15.197  28.610  1.00  0.00     0.210 HD
ENDBRANCH  17  23
BRANCH  16  25
HETATM   25  O5  UNL     1      23.599  13.723  26.924  1.00  0.00    -0.393 OA
ATOM     26  H5  UNL     1      23.493  14.649  26.742  1.00  0.00     0.210 HD
ENDBRANCH  16  25
BRANCH  12  27
HETATM   27  O3  UNL     1      22.285  10.853  20.722  1.00  0.00    -0.316 OA
BRANCH  27  28
HETATM   28  C14 UNL     1      22.511  11.665  19.620  1.00  0.00     0.255 C
HETATM   29  C15 UNL     1      21.794  12.969  19.501  1.00  0.00     0.126 C
HETATM   30  O4  UNL     1      23.323  11.244  18.768  1.00  0.00    -0.266 OA
ENDBRANCH  27  28
ENDBRANCH  12  27
TORSDOF 6
ENDMDL