MODEL 4
REMARK VINA RESULT: -6.602755978      2.537      4.842
REMARK  5 active torsions:
REMARK  status: ('A' for Active; 'I' for Inactive)
REMARK    1  A    between atoms: C2_2  and  O2_4
REMARK    2  A    between atoms: O2_4  and  C3_5
REMARK    3  A    between atoms: C6_10  and  O5_11
REMARK    4  A    between atoms: C8_15  and  O6_16
REMARK    5  A    between atoms: C14_23  and  C15_24
ROOT
HETATM    1  C3  UNL     1      23.758  12.178  21.582  1.00  0.00     0.214 C
HETATM    2  O3  UNL     1      23.649  10.836  21.328  1.00  0.00    -0.342 OA
HETATM    3  C4  UNL     1      23.822  10.509  19.996  1.00  0.00     0.182 C
HETATM    4  C5  UNL     1      25.349  10.359  19.669  1.00  0.00     0.163 C
HETATM    5  O4  UNL     1      25.517  10.690  18.362  1.00  0.00    -0.351 OA
HETATM    6  C6  UNL     1      24.440  11.389  17.968  1.00  0.00     0.282 C
HETATM    7  C7  UNL     1      23.728  11.822  19.247  1.00  0.00     0.132 C
HETATM    8 BR1  UNL     1      22.141  12.543  18.712  1.00  0.00    -0.074 Br
HETATM    9  C8  UNL     1      24.597  12.476  20.267  1.00  0.00     0.146 C
HETATM   10  C9  UNL     1      25.728  11.544  20.505  1.00  0.00     0.066 C
HETATM   11  C10 UNL     1      26.998  12.226  20.430  1.00  0.00     0.013 C
HETATM   12  C11 UNL     1      27.524  12.615  19.066  1.00  0.00     0.015 C
HETATM   13  C12 UNL     1      26.887  13.426  21.353  1.00  0.00    -0.025 C
HETATM   14  C13 UNL     1      25.790  13.602  22.269  1.00  0.00    -0.020 C
HETATM   15  C14 UNL     1      24.750  12.633  22.612  1.00  0.00     0.077 C
ENDROOT
BRANCH   1  16
HETATM   16  O2  UNL     1      22.568  12.834  21.479  1.00  0.00    -0.280 OA
BRANCH  16  17
HETATM   17  C2  UNL     1      21.359  12.574  22.047  1.00  0.00     0.257 C
HETATM   18  C1  UNL     1      20.611  11.268  21.826  1.00  0.00     0.126 C
HETATM   19  O1  UNL     1      20.749  13.379  22.796  1.00  0.00    -0.266 OA
ENDBRANCH  16  17
ENDBRANCH   1  16
BRANCH   9  20
HETATM   20  O6  UNL     1      24.768  13.747  19.987  1.00  0.00    -0.382 OA
ATOM     21  H6  UNL     1      25.661  14.062  20.062  1.00  0.00     0.210 HD
ENDBRANCH   9  20
BRANCH  15  22
HETATM   22  C15 UNL     1      24.068  13.035  23.898  1.00  0.00    -0.010 C
HETATM   23  C16 UNL     1      25.047  13.510  24.972  1.00  0.00     0.010 C
HETATM   24  C17 UNL     1      23.568  11.738  24.633  1.00  0.00     0.010 C
ENDBRANCH  15  22
BRANCH   6  25
HETATM   25  O5  UNL     1      24.558  12.355  17.025  1.00  0.00    -0.369 OA
ATOM     26  H5  UNL     1      23.998  13.121  17.051  1.00  0.00     0.212 HD
ENDBRANCH   6  25
TORSDOF 5
ENDMDL