MODEL 2
REMARK VINA RESULT: -8.450796023      1.226      1.654
REMARK  8 active torsions:
REMARK  status: ('A' for Active; 'I' for Inactive)
REMARK    1  A    between atoms: C4_5  and  C5_6
REMARK    2  A    between atoms: C5_6  and  C6_7
REMARK    3  A    between atoms: C6_7  and  C7_8
REMARK    4  A    between atoms: C7_8  and  N2_9
REMARK    5  A    between atoms: C12_15  and  S1_16
REMARK    6  A    between atoms: S1_16  and  N3_17
REMARK    7  A    between atoms: C13_22  and  C14_23
REMARK    8  A    between atoms: N5_29  and  O3_30
ROOT
HETATM    1  N2  UNL     1      -8.721 -26.119 -14.929  1.00  0.00    -0.341 N
HETATM    2  C8  UNL     1      -9.100 -25.816 -16.180  1.00  0.00     0.111 A
HETATM    3  C9  UNL     1      -9.886 -24.691 -16.405  1.00  0.00     0.027 A
HETATM    4 BR1  UNL     1     -10.430 -24.252 -18.191  1.00  0.00    -0.050 Br
HETATM    5  C10 UNL     1     -10.281 -23.882 -15.356  1.00  0.00     0.037 A
HETATM    6  C11 UNL     1      -9.891 -24.197 -14.084  1.00  0.00     0.035 A
HETATM    7  C12 UNL     1     -10.063 -23.670 -12.808  1.00  0.00     0.117 A
HETATM    8  C13 UNL     1      -9.400 -24.469 -11.898  1.00  0.00     0.060 A
HETATM    9  N4  UNL     1      -8.828 -25.468 -12.593  1.00  0.00    -0.342 N
ATOM     10  H4  UNL     1      -8.268 -26.219 -12.190  1.00  0.00     0.167 HD
HETATM   11  C15 UNL     1      -9.109 -25.326 -13.907  1.00  0.00     0.119 A
ENDROOT
BRANCH   1  12
HETATM   12  C7  UNL     1      -7.893 -27.309 -14.702  1.00  0.00     0.130 C
BRANCH  12  13
HETATM   13  C6  UNL     1      -7.739 -28.118 -15.948  1.00  0.00     0.026 C
BRANCH  13  14
HETATM   14  C5  UNL     1      -6.309 -28.431 -16.215  1.00  0.00     0.061 C
BRANCH  14  15
HETATM   15  C4  UNL     1      -5.933 -29.841 -16.145  1.00  0.00     0.040 A
HETATM   16  C3  UNL     1      -6.618 -30.737 -15.351  1.00  0.00     0.029 A
HETATM   17  C2  UNL     1      -6.279 -32.075 -15.270  1.00  0.00     0.030 A
HETATM   18  C1  UNL     1      -5.214 -32.489 -16.024  1.00  0.00     0.064 A
HETATM   19  N1  UNL     1      -4.800 -33.845 -16.000  1.00  0.00    -0.101 NA
HETATM   20  C16 UNL     1      -4.548 -31.587 -16.804  1.00  0.00     0.149 A
HETATM   21  N5  UNL     1      -4.880 -30.292 -16.880  1.00  0.00    -0.238 N
BRANCH  21  22
HETATM   22  O3  UNL     1      -4.169 -29.415 -17.690  1.00  0.00    -0.283 OA
ATOM     23  H3  UNL     1      -4.476 -29.223 -18.569  1.00  0.00     0.245 HD
ENDBRANCH  21  22
ENDBRANCH  14  15
ENDBRANCH  13  14
ENDBRANCH  12  13
ENDBRANCH   1  12
BRANCH   7  24
HETATM   24  S1  UNL     1     -10.981 -22.236 -12.491  1.00  0.00     0.259 S
HETATM   25  O1  UNL     1     -12.415 -22.486 -12.152  1.00  0.00    -0.201 OA
HETATM   26  O2  UNL     1     -11.004 -21.380 -13.750  1.00  0.00    -0.201 OA
BRANCH  24  27
HETATM   27  N3  UNL     1     -10.251 -21.331 -11.247  1.00  0.00    -0.324 N
ATOM     28  H32 UNL     1      -9.296 -20.975 -11.284  1.00  0.00     0.169 HD
ATOM     29  H31 UNL     1     -10.904 -21.202 -10.474  1.00  0.00     0.169 HD
ENDBRANCH  24  27
ENDBRANCH   7  24
BRANCH   8  30
HETATM   30  C14 UNL     1      -9.335 -24.251 -10.453  1.00  0.00     0.180 C
HETATM   31 BR2  UNL     1      -7.990 -25.408  -9.630  1.00  0.00    -0.072 Br
HETATM   32 BR3  UNL     1     -11.048 -24.751  -9.674  1.00  0.00    -0.072 Br
ENDBRANCH   8  30
TORSDOF 8
ENDMDL