MODEL 3
REMARK VINA RESULT: -8.582719444      1.089      1.535
REMARK  7 active torsions:
REMARK  status: ('A' for Active; 'I' for Inactive)
REMARK    1  A    between atoms: C2_2  and  C4_4
REMARK    2  A    between atoms: C4_4  and  C5_5
REMARK    3  A    between atoms: N2_10  and  C7_11
REMARK    4  A    between atoms: C7_11  and  C8_12
REMARK    5  A    between atoms: C14_21  and  N4_22
REMARK       I    between atoms: N4_22  and  C15_24
REMARK    6  A    between atoms: C15_24  and  C16_26
REMARK    7  A    between atoms: C16_26  and  C17_27
ROOT
HETATM    1  C5  UNL     1      -8.867 -22.777  -9.630  1.00  0.00     0.118 C
HETATM    2  N1  UNL     1      -8.595 -22.280 -10.958  1.00  0.00    -0.336 N
ATOM      3  H1  UNL     1      -7.755 -21.733 -11.146  1.00  0.00     0.164 HD
HETATM    4  C6  UNL     1      -9.519 -22.565 -11.993  1.00  0.00     0.325 C
HETATM    5  O1  UNL     1      -9.478 -21.958 -13.093  1.00  0.00    -0.247 OA
HETATM    6  N2  UNL     1     -10.543 -23.563 -11.824  1.00  0.00    -0.268 N
HETATM    7  C13 UNL     1     -10.537 -24.211 -10.561  1.00  0.00     0.252 C
HETATM    8  O3  UNL     1     -11.553 -24.767 -10.110  1.00  0.00    -0.270 OA
HETATM    9  C14 UNL     1      -9.273 -24.224  -9.749  1.00  0.00     0.200 C
ENDROOT
BRANCH   9  10
HETATM   10  N4  UNL     1      -9.468 -24.885  -8.502  1.00  0.00    -0.345 N
HETATM   11  C15 UNL     1      -8.503 -25.807  -8.037  1.00  0.00     0.224 C
HETATM   12  O4  UNL     1      -7.490 -26.034  -8.717  1.00  0.00    -0.273 OA
ATOM     13  H4  UNL     1     -10.302 -24.692  -7.947  1.00  0.00     0.163 HD
BRANCH  11  14
HETATM   14  C16 UNL     1      -8.648 -26.529  -6.748  1.00  0.00     0.161 C
BRANCH  14  15
HETATM   15  C17 UNL     1      -7.533 -27.440  -6.479  1.00  0.00     0.038 A
HETATM   16  N5  UNL     1      -7.325 -28.645  -7.078  1.00  0.00    -0.347 N
HETATM   17  C18 UNL     1      -6.224 -29.217  -6.606  1.00  0.00     0.122 A
ATOM     18  H5  UNL     1      -7.931 -29.053  -7.791  1.00  0.00     0.167 HD
HETATM   19 CL1  UNL     1      -5.565 -30.766  -7.080  1.00  0.00    -0.063 Cl
HETATM   20  C19 UNL     1      -5.678 -28.367  -5.661  1.00  0.00     0.068 A
HETATM   21 BR1  UNL     1      -4.106 -28.616  -4.631  1.00  0.00    -0.046 Br
HETATM   22  C20 UNL     1      -6.501 -27.262  -5.589  1.00  0.00     0.054 A
HETATM   23 BR2  UNL     1      -6.212 -25.758  -4.431  1.00  0.00    -0.047 Br
ENDBRANCH  14  15
ENDBRANCH  11  14
ENDBRANCH   9  10
BRANCH   1  24
HETATM   24  C4  UNL     1      -7.792 -22.510  -8.636  1.00  0.00     0.031 C
BRANCH  24  25
HETATM   25  C2  UNL     1      -8.403 -21.648  -7.533  1.00  0.00    -0.021 C
HETATM   26  C1  UNL     1      -8.362 -22.349  -6.195  1.00  0.00     0.009 C
HETATM   27  C3  UNL     1      -9.778 -21.250  -7.956  1.00  0.00     0.009 C
ENDBRANCH  24  25
ENDBRANCH   1  24
BRANCH   6  28
HETATM   28  C7  UNL     1     -11.496 -23.850 -12.871  1.00  0.00     0.143 C
BRANCH  28  29
HETATM   29  C8  UNL     1     -11.123 -24.962 -13.780  1.00  0.00     0.031 C
HETATM   30  C9  UNL     1     -10.715 -24.410 -15.126  1.00  0.00     0.110 C
HETATM   31  C10 UNL     1      -9.935 -25.582 -15.654  1.00  0.00     0.219 C
HETATM   32  O2  UNL     1      -9.945 -25.948 -16.834  1.00  0.00    -0.273 OA
HETATM   33  N3  UNL     1      -9.233 -26.123 -14.530  1.00  0.00    -0.356 N
HETATM   34  C11 UNL     1      -8.112 -27.026 -14.590  1.00  0.00     0.152 C
HETATM   35  C12 UNL     1      -9.828 -25.618 -13.295  1.00  0.00     0.132 C
ENDBRANCH  28  29
ENDBRANCH   6  28
TORSDOF 7
ENDMDL