MODEL 2
REMARK VINA RESULT: -7.514686308      4.811      7.240
REMARK  8 active torsions:
REMARK  status: ('A' for Active; 'I' for Inactive)
REMARK    1  A    between atoms: C3_5  and  C4_6
REMARK    2  A    between atoms: C6_9  and  N2_10
REMARK       I    between atoms: N2_10  and  C7_12
REMARK    3  A    between atoms: C7_12  and  C8_14
REMARK    4  A    between atoms: C8_14  and  C9_16
REMARK    5  A    between atoms: C9_16  and  C10_17
REMARK    6  A    between atoms: C10_17  and  C11_18
REMARK    7  A    between atoms: C11_18  and  C12_19
REMARK    8  A    between atoms: C12_19  and  N3_20
ROOT
HETATM    1  C1  UNL     1     -10.471 -25.743  -7.417  1.00  0.00     0.153 C
HETATM    2  N1  UNL     1     -10.465 -24.927  -8.596  1.00  0.00    -0.343 N
HETATM    3  C2  UNL     1     -11.605 -24.437  -9.287  1.00  0.00     0.234 C
HETATM    4  O1  UNL     1     -12.781 -24.752  -9.070  1.00  0.00    -0.272 OA
HETATM    5  C3  UNL     1     -11.209 -23.438 -10.375  1.00  0.00     0.083 C
HETATM    6  C5  UNL     1     -10.296 -22.427  -9.726  1.00  0.00     0.053 C
HETATM    7  C6  UNL     1      -9.153 -23.027  -8.999  1.00  0.00     0.115 C
HETATM    8  C14 UNL     1      -9.183 -24.542  -9.170  1.00  0.00     0.167 C
HETATM    9  C15 UNL     1      -9.299 -24.856 -10.615  1.00  0.00     0.088 A
HETATM   10  O3  UNL     1      -8.632 -25.569 -11.473  1.00  0.00    -0.303 OA
HETATM   11  C16 UNL     1      -9.187 -25.506 -12.652  1.00  0.00     0.140 A
HETATM   12 BR2  UNL     1      -8.626 -26.354 -14.268  1.00  0.00    -0.021 Br
HETATM   13  C17 UNL     1     -10.322 -24.683 -12.580  1.00  0.00     0.062 A
HETATM   14 BR3  UNL     1     -11.519 -24.296 -14.004  1.00  0.00    -0.047 Br
HETATM   15  C18 UNL     1     -10.389 -24.268 -11.282  1.00  0.00     0.013 A
ENDROOT
BRANCH   7  16
HETATM   16  N2  UNL     1      -7.901 -22.448  -9.341  1.00  0.00    -0.352 N
HETATM   17  C7  UNL     1      -7.042 -21.786  -8.458  1.00  0.00     0.252 C
HETATM   18  O2  UNL     1      -7.410 -21.694  -7.243  1.00  0.00    -0.270 OA
ATOM     19  H2  UNL     1      -7.604 -22.522 -10.313  1.00  0.00     0.163 HD
BRANCH  17  20
HETATM   20  C8  UNL     1      -5.748 -21.190  -8.820  1.00  0.00     0.261 C
HETATM   21  F1  UNL     1      -5.478 -21.239 -10.154  1.00  0.00    -0.239 F
BRANCH  20  22
HETATM   22  C9  UNL     1      -4.582 -21.800  -8.069  1.00  0.00     0.047 C
BRANCH  22  23
HETATM   23  C10 UNL     1      -4.520 -23.268  -8.406  1.00  0.00     0.005 C
BRANCH  23  24
HETATM   24  C11 UNL     1      -4.717 -24.142  -7.193  1.00  0.00     0.020 C
BRANCH  24  25
HETATM   25  C12 UNL     1      -5.744 -25.225  -7.444  1.00  0.00     0.122 C
BRANCH  25  26
HETATM   26  N3  UNL     1      -5.215 -26.543  -7.158  1.00  0.00    -0.367 N
HETATM   27  C13 UNL     1      -5.971 -27.488  -6.742  1.00  0.00     0.196 C
HETATM   28  N4  UNL     1      -7.367 -27.342  -6.523  1.00  0.00    -0.067 NA
HETATM   29  N5  UNL     1      -5.408 -28.768  -6.474  1.00  0.00    -0.067 NA
ATOM     30  H3  UNL     1      -4.219 -26.722  -7.292  1.00  0.00     0.161 HD
ENDBRANCH  25  26
ENDBRANCH  24  25
ENDBRANCH  23  24
ENDBRANCH  22  23
ENDBRANCH  20  22
ENDBRANCH  17  20
ENDBRANCH   7  16
BRANCH   5  31
HETATM   31  C4  UNL     1     -12.394 -22.774 -10.946  1.00  0.00     0.109 C
HETATM   32 BR1  UNL     1     -12.885 -21.246  -9.918  1.00  0.00    -0.095 Br
ENDBRANCH   5  31
TORSDOF 8
ENDMDL