MODEL 5
REMARK VINA RESULT: -7.160520116      4.267      6.501
REMARK  9 active torsions:
REMARK  status: ('A' for Active; 'I' for Inactive)
REMARK    1  A    between atoms: C3_3  and  N1_4
REMARK    2  A    between atoms: C5_7  and  C6_8
REMARK    3  A    between atoms: C6_8  and  C7_9
REMARK    4  A    between atoms: C7_9  and  C8_10
REMARK    5  A    between atoms: C11_16  and  C12_17
REMARK    6  A    between atoms: C12_17  and  C13_18
REMARK    7  A    between atoms: C14_19  and  C15_20
REMARK    8  A    between atoms: C15_20  and  C16_21
REMARK    9  A    between atoms: C16_21  and  C17_22
ROOT
HETATM    1  C1  UNL     1     -11.745 -22.691  -6.620  1.00  0.00     0.098 C
HETATM    2  C2  UNL     1     -11.640 -23.783  -7.158  1.00  0.00    -0.167 C
HETATM    3  C3  UNL     1     -11.503 -25.121  -7.783  1.00  0.00     0.212 C
ENDROOT
BRANCH   3   4
HETATM    4  N1  UNL     1     -10.341 -25.217  -8.601  1.00  0.00    -0.297 N
HETATM    5  C4  UNL     1     -10.562 -24.777  -9.897  1.00  0.00     0.275 A
HETATM    6  O1  UNL     1     -11.720 -24.376 -10.227  1.00  0.00    -0.265 OA
HETATM    7  C5  UNL     1      -9.575 -24.760 -10.825  1.00  0.00     0.100 A
HETATM    8  N2  UNL     1      -8.372 -25.180 -10.463  1.00  0.00    -0.317 N
HETATM    9  C10 UNL     1      -8.146 -25.606  -9.216  1.00  0.00     0.273 A
ATOM     10  H2  UNL     1      -7.610 -25.179 -11.141  1.00  0.00     0.169 HD
HETATM   11  O2  UNL     1      -6.955 -25.985  -8.986  1.00  0.00    -0.266 OA
HETATM   12  C11 UNL     1      -9.145 -25.640  -8.214  1.00  0.00     0.107 A
BRANCH   7  13
HETATM   13  C6  UNL     1      -9.857 -24.326 -12.049  1.00  0.00     0.008 C
BRANCH  13  14
HETATM   14  C7  UNL     1     -10.159 -25.263 -13.154  1.00  0.00     0.029 C
BRANCH  14  15
HETATM   15  C8  UNL     1     -11.506 -24.921 -13.732  1.00  0.00    -0.001 C
HETATM   16  C9  UNL     1     -11.742 -23.435 -13.676  1.00  0.00     0.005 C
ENDBRANCH  14  15
ENDBRANCH  13  14
ENDBRANCH   7  13
BRANCH  12  17
HETATM   17  C12 UNL     1      -8.776 -26.018  -7.064  1.00  0.00     0.049 C
BRANCH  17  18
HETATM   18  C13 UNL     1      -7.727 -25.761  -6.110  1.00  0.00    -0.009 A
HETATM   19  C14 UNL     1      -7.442 -24.473  -5.700  1.00  0.00    -0.045 A
HETATM   20  C18 UNL     1      -6.396 -24.272  -4.808  1.00  0.00     0.028 A
HETATM   21  C19 UNL     1      -5.639 -25.300  -4.323  1.00  0.00     0.030 A
HETATM   22 BR1  UNL     1      -4.200 -25.018  -3.094  1.00  0.00    -0.050 Br
HETATM   23  C20 UNL     1      -5.933 -26.592  -4.745  1.00  0.00     0.046 A
HETATM   24 BR2  UNL     1      -4.872 -28.031  -4.067  1.00  0.00    -0.048 Br
HETATM   25  C21 UNL     1      -6.960 -26.793  -5.623  1.00  0.00     0.040 A
HETATM   26 BR3  UNL     1      -7.190 -28.585  -6.242  1.00  0.00    -0.049 Br
BRANCH  19  27
HETATM   27  C15 UNL     1      -8.129 -23.254  -6.155  1.00  0.00     0.050 C
BRANCH  27  28
HETATM   28  C16 UNL     1      -7.314 -22.120  -6.633  1.00  0.00     0.117 C
BRANCH  28  29
HETATM   29  C17 UNL     1      -6.959 -22.411  -8.076  1.00  0.00     0.172 C
HETATM   30  O3  UNL     1      -5.818 -22.816  -8.384  1.00  0.00    -0.648 OA
HETATM   31  O4  UNL     1      -7.883 -22.235  -9.088  1.00  0.00    -0.648 OA
ENDBRANCH  28  29
ENDBRANCH  27  28
ENDBRANCH  19  27
ENDBRANCH  17  18
ENDBRANCH  12  17
ENDBRANCH   3   4
TORSDOF 9
ENDMDL