MODEL 5
REMARK VINA RESULT: -8.080952833      3.729      7.529
REMARK  9 active torsions:
REMARK  status: ('A' for Active; 'I' for Inactive)
REMARK    1  A    between atoms: C2_2  and  C3_4
REMARK    2  A    between atoms: C7_11  and  C9_13
REMARK    3  A    between atoms: C12_16  and  C13_17
REMARK       I    between atoms: C13_17  and  N1_19
REMARK    4  A    between atoms: N1_19  and  C14_21
REMARK    5  A    between atoms: C19_29  and  C20_30
REMARK    6  A    between atoms: C21_31  and  C22_32
REMARK    7  A    between atoms: C22_32  and  N4_33
REMARK       I    between atoms: N4_33  and  C23_35
REMARK    8  A    between atoms: C23_35  and  C24_37
REMARK    9  A    between atoms: C24_37  and  N5_39
ROOT
HETATM    1  C3  UNL     1     -14.361 -18.463  -7.952  1.00  0.00     0.146 C
HETATM    2  C4  UNL     1     -15.221 -19.128  -6.987  1.00  0.00     0.210 C
HETATM    3  O2  UNL     1     -15.403 -18.738  -5.844  1.00  0.00    -0.290 OA
HETATM    4  C5  UNL     1     -15.859 -20.348  -7.558  1.00  0.00     0.309 C
HETATM    5  F1  UNL     1     -16.646 -19.904  -8.636  1.00  0.00    -0.197 F
HETATM    6  F2  UNL     1     -16.748 -20.785  -6.642  1.00  0.00    -0.197 F
HETATM    7  C6  UNL     1     -14.906 -21.322  -8.078  1.00  0.00     0.090 C
HETATM    8  C7  UNL     1     -13.936 -22.034  -7.209  1.00  0.00    -0.017 C
HETATM    9  C8  UNL     1     -13.538 -21.445  -5.911  1.00  0.00     0.017 C
HETATM   10  C12 UNL     1     -12.964 -21.848  -8.379  1.00  0.00     0.101 C
HETATM   11  C19 UNL     1     -13.789 -20.754  -8.993  1.00  0.00     0.015 C
HETATM   12  C26 UNL     1     -13.542 -19.348  -8.853  1.00  0.00     0.090 C
HETATM   13 BR1  UNL     1     -11.692 -18.792  -8.458  1.00  0.00    -0.089 Br
ENDROOT
BRANCH  11  14
HETATM   14  C20 UNL     1     -14.211 -21.180 -10.375  1.00  0.00    -0.017 C
HETATM   15  C21 UNL     1     -13.333 -21.551 -11.460  1.00  0.00    -0.010 C
BRANCH  15  16
HETATM   16  C22 UNL     1     -12.342 -20.660 -12.078  1.00  0.00     0.149 C
BRANCH  16  17
HETATM   17  N4  UNL     1     -11.051 -21.351 -12.279  1.00  0.00    -0.356 N
HETATM   18  C23 UNL     1     -10.588 -21.779 -13.526  1.00  0.00     0.248 C
HETATM   19  O4  UNL     1     -11.207 -21.632 -14.592  1.00  0.00    -0.271 OA
ATOM     20  H4  UNL     1     -10.466 -21.526 -11.461  1.00  0.00     0.162 HD
BRANCH  18  21
HETATM   21  C24 UNL     1      -9.259 -22.466 -13.629  1.00  0.00     0.270 C
HETATM   22  C25 UNL     1      -9.406 -23.974 -13.474  1.00  0.00     0.050 C
BRANCH  21  23
HETATM   23  N5  UNL     1      -8.398 -22.025 -12.527  1.00  0.00    -0.067 N
ATOM     24  H53 UNL     1      -8.080 -22.803 -11.949  1.00  0.00     0.275 HD
ATOM     25  H52 UNL     1      -7.487 -21.704 -12.853  1.00  0.00     0.275 HD
ATOM     26  H51 UNL     1      -8.887 -21.313 -11.982  1.00  0.00     0.275 HD
ENDBRANCH  21  23
ENDBRANCH  18  21
ENDBRANCH  16  17
ENDBRANCH  15  16
ENDBRANCH  11  14
BRANCH  10  27
HETATM   27  C13 UNL     1     -11.572 -21.694  -8.055  1.00  0.00     0.228 C
HETATM   28  O3  UNL     1     -11.074 -21.492  -6.888  1.00  0.00    -0.273 OA
HETATM   29  N1  UNL     1     -10.561 -21.753  -9.057  1.00  0.00    -0.325 N
ATOM     30  H1  UNL     1     -10.585 -21.054  -9.798  1.00  0.00     0.169 HD
BRANCH  29  31
HETATM   31  C14 UNL     1      -9.620 -22.630  -9.089  1.00  0.00     0.053 A
HETATM   32  C15 UNL     1      -9.840 -23.863  -9.695  1.00  0.00     0.049 A
HETATM   33  C16 UNL     1      -8.884 -24.843  -9.760  1.00  0.00     0.109 A
HETATM   34  N2  UNL     1      -7.683 -24.580  -9.206  1.00  0.00    -0.310 N
HETATM   35  N3  UNL     1      -7.459 -23.422  -8.630  1.00  0.00    -0.306 N
ATOM     36  H2  UNL     1      -6.946 -25.285  -9.234  1.00  0.00     0.186 HD
HETATM   37  C17 UNL     1      -6.117 -23.241  -8.059  1.00  0.00     0.177 C
HETATM   38  C18 UNL     1      -8.368 -22.440  -8.547  1.00  0.00     0.139 A
ENDBRANCH  29  31
ENDBRANCH  10  27
BRANCH   8  39
HETATM   39  C9  UNL     1     -14.297 -23.505  -6.980  1.00  0.00    -0.013 C
HETATM   40  C10 UNL     1     -13.462 -24.464  -7.787  1.00  0.00     0.010 C
HETATM   41  C11 UNL     1     -15.718 -23.838  -7.228  1.00  0.00     0.010 C
ENDBRANCH   8  39
BRANCH   1  42
HETATM   42  C2  UNL     1     -15.252 -17.526  -8.738  1.00  0.00     0.135 C
HETATM   43  C1  UNL     1     -16.191 -16.616  -8.089  1.00  0.00     0.091 C
HETATM   44  O1  UNL     1     -15.169 -17.542  -9.951  1.00  0.00    -0.297 OA
ENDBRANCH   1  42
TORSDOF 9
ENDMDL