MODEL 2
REMARK VINA RESULT: -7.596248987      0.079      1.498
REMARK  11 active torsions:
REMARK  status: ('A' for Active; 'I' for Inactive)
REMARK    1  A    between atoms: C2_2  and  C4_4
REMARK    2  A    between atoms: C5_5  and  O1_6
REMARK    3  A    between atoms: C7_10  and  C8_11
REMARK    4  A    between atoms: C8_11  and  C9_12
REMARK    5  A    between atoms: C16_24  and  C17_25
REMARK    6  A    between atoms: C17_25  and  C18_26
REMARK    7  A    between atoms: C18_26  and  C19_27
REMARK    8  A    between atoms: C19_27  and  N3_28
REMARK    9  A    between atoms: C21_33  and  O3_34
REMARK   10  A    between atoms: N6_36  and  C22_37
REMARK   11  A    between atoms: C22_37  and  N7_39
ROOT
HETATM    1  C4  UNL     1      -8.953 -24.382  -7.123  1.00  0.00     0.171 C
HETATM    2  C5  UNL     1     -10.356 -24.615  -7.303  1.00  0.00     0.138 C
HETATM    3  N1  UNL     1     -11.452 -23.852  -7.755  1.00  0.00    -0.354 N
HETATM    4  C6  UNL     1     -12.583 -23.675  -6.795  1.00  0.00     0.152 C
HETATM    5  C7  UNL     1     -11.655 -23.248  -9.054  1.00  0.00     0.182 C
HETATM    6  C15 UNL     1     -11.607 -24.285 -10.141  1.00  0.00     0.241 C
HETATM    7  O2  UNL     1     -12.578 -24.492 -10.942  1.00  0.00    -0.271 OA
HETATM    8  N2  UNL     1     -10.462 -25.104 -10.333  1.00  0.00    -0.347 N
ATOM      9  H2  UNL     1     -10.610 -26.111 -10.265  1.00  0.00     0.163 HD
HETATM   10  C16 UNL     1      -9.125 -24.677 -10.610  1.00  0.00     0.159 C
HETATM   11  C21 UNL     1      -8.196 -24.820  -9.525  1.00  0.00     0.144 C
HETATM   12  N6  UNL     1      -8.041 -24.206  -8.256  1.00  0.00    -0.292 N
ENDROOT
BRANCH   5  13
HETATM   13  C8  UNL     1     -10.913 -22.003  -9.351  1.00  0.00     0.073 C
BRANCH  13  14
HETATM   14  C9  UNL     1     -11.730 -20.769  -9.064  1.00  0.00    -0.052 A
HETATM   15  C10 UNL     1     -12.981 -20.674  -9.657  1.00  0.00     0.031 A
HETATM   16  C11 UNL     1     -13.742 -19.550  -9.419  1.00  0.00     0.036 A
HETATM   17 CL1  UNL     1     -15.341 -19.411 -10.167  1.00  0.00    -0.084 Cl
HETATM   18  C12 UNL     1     -13.258 -18.548  -8.605  1.00  0.00     0.047 A
HETATM   19  C13 UNL     1     -12.021 -18.629  -8.010  1.00  0.00     0.036 A
HETATM   20 CL2  UNL     1     -11.412 -17.335  -6.967  1.00  0.00    -0.084 Cl
HETATM   21  C14 UNL     1     -11.282 -19.763  -8.266  1.00  0.00     0.031 A
ENDBRANCH  13  14
ENDBRANCH   5  13
BRANCH   2  22
HETATM   22  O1  UNL     1     -10.716 -25.837  -6.956  1.00  0.00    -0.348 OA
ATOM     23  H1  UNL     1     -10.508 -26.481  -7.622  1.00  0.00     0.219 HD
ENDBRANCH   2  22
BRANCH   1  24
HETATM   24  C2  UNL     1      -8.338 -25.433  -6.198  1.00  0.00     0.009 C
HETATM   25  C1  UNL     1      -7.655 -26.515  -7.046  1.00  0.00     0.012 C
HETATM   26  C3  UNL     1      -7.330 -24.924  -5.239  1.00  0.00     0.012 C
ENDBRANCH   1  24
BRANCH  10  27
HETATM   27  C17 UNL     1      -8.605 -25.365 -11.877  1.00  0.00     0.035 C
BRANCH  27  28
HETATM   28  C18 UNL     1      -9.600 -25.610 -12.933  1.00  0.00     0.022 C
BRANCH  28  29
HETATM   29  C19 UNL     1      -9.578 -24.359 -13.844  1.00  0.00     0.122 C
BRANCH  29  30
HETATM   30  N3  UNL     1     -10.823 -23.672 -13.598  1.00  0.00    -0.367 N
HETATM   31  C20 UNL     1     -10.839 -22.444 -13.226  1.00  0.00     0.196 C
HETATM   32  N4  UNL     1     -12.032 -21.723 -12.973  1.00  0.00    -0.067 NA
HETATM   33  N5  UNL     1      -9.612 -21.755 -13.054  1.00  0.00    -0.067 NA
ATOM     34  H3  UNL     1     -11.704 -24.170 -13.723  1.00  0.00     0.161 HD
ENDBRANCH  29  30
ENDBRANCH  28  29
ENDBRANCH  27  28
ENDBRANCH  10  27
BRANCH  12  35
HETATM   35  C22 UNL     1      -6.886 -23.377  -8.054  1.00  0.00     0.193 C
HETATM   36  S1  UNL     1      -7.243 -21.739  -7.915  1.00  0.00    -0.039 SA
BRANCH  35  37
HETATM   37  N7  UNL     1      -5.545 -23.651  -7.995  1.00  0.00    -0.270 N
HETATM   38  C23 UNL     1      -4.783 -24.658  -7.302  1.00  0.00     0.174 C
HETATM   39 CL3  UNL     1      -4.436 -22.567  -8.930  1.00  0.00     0.015 Cl
ENDBRANCH  35  37
ENDBRANCH  12  35
BRANCH  11  40
HETATM   40  O3  UNL     1      -7.256 -25.728  -9.738  1.00  0.00    -0.348 OA
ATOM     41  H3  UNL     1      -6.382 -25.365  -9.833  1.00  0.00     0.219 HD
ENDBRANCH  11  40
TORSDOF 11
ENDMDL