MODEL 2
REMARK VINA RESULT: -7.460989135      1.683      1.931
REMARK  9 active torsions:
REMARK  status: ('A' for Active; 'I' for Inactive)
REMARK    1  A    between atoms: C2_2  and  C3_3
REMARK    2  A    between atoms: C3_3  and  C4_4
REMARK    3  A    between atoms: C4_4  and  N1_5
REMARK       I    between atoms: N1_5  and  C5_7
REMARK    4  A    between atoms: C5_7  and  C6_9
REMARK    5  A    between atoms: C6_9  and  N2_10
REMARK    6  A    between atoms: C6_9  and  C7_14
REMARK    7  A    between atoms: C7_14  and  C8_15
REMARK    8  A    between atoms: C10_17  and  S1_18
REMARK    9  A    between atoms: S1_18  and  N3_21
REMARK       I    between atoms: C11_23  and  N5_25
ROOT
HETATM    1  C8  UNL     1     -10.046 -22.616 -12.742  1.00  0.00    -0.035 A
HETATM    2  C9  UNL     1      -9.344 -22.730 -11.537  1.00  0.00     0.035 A
HETATM    3  C10 UNL     1      -9.849 -22.374 -10.315  1.00  0.00     0.099 A
HETATM    4  C14 UNL     1     -11.144 -21.864 -10.255  1.00  0.00     0.053 A
HETATM    5 BR1  UNL     1     -11.868 -21.363  -8.567  1.00  0.00    -0.048 Br
HETATM    6  C15 UNL     1     -11.861 -21.735 -11.414  1.00  0.00     0.047 A
HETATM    7 BR2  UNL     1     -13.641 -21.033 -11.325  1.00  0.00    -0.048 Br
HETATM    8  C16 UNL     1     -11.315 -22.109 -12.653  1.00  0.00     0.036 A
HETATM    9 BR3  UNL     1     -12.377 -21.820 -14.219  1.00  0.00    -0.049 Br
ENDROOT
BRANCH   1  10
HETATM   10  C7  UNL     1      -9.440 -23.079 -13.991  1.00  0.00     0.082 C
BRANCH  10  11
HETATM   11  C6  UNL     1      -9.297 -24.545 -14.164  1.00  0.00     0.278 C
BRANCH  11  12
HETATM   12  C5  UNL     1      -9.014 -24.869 -15.600  1.00  0.00     0.248 C
HETATM   13  N1  UNL     1      -9.731 -24.236 -16.631  1.00  0.00    -0.359 N
ATOM     14  H1  UNL     1     -10.440 -23.557 -16.357  1.00  0.00     0.162 HD
HETATM   15  O1  UNL     1      -8.119 -25.722 -15.894  1.00  0.00    -0.271 OA
BRANCH  13  16
HETATM   16  C4  UNL     1      -9.552 -24.464 -18.033  1.00  0.00     0.122 C
BRANCH  16  17
HETATM   17  C3  UNL     1     -10.749 -25.147 -18.635  1.00  0.00     0.019 C
BRANCH  17  18
HETATM   18  C2  UNL     1     -11.220 -26.277 -17.733  1.00  0.00    -0.003 C
HETATM   19  C1  UNL     1     -12.341 -27.081 -18.336  1.00  0.00     0.005 C
ENDBRANCH  17  18
ENDBRANCH  16  17
ENDBRANCH  13  16
ENDBRANCH  11  12
BRANCH  11  20
HETATM   20  N2  UNL     1     -10.360 -25.318 -13.625  1.00  0.00    -0.066 N
ATOM     21  H23 UNL     1     -11.188 -25.267 -14.219  1.00  0.00     0.275 HD
ATOM     22  H22 UNL     1     -10.163 -26.316 -13.703  1.00  0.00     0.275 HD
ATOM     23  H21 UNL     1     -10.585 -25.065 -12.663  1.00  0.00     0.275 HD
ENDBRANCH  11  20
ENDBRANCH  10  11
ENDBRANCH   1  10
BRANCH   3  24
HETATM   24  S1  UNL     1      -8.864 -22.582  -8.906  1.00  0.00     0.266 S
HETATM   25  O2  UNL     1      -9.441 -21.771  -7.785  1.00  0.00    -0.200 OA
HETATM   26  O3  UNL     1      -8.917 -24.053  -8.539  1.00  0.00    -0.200 OA
BRANCH  24  27
HETATM   27  N3  UNL     1      -7.248 -22.080  -9.141  1.00  0.00    -0.254 N
HETATM   28  C11 UNL     1      -6.419 -22.191  -8.144  1.00  0.00     0.199 C
HETATM   29  N4  UNL     1      -6.848 -22.712  -6.900  1.00  0.00    -0.063 NA
HETATM   30  N5  UNL     1      -5.063 -21.801  -8.245  1.00  0.00    -0.364 N
HETATM   31  C12 UNL     1      -4.101 -22.722  -8.782  1.00  0.00     0.151 C
HETATM   32  C13 UNL     1      -4.660 -20.493  -7.813  1.00  0.00     0.151 C
ATOM     33  H3  UNL     1      -6.941 -21.705 -10.038  1.00  0.00     0.181 HD
ENDBRANCH  24  27
ENDBRANCH   3  24
TORSDOF 9
ENDMDL