MODEL 1
REMARK VINA RESULT: -7.899583123      0.000      0.000
REMARK  10 active torsions:
REMARK  status: ('A' for Active; 'I' for Inactive)
REMARK    1  A    between atoms: C7_8  and  O1_10
REMARK    2  A    between atoms: C11_14  and  C12_16
REMARK    3  A    between atoms: C12_16  and  C13_17
REMARK    4  A    between atoms: C13_17  and  N1_18
REMARK       I    between atoms: N1_18  and  C14_20
REMARK       I    between atoms: N3_22  and  C15_24
REMARK    5  A    between atoms: C15_24  and  C16_26
REMARK    6  A    between atoms: C16_26  and  O3_27
REMARK    7  A    between atoms: O3_27  and  C17_28
REMARK    8  A    between atoms: C17_28  and  C18_30
REMARK    9  A    between atoms: C18_30  and  N4_31
REMARK   10  A    between atoms: N4_31  and  C21_34
ROOT
HETATM    1  N1  UNL     1     -12.357 -22.515 -12.716  1.00  0.00    -0.364 N
ATOM      2  H1  UNL     1     -13.324 -22.772 -12.911  1.00  0.00     0.162 HD
HETATM    3  C14 UNL     1     -11.869 -22.496 -11.393  1.00  0.00     0.190 C
HETATM    4  N2  UNL     1     -12.357 -23.467 -10.484  1.00  0.00    -0.063 NA
HETATM    5  N3  UNL     1     -11.006 -21.645 -10.968  1.00  0.00    -0.299 N
ATOM      6  H3  UNL     1     -10.664 -20.951 -11.633  1.00  0.00     0.171 HD
HETATM    7  C15 UNL     1     -10.499 -21.593  -9.668  1.00  0.00     0.248 C
HETATM    8  O2  UNL     1     -10.779 -20.626  -8.928  1.00  0.00    -0.271 OA
ENDROOT
BRANCH   1   9
HETATM    9  C13 UNL     1     -11.452 -22.161 -13.790  1.00  0.00     0.124 C
BRANCH   9  10
HETATM   10  C12 UNL     1     -11.140 -23.327 -14.659  1.00  0.00     0.042 C
BRANCH  10  11
HETATM   11  C11 UNL     1      -9.788 -23.931 -14.520  1.00  0.00     0.037 C
HETATM   12  C2  UNL     1      -9.632 -25.038 -13.553  1.00  0.00    -0.028 C
HETATM   13  C1  UNL     1     -10.838 -25.867 -13.247  1.00  0.00     0.016 C
HETATM   14  C3  UNL     1      -9.145 -24.592 -12.156  1.00  0.00     0.016 C
HETATM   15  C4  UNL     1      -8.468 -25.975 -13.933  1.00  0.00     0.026 C
HETATM   16  C5  UNL     1      -8.769 -26.499 -15.293  1.00  0.00     0.066 C
HETATM   17 BR1  UNL     1      -7.491 -27.910 -15.687  1.00  0.00    -0.091 Br
HETATM   18  C6  UNL     1      -8.547 -25.337 -16.232  1.00  0.00     0.047 A
HETATM   19  C7  UNL     1      -9.784 -24.838 -17.002  1.00  0.00     0.069 A
HETATM   20  C9  UNL     1      -9.225 -24.103 -15.890  1.00  0.00     0.013 A
HETATM   21  C8  UNL     1     -10.847 -25.851 -17.100  1.00  0.00     0.047 C
HETATM   22  C10 UNL     1      -8.506 -22.814 -16.362  1.00  0.00     0.020 C
HETATM   23 BR2  UNL     1      -8.759 -22.465 -13.656  1.00  0.00    -0.084 Br
BRANCH  19  24
HETATM   24  O1  UNL     1      -9.398 -24.451 -18.321  1.00  0.00    -0.389 OA
ATOM     25  H1  UNL     1     -10.164 -24.435 -18.883  1.00  0.00     0.210 HD
ENDBRANCH  19  24
ENDBRANCH  10  11
ENDBRANCH   9  10
ENDBRANCH   1   9
BRANCH   7  26
HETATM   26  C16 UNL     1      -9.634 -22.666  -9.158  1.00  0.00     0.281 C
BRANCH  26  27
HETATM   27  O3  UNL     1      -8.258 -22.430  -9.345  1.00  0.00    -0.311 OA
BRANCH  27  28
HETATM   28  C17 UNL     1      -7.432 -21.844  -8.409  1.00  0.00     0.285 C
HETATM   29  O4  UNL     1      -7.875 -21.519  -7.296  1.00  0.00    -0.263 OA
BRANCH  28  30
HETATM   30  C18 UNL     1      -5.995 -21.611  -8.762  1.00  0.00     0.348 C
BRANCH  30  31
HETATM   31  N4  UNL     1      -5.140 -22.487  -7.999  1.00  0.00    -0.054 N
HETATM   32  C19 UNL     1      -3.937 -22.751  -8.783  1.00  0.00     0.274 C
HETATM   33  C20 UNL     1      -5.819 -23.729  -7.646  1.00  0.00     0.274 C
BRANCH  31  34
HETATM   34  C21 UNL     1      -4.796 -21.820  -6.761  1.00  0.00     0.350 C
HETATM   35 CL1  UNL     1      -4.463 -20.096  -7.044  1.00  0.00    -0.101 Cl
ENDBRANCH  31  34
ENDBRANCH  30  31
ENDBRANCH  28  30
ENDBRANCH  27  28
ENDBRANCH  26  27
ENDBRANCH   7  26
TORSDOF 10
ENDMDL