MODEL 4
REMARK VINA RESULT: -8.918111162      6.047      7.188
REMARK  8 active torsions:
REMARK  status: ('A' for Active; 'I' for Inactive)
REMARK    1  A    between atoms: C10_10  and  C11_11
REMARK    2  A    between atoms: C11_11  and  C12_12
REMARK       I    between atoms: C12_12  and  N1_14
REMARK    3  A    between atoms: N1_14  and  C13_16
REMARK    4  A    between atoms: C13_16  and  C14_17
REMARK    5  A    between atoms: C14_17  and  C15_18
REMARK    6  A    between atoms: C15_18  and  N2_19
REMARK    7  A    between atoms: N4_29  and  N5_30
REMARK       I    between atoms: N5_30  and  C20_32
REMARK    8  A    between atoms: C20_32  and  C21_34
ROOT
HETATM    1  C1  UNL     1     -10.114 -22.058 -12.100  1.00  0.00     0.018 C
HETATM    2  C2  UNL     1     -11.059 -22.739 -11.170  1.00  0.00    -0.016 C
HETATM    3  C3  UNL     1     -12.197 -21.725 -10.878  1.00  0.00     0.018 C
HETATM    4  C4  UNL     1     -11.748 -23.940 -11.851  1.00  0.00     0.003 A
HETATM    5  C5  UNL     1     -10.882 -25.040 -12.277  1.00  0.00     0.013 A
HETATM    6  C6  UNL     1     -11.075 -24.880 -10.843  1.00  0.00     0.021 A
HETATM    7  C7  UNL     1     -10.659 -23.604 -10.073  1.00  0.00     0.060 C
HETATM    8  C8  UNL     1     -11.786 -23.385  -8.956  1.00  0.00     0.036 C
HETATM    9  C9  UNL     1     -11.413 -24.505  -7.984  1.00  0.00     0.030 C
HETATM   10  C10 UNL     1      -9.977 -24.657  -8.171  1.00  0.00     0.112 C
HETATM   11  N4  UNL     1      -9.582 -23.725  -9.289  1.00  0.00    -0.309 N
ENDROOT
BRANCH  10  12
HETATM   12  C11 UNL     1      -9.503 -26.028  -8.329  1.00  0.00     0.129 C
BRANCH  12  13
HETATM   13  C12 UNL     1      -8.581 -26.362  -7.180  1.00  0.00     0.219 C
HETATM   14  O1  UNL     1      -8.149 -25.471  -6.408  1.00  0.00    -0.274 OA
HETATM   15  N1  UNL     1      -8.213 -27.715  -7.002  1.00  0.00    -0.361 N
ATOM     16  H1  UNL     1      -8.626 -28.387  -7.649  1.00  0.00     0.162 HD
BRANCH  15  17
HETATM   17  C13 UNL     1      -7.332 -28.240  -6.021  1.00  0.00     0.124 C
BRANCH  17  18
HETATM   18  C14 UNL     1      -6.933 -29.639  -6.467  1.00  0.00     0.039 C
BRANCH  18  19
HETATM   19  C15 UNL     1      -5.475 -29.876  -6.326  1.00  0.00     0.122 C
BRANCH  19  20
HETATM   20  N2  UNL     1      -4.836 -30.002  -7.600  1.00  0.00    -0.380 N
HETATM   21  C16 UNL     1      -3.590 -30.100  -7.798  1.00  0.00     0.081 C
HETATM   22  C17 UNL     1      -2.428 -30.115  -6.854  1.00  0.00     0.106 C
HETATM   23  N3  UNL     1      -2.961 -30.267  -9.090  1.00  0.00    -0.316 N
HETATM   24  C18 UNL     1      -1.595 -31.227  -7.454  1.00  0.00     0.181 C
HETATM   25 CL1  UNL     1       0.111 -30.989  -6.990  1.00  0.00    -0.115 Cl
HETATM   26  C19 UNL     1      -1.806 -31.069  -8.910  1.00  0.00     0.241 C
HETATM   27  O2  UNL     1      -1.054 -31.583  -9.772  1.00  0.00    -0.271 OA
ATOM     28  H3  UNL     1      -3.290 -29.878  -9.973  1.00  0.00     0.170 HD
ATOM     29  H2  UNL     1      -5.440 -30.013  -8.423  1.00  0.00     0.160 HD
ENDBRANCH  19  20
ENDBRANCH  18  19
ENDBRANCH  17  18
ENDBRANCH  15  17
ENDBRANCH  12  13
ENDBRANCH  10  12
BRANCH  11  30
HETATM   30  N5  UNL     1      -8.358 -23.351  -9.085  1.00  0.00    -0.269 N
HETATM   31  C20 UNL     1      -7.607 -22.548  -8.228  1.00  0.00     0.260 C
HETATM   32  O3  UNL     1      -7.857 -21.847  -7.269  1.00  0.00    -0.270 OA
ATOM     33  H5  UNL     1      -7.746 -23.786  -9.774  1.00  0.00     0.190 HD
BRANCH  31  34
HETATM   34  C21 UNL     1      -6.058 -22.497  -8.549  1.00  0.00     0.222 C
HETATM   35 BR1  UNL     1      -5.232 -24.106  -7.928  1.00  0.00    -0.069 Br
HETATM   36 BR2  UNL     1      -5.355 -20.964  -7.614  1.00  0.00    -0.069 Br
ENDBRANCH  31  34
ENDBRANCH  11  30
TORSDOF 8
ENDMDL