MODEL 2
REMARK VINA RESULT: -9.915760822      1.654      2.577
REMARK  10 active torsions:
REMARK  status: ('A' for Active; 'I' for Inactive)
REMARK    1  A    between atoms: C2_2  and  C5_5
REMARK    2  A    between atoms: C5_5  and  N1_6
REMARK    3  A    between atoms: C5_5  and  C21_30
REMARK       I    between atoms: N1_6  and  C6_8
REMARK    4  A    between atoms: C6_8  and  C7_10
REMARK    5  A    between atoms: N2_14  and  C11_15
REMARK    6  A    between atoms: C11_15  and  O2_16
REMARK    7  A    between atoms: C11_15  and  C12_18
REMARK       I    between atoms: C21_30  and  N3_32
REMARK    8  A    between atoms: N3_32  and  C22_34
REMARK    9  A    between atoms: C22_34  and  C23_35
REMARK       I    between atoms: C23_35  and  N4_37
REMARK   10  A    between atoms: C24_38  and  C25_39
ROOT
HETATM    1  N1  UNL     1      -7.654 -22.987  -8.962  1.00  0.00    -0.342 N
ATOM      2  H1  UNL     1      -7.832 -21.983  -9.005  1.00  0.00     0.163 HD
HETATM    3  C6  UNL     1      -8.535 -23.856  -9.657  1.00  0.00     0.265 C
HETATM    4  O1  UNL     1      -8.285 -25.065  -9.532  1.00  0.00    -0.266 OA
ENDROOT
BRANCH   1   5
HETATM    5  C5  UNL     1      -6.508 -23.452  -8.192  1.00  0.00     0.184 C
BRANCH   5   6
HETATM    6  C2  UNL     1      -5.420 -22.472  -8.134  1.00  0.00    -0.022 C
HETATM    7  C1  UNL     1      -5.162 -21.907  -6.754  1.00  0.00     0.017 C
HETATM    8  C3  UNL     1      -5.824 -21.304  -9.050  1.00  0.00     0.017 C
HETATM    9  C4  UNL     1      -4.114 -22.963  -8.676  1.00  0.00     0.017 C
ENDBRANCH   5   6
BRANCH   5  10
HETATM   10  C21 UNL     1      -6.988 -23.976  -6.859  1.00  0.00     0.241 C
HETATM   11  O3  UNL     1      -8.020 -23.463  -6.366  1.00  0.00    -0.271 OA
HETATM   12  N3  UNL     1      -6.357 -25.006  -6.140  1.00  0.00    -0.351 N
ATOM     13  H3  UNL     1      -5.513 -25.440  -6.511  1.00  0.00     0.163 HD
BRANCH  12  14
HETATM   14  C22 UNL     1      -6.900 -25.458  -4.872  1.00  0.00     0.225 C
BRANCH  14  15
HETATM   15  C23 UNL     1      -5.952 -26.373  -4.186  1.00  0.00     0.238 C
HETATM   16  O4  UNL     1      -5.506 -26.041  -3.035  1.00  0.00    -0.272 OA
HETATM   17  N4  UNL     1      -5.493 -27.600  -4.717  1.00  0.00    -0.331 N
HETATM   18  C24 UNL     1      -5.888 -28.181  -5.976  1.00  0.00     0.189 C
HETATM   19  C29 UNL     1      -4.500 -28.436  -4.092  1.00  0.00     0.092 A
HETATM   20  C26 UNL     1      -4.831 -29.184  -6.343  1.00  0.00     0.043 C
HETATM   21  C27 UNL     1      -4.094 -29.471  -5.079  1.00  0.00     0.013 A
HETATM   22  C28 UNL     1      -4.803 -29.902  -3.872  1.00  0.00     0.032 A
BRANCH  18  23
HETATM   23  C25 UNL     1      -7.207 -28.821  -5.995  1.00  0.00     0.197 C
HETATM   24  O5  UNL     1      -7.438 -29.856  -5.342  1.00  0.00    -0.646 OA
HETATM   25  O6  UNL     1      -8.218 -28.265  -6.754  1.00  0.00    -0.646 OA
ENDBRANCH  18  23
ENDBRANCH  14  15
ENDBRANCH  12  14
ENDBRANCH   5  10
ENDBRANCH   1   5
BRANCH   3  26
HETATM   26  C7  UNL     1      -9.675 -23.405 -10.474  1.00  0.00     0.087 C
HETATM   27  C8  UNL     1     -10.856 -22.878  -9.785  1.00  0.00     0.056 A
HETATM   28  C9  UNL     1     -12.009 -23.566 -10.590  1.00  0.00     0.023 A
HETATM   29  C18 UNL     1     -11.980 -23.461  -9.111  1.00  0.00    -0.032 A
HETATM   30  C10 UNL     1     -11.358 -24.758 -11.253  1.00  0.00     0.137 C
HETATM   31  N2  UNL     1     -10.049 -24.176 -11.609  1.00  0.00    -0.329 N
HETATM   32  C19 UNL     1     -12.040 -24.697  -8.279  1.00  0.00     0.016 C
HETATM   33  C20 UNL     1     -13.044 -22.445  -8.607  1.00  0.00     0.016 C
BRANCH  31  34
HETATM   34  C11 UNL     1      -9.464 -24.423 -12.844  1.00  0.00     0.123 C
BRANCH  34  35
HETATM   35  O2  UNL     1      -9.018 -25.640 -13.015  1.00  0.00    -0.349 OA
ATOM     36  H2  UNL     1      -8.132 -25.703 -13.349  1.00  0.00     0.219 HD
ENDBRANCH  34  35
BRANCH  34  37
HETATM   37  C12 UNL     1      -9.258 -23.562 -14.003  1.00  0.00     0.074 C
HETATM   38  C13 UNL     1      -9.059 -22.093 -13.727  1.00  0.00     0.027 C
HETATM   39  C14 UNL     1     -10.111 -21.499 -14.638  1.00  0.00     0.094 C
HETATM   40  C15 UNL     1     -11.317 -22.360 -14.233  1.00  0.00     0.190 C
HETATM   41  C17 UNL     1     -10.051 -22.394 -15.860  1.00  0.00     0.257 C
HETATM   42  F1  UNL     1     -12.477 -22.038 -14.861  1.00  0.00    -0.248 F
HETATM   43  C16 UNL     1     -10.507 -23.463 -14.875  1.00  0.00     0.105 C
HETATM   44  F2  UNL     1     -10.961 -22.097 -16.849  1.00  0.00    -0.205 F
HETATM   45  F3  UNL     1      -8.796 -22.679 -16.340  1.00  0.00    -0.205 F
ENDBRANCH  34  37
ENDBRANCH  31  34
ENDBRANCH   3  26
TORSDOF 10
ENDMDL