MODEL 4
REMARK VINA RESULT: -3.878765935      2.024      3.567
REMARK  6 active torsions:
REMARK  status: ('A' for Active; 'I' for Inactive)
REMARK    1  A    between atoms: O1_2  and  C2_3
REMARK    2  A    between atoms: C2_3  and  C3_4
REMARK    3  A    between atoms: C2_3  and  C5_14
REMARK    4  A    between atoms: C3_4  and  N1_5
REMARK    5  A    between atoms: C3_4  and  C4_9
REMARK    6  A    between atoms: C4_9  and  N2_10
ROOT
HETATM    1  C3  UNL     1     -28.065  46.548 -26.113  1.00  0.00     0.237 C
ENDROOT
BRANCH   1   2
HETATM    2  C2  UNL     1     -29.426  46.253 -25.583  1.00  0.00     0.157 C
BRANCH   2   3
HETATM    3  O1  UNL     1     -29.719  47.231 -24.620  1.00  0.00    -0.388 OA
HETATM    4  C1  UNL     1     -29.280  46.913 -23.353  1.00  0.00     0.202 C
ENDBRANCH   2   3
BRANCH   2   5
HETATM    5  C5  UNL     1     -30.505  46.030 -26.574  1.00  0.00     0.017 A
HETATM    6  C6  UNL     1     -31.907  45.774 -26.277  1.00  0.00     0.007 A
HETATM    7  C7  UNL     1     -31.027  44.589 -26.645  1.00  0.00     0.007 A
ENDBRANCH   2   5
ENDBRANCH   1   2
BRANCH   1   8
HETATM    8  N1  UNL     1     -27.574  45.560 -27.049  1.00  0.00    -0.071 N
ATOM      9  H13 UNL     1     -27.129  44.788 -26.553  1.00  0.00     0.274 HD
ATOM     10  H12 UNL     1     -28.350  45.061 -27.483  1.00  0.00     0.274 HD
ATOM     11  H11 UNL     1     -26.947  45.939 -27.759  1.00  0.00     0.274 HD
ENDBRANCH   1   8
BRANCH   1  12
HETATM   12  C4  UNL     1     -27.865  47.973 -26.573  1.00  0.00     0.265 C
BRANCH  12  13
HETATM   13  N2  UNL     1     -26.970  48.628 -25.625  1.00  0.00    -0.077 N
ATOM     14  H23 UNL     1     -27.190  48.404 -24.654  1.00  0.00     0.274 HD
ATOM     15  H22 UNL     1     -26.026  48.243 -25.642  1.00  0.00     0.274 HD
ATOM     16  H21 UNL     1     -26.993  49.630 -25.814  1.00  0.00     0.274 HD
ENDBRANCH  12  13
ENDBRANCH   1  12
TORSDOF 6
ENDMDL