MODEL 3
REMARK VINA RESULT: -4.854733106      1.876      4.291
REMARK  4 active torsions:
REMARK  status: ('A' for Active; 'I' for Inactive)
REMARK    1  A    between atoms: N1_1  and  C1_5
REMARK    2  A    between atoms: C1_5  and  C2_6
REMARK    3  A    between atoms: C2_6  and  C3_7
REMARK    4  A    between atoms: C3_7  and  C4_8
ROOT
HETATM    1  C4  UNL     1     -29.087  46.608 -23.409  1.00  0.00     0.147 C
HETATM    2  C5  UNL     1     -27.699  46.628 -22.861  1.00  0.00     0.264 C
HETATM    3  N2  UNL     1     -27.370  47.962 -22.377  1.00  0.00    -0.071 N
ATOM      4  H21 UNL     1     -27.379  48.670 -23.111  1.00  0.00     0.277 HD
ATOM      5  H22 UNL     1     -26.389  48.065 -22.114  1.00  0.00     0.277 HD
HETATM    6  C6  UNL     1     -28.290  48.246 -21.291  1.00  0.00     0.258 C
HETATM    7  C7  UNL     1     -29.418  47.268 -21.214  1.00  0.00     0.195 C
HETATM    8  O1  UNL     1     -29.976  46.933 -22.419  1.00  0.00    -0.383 OA
ENDROOT
BRANCH   1   9
HETATM    9  C3  UNL     1     -29.313  47.473 -24.593  1.00  0.00     0.035 C
BRANCH   9  10
HETATM   10  C2  UNL     1     -29.234  46.765 -25.917  1.00  0.00     0.030 C
BRANCH  10  11
HETATM   11  C1  UNL     1     -27.842  46.753 -26.495  1.00  0.00     0.230 C
BRANCH  11  12
HETATM   12  N1  UNL     1     -27.289  48.094 -26.262  1.00  0.00    -0.079 N
ATOM     13  H13 UNL     1     -27.199  48.650 -27.113  1.00  0.00     0.274 HD
ATOM     14  H12 UNL     1     -27.930  48.719 -25.772  1.00  0.00     0.274 HD
ATOM     15  H11 UNL     1     -26.405  47.957 -25.772  1.00  0.00     0.274 HD
ENDBRANCH  11  12
ENDBRANCH  10  11
ENDBRANCH   9  10
ENDBRANCH   1   9
TORSDOF 4
ENDMDL