MODEL 2
REMARK VINA RESULT: -4.744424636      0.727      1.550
REMARK  4 active torsions:
REMARK  status: ('A' for Active; 'I' for Inactive)
REMARK    1  A    between atoms: N1_2  and  N2_4
REMARK    2  A    between atoms: N2_4  and  C3_6
REMARK    3  A    between atoms: C3_6  and  C4_7
REMARK    4  A    between atoms: C7_10  and  N3_11
ROOT
HETATM    1  C4  UNL     1     -29.400  47.294 -23.055  1.00  0.00     0.031 C
HETATM    2  C5  UNL     1     -29.406  48.530 -22.187  1.00  0.00     0.010 C
HETATM    3  C6  UNL     1     -28.638  47.823 -21.091  1.00  0.00     0.034 C
HETATM    4  C7  UNL     1     -28.491  46.651 -22.020  1.00  0.00     0.188 C
ENDROOT
BRANCH   1   5
HETATM    5  C3  UNL     1     -28.712  47.566 -24.371  1.00  0.00     0.119 C
BRANCH   5   6
HETATM    6  N2  UNL     1     -29.705  47.492 -25.463  1.00  0.00    -0.240 NA
HETATM    7  C2  UNL     1     -30.417  46.236 -25.193  1.00  0.00     0.135 C
BRANCH   6   8
HETATM    8  N1  UNL     1     -28.930  47.358 -26.633  1.00  0.00    -0.359 N
HETATM    9  C1  UNL     1     -27.733  46.603 -26.478  1.00  0.00     0.161 C
ATOM     10  H1  UNL     1     -29.206  47.772 -27.524  1.00  0.00     0.173 HD
ENDBRANCH   6   8
ENDBRANCH   5   6
ENDBRANCH   1   5
BRANCH   4  11
HETATM   11  N3  UNL     1     -27.120  46.442 -22.432  1.00  0.00    -0.075 N
ATOM     12  H33 UNL     1     -26.485  46.877 -21.763  1.00  0.00     0.274 HD
ATOM     13  H32 UNL     1     -26.867  45.461 -22.311  1.00  0.00     0.274 HD
ATOM     14  H31 UNL     1     -26.891  46.747 -23.378  1.00  0.00     0.274 HD
ENDBRANCH   4  11
TORSDOF 4
ENDMDL