MODEL 4
REMARK VINA RESULT: -4.004124384      1.982      3.704
REMARK  3 active torsions:
REMARK  status: ('A' for Active; 'I' for Inactive)
REMARK    1  A    between atoms: C3_3  and  C4_4
REMARK    2  A    between atoms: C3_3  and  C6_7
REMARK    3  A    between atoms: C4_4  and  O1_5
ROOT
HETATM    1  C1  UNL     1     -29.323  47.515 -21.308  1.00  0.00     0.012 C
HETATM    2  C2  UNL     1     -29.350  47.550 -22.513  1.00  0.00    -0.106 C
HETATM    3  C3  UNL     1     -29.386  47.619 -24.001  1.00  0.00     0.146 C
ENDROOT
BRANCH   3   4
HETATM    4  C4  UNL     1     -30.350  46.548 -24.437  1.00  0.00     0.188 C
BRANCH   4   5
HETATM    5  O1  UNL     1     -30.777  46.668 -25.745  1.00  0.00    -0.395 OA
HETATM    6  C5  UNL     1     -31.302  45.482 -26.246  1.00  0.00     0.201 C
ENDBRANCH   4   5
ENDBRANCH   3   4
BRANCH   3   7
HETATM    7  C6  UNL     1     -27.972  47.213 -24.446  1.00  0.00     0.400 C
HETATM    8  N1  UNL     1     -27.438  48.336 -25.187  1.00  0.00    -0.043 N
HETATM    9  C7  UNL     1     -27.704  48.004 -26.562  1.00  0.00     0.262 C
ATOM     10  H12 UNL     1     -27.803  49.243 -24.897  1.00  0.00     0.279 HD
ATOM     11  H11 UNL     1     -26.459  48.543 -24.989  1.00  0.00     0.279 HD
HETATM   12  C8  UNL     1     -27.430  46.506 -26.576  1.00  0.00     0.262 C
HETATM   13  N2  UNL     1     -27.942  46.059 -25.273  1.00  0.00    -0.043 N
ATOM     14  H22 UNL     1     -27.413  45.285 -24.872  1.00  0.00     0.279 HD
ATOM     15  H21 UNL     1     -28.839  45.579 -25.332  1.00  0.00     0.279 HD
ENDBRANCH   3   7
TORSDOF 3
ENDMDL