MODEL 1
REMARK VINA RESULT: -4.752161030      0.000      0.000
REMARK  5 active torsions:
REMARK  status: ('A' for Active; 'I' for Inactive)
REMARK    1  A    between atoms: C2_2  and  N1_3
REMARK    2  A    between atoms: C2_2  and  C6_9
REMARK    3  A    between atoms: N1_3  and  C3_6
REMARK    4  A    between atoms: C6_9  and  N2_10
REMARK    5  A    between atoms: C6_9  and  C7_14
ROOT
HETATM    1  C1  UNL     1     -27.335  46.442 -22.652  1.00  0.00     0.042 C
HETATM    2  C2  UNL     1     -28.284  47.528 -23.081  1.00  0.00     0.219 C
ENDROOT
BRANCH   2   3
HETATM    3  N1  UNL     1     -29.368  47.014 -23.859  1.00  0.00    -0.065 N
ATOM      4  H12 UNL     1     -29.449  46.006 -23.734  1.00  0.00     0.278 HD
ATOM      5  H11 UNL     1     -30.261  47.311 -23.466  1.00  0.00     0.278 HD
BRANCH   3   6
HETATM    6  C3  UNL     1     -29.300  47.341 -25.243  1.00  0.00     0.186 A
HETATM    7  C4  UNL     1     -29.939  46.247 -26.136  1.00  0.00     0.035 A
HETATM    8  C5  UNL     1     -28.485  46.647 -26.236  1.00  0.00     0.035 A
ENDBRANCH   3   6
ENDBRANCH   2   3
BRANCH   2   9
HETATM    9  C6  UNL     1     -28.705  48.373 -21.923  1.00  0.00     0.274 C
BRANCH   9  10
HETATM   10  N2  UNL     1     -27.940  48.200 -20.731  1.00  0.00    -0.067 N
ATOM     11  H23 UNL     1     -27.950  47.220 -20.448  1.00  0.00     0.275 HD
ATOM     12  H22 UNL     1     -26.946  48.319 -20.932  1.00  0.00     0.275 HD
ATOM     13  H21 UNL     1     -28.212  48.794 -19.948  1.00  0.00     0.275 HD
ENDBRANCH   9  10
BRANCH   9  14
HETATM   14  C7  UNL     1     -30.168  48.241 -21.664  1.00  0.00     0.266 C
HETATM   15  O1  UNL     1     -30.569  47.315 -21.013  1.00  0.00    -0.305 OA
ENDBRANCH   9  14
ENDBRANCH   2   9
TORSDOF 5
ENDMDL