MODEL 3
REMARK VINA RESULT: -4.902125912      1.133      4.080
REMARK  4 active torsions:
REMARK  status: ('A' for Active; 'I' for Inactive)
REMARK    1  A    between atoms: C2_2  and  C3_3
REMARK    2  A    between atoms: C3_3  and  N1_4
REMARK    3  A    between atoms: C4_9  and  N5_10
REMARK    4  A    between atoms: N5_10  and  C5_12
ROOT
HETATM    1  N1  UNL     1     -29.053  46.637 -24.628  1.00  0.00    -0.105 N
HETATM    2  N2  UNL     1     -28.126  46.805 -25.561  1.00  0.00     0.009 NA
HETATM    3  N3  UNL     1     -26.969  46.971 -24.942  1.00  0.00     0.007 NA
HETATM    4  N4  UNL     1     -27.177  46.906 -23.632  1.00  0.00    -0.116 N
ATOM      5  H4  UNL     1     -26.460  47.002 -22.913  1.00  0.00     0.202 HD
HETATM    6  C4  UNL     1     -28.502  46.693 -23.404  1.00  0.00     0.710 A
ENDROOT
BRANCH   6   7
HETATM    7  N5  UNL     1     -29.147  46.560 -22.145  1.00  0.00    -0.200 N
ATOM      8  H5  UNL     1     -29.564  45.665 -21.888  1.00  0.00     0.183 HD
BRANCH   7   9
HETATM    9  C5  UNL     1     -29.225  47.645 -21.242  1.00  0.00     0.096 C
HETATM   10  C6  UNL     1     -29.970  48.696 -21.505  1.00  0.00     0.030 C
ENDBRANCH   7   9
ENDBRANCH   6   7
BRANCH   1  11
HETATM   11  C3  UNL     1     -30.459  46.423 -24.884  1.00  0.00     0.192 C
BRANCH  11  12
HETATM   12  C2  UNL     1     -30.632  45.907 -26.278  1.00  0.00    -0.015 C
HETATM   13  C1  UNL     1     -31.596  45.048 -26.592  1.00  0.00     0.008 C
ENDBRANCH  11  12
ENDBRANCH   1  11
TORSDOF 4
ENDMDL