MODEL 5
REMARK VINA RESULT: -4.500363699      2.374      4.225
REMARK  4 active torsions:
REMARK  status: ('A' for Active; 'I' for Inactive)
REMARK    1  A    between atoms: N1_2  and  C2_5
REMARK    2  A    between atoms: C2_5  and  C3_6
REMARK    3  A    between atoms: C3_6  and  N2_7
REMARK    4  A    between atoms: C3_6  and  C4_11
ROOT
HETATM    1  C3  UNL     1     -27.699  47.248 -23.112  1.00  0.00     0.218 C
ENDROOT
BRANCH   1   2
HETATM    2  C2  UNL     1     -28.641  46.925 -21.956  1.00  0.00     0.264 C
BRANCH   2   3
HETATM    3  N1  UNL     1     -28.837  48.142 -21.159  1.00  0.00    -0.077 N
HETATM    4  C1  UNL     1     -30.192  48.628 -21.316  1.00  0.00     0.267 C
ATOM      5  H12 UNL     1     -28.147  48.859 -21.380  1.00  0.00     0.276 HD
ATOM      6  H11 UNL     1     -28.594  47.999 -20.178  1.00  0.00     0.276 HD
ENDBRANCH   2   3
ENDBRANCH   1   2
BRANCH   1   7
HETATM    7  N2  UNL     1     -27.032  48.475 -22.735  1.00  0.00    -0.073 N
ATOM      8  H23 UNL     1     -26.400  48.834 -23.450  1.00  0.00     0.274 HD
ATOM      9  H22 UNL     1     -27.651  49.285 -22.704  1.00  0.00     0.274 HD
ATOM     10  H21 UNL     1     -26.574  48.274 -21.846  1.00  0.00     0.274 HD
ENDBRANCH   1   7
BRANCH   1  11
HETATM   11  C4  UNL     1     -28.418  47.354 -24.407  1.00  0.00     0.076 C
HETATM   12  C5  UNL     1     -28.072  46.299 -25.377  1.00  0.00     0.133 C
HETATM   13  C6  UNL     1     -28.514  47.238 -26.459  1.00  0.00     0.065 C
HETATM   14  O1  UNL     1     -26.835  46.894 -25.513  1.00  0.00    -0.379 OA
HETATM   15  C7  UNL     1     -27.650  48.003 -25.493  1.00  0.00     0.133 C
ENDBRANCH   1  11
TORSDOF 4
ENDMDL