MODEL 5
REMARK VINA RESULT: -4.464987472      1.501      2.589
REMARK  4 active torsions:
REMARK  status: ('A' for Active; 'I' for Inactive)
REMARK    1  A    between atoms: C2_2  and  C3_3
REMARK    2  A    between atoms: C2_2  and  N2_8
REMARK    3  A    between atoms: C3_3  and  N1_4
REMARK    4  A    between atoms: N2_8  and  C7_10
ROOT
HETATM    1  C1  UNL     1     -30.991  45.834 -26.076  1.00  0.00     0.034 C
HETATM    2  C2  UNL     1     -29.812  46.644 -25.506  1.00  0.00     0.106 C
ENDROOT
BRANCH   2   3
HETATM    3  C3  UNL     1     -29.928  46.541 -24.035  1.00  0.00     0.296 C
BRANCH   3   4
HETATM    4  N1  UNL     1     -29.009  47.219 -23.247  1.00  0.00     0.090 N
HETATM    5  C4  UNL     1     -28.068  46.599 -22.404  1.00  0.00     0.274 C
HETATM    6  C5  UNL     1     -28.067  47.891 -21.572  1.00  0.00     0.060 C
HETATM    7  C6  UNL     1     -29.366  48.227 -22.323  1.00  0.00     0.274 C
ENDBRANCH   3   4
ENDBRANCH   2   3
BRANCH   2   8
HETATM    8  N2  UNL     1     -28.632  46.069 -26.090  1.00  0.00    -0.381 N
ATOM      9  H2  UNL     1     -28.587  45.066 -26.267  1.00  0.00     0.160 HD
BRANCH   8  10
HETATM   10  C7  UNL     1     -27.527  46.900 -26.421  1.00  0.00     0.169 C
HETATM   11  N3  UNL     1     -27.486  48.175 -26.257  1.00  0.00    -0.396 N
ATOM     12  H32 UNL     1     -28.319  48.608 -25.858  1.00  0.00     0.156 HD
ATOM     13  H31 UNL     1     -26.694  48.772 -26.495  1.00  0.00     0.156 HD
ENDBRANCH   8  10
ENDBRANCH   2   8
TORSDOF 4
ENDMDL