MODEL 4
REMARK VINA RESULT: -6.762251397      3.083      4.850
REMARK  14 active torsions:
REMARK  status: ('A' for Active; 'I' for Inactive)
REMARK    1  A    between atoms: N1_1  and  C1_4
REMARK    2  A    between atoms: C2_7  and  N3_8
REMARK    3  A    between atoms: N3_8  and  N4_10
REMARK    4  A    between atoms: N8_22  and  C5_23
REMARK    5  A    between atoms: C9_32  and  N12_33
REMARK    6  A    between atoms: N12_33  and  C10_34
REMARK    7  A    between atoms: N12_33  and  C12_38
REMARK    8  A    between atoms: C10_34  and  C11_35
REMARK    9  A    between atoms: C11_35  and  O2_36
REMARK   10  A    between atoms: C12_38  and  C13_39
REMARK   11  A    between atoms: C12_38  and  C14_42
REMARK   12  A    between atoms: C13_39  and  O3_40
REMARK   13  A    between atoms: C14_42  and  N13_43
REMARK   14  A    between atoms: C14_42  and  O4_47
ROOT
HETATM    1  C5  UNL     1      35.926-182.109  23.071  1.00  0.00     0.103 A
HETATM    2  C6  UNL     1      37.123-182.506  23.671  1.00  0.00     0.122 A
HETATM    3  N9  UNL     1      36.910-183.162  24.801  1.00  0.00    -0.359 N
ATOM      4  H9  UNL     1      37.645-183.541  25.399  1.00  0.00     0.165 HD
HETATM    5  C7  UNL     1      35.597-183.262  25.051  1.00  0.00     0.104 A
HETATM    6  C8  UNL     1      34.814-183.812  26.040  1.00  0.00     0.161 A
HETATM    7  N10 UNL     1      35.469-184.481  27.109  1.00  0.00    -0.080 NA
HETATM    8  N11 UNL     1      33.487-183.688  25.920  1.00  0.00    -0.176 N
ATOM      9  H11 UNL     1      32.908-184.096  26.654  1.00  0.00     0.185 HD
HETATM   10  C9  UNL     1      32.867-183.075  24.920  1.00  0.00     0.682 A
HETATM   11  N14 UNL     1      33.602-182.529  23.939  1.00  0.00    -0.187 N
ATOM     12  H14 UNL     1      33.119-182.059  23.172  1.00  0.00     0.184 HD
HETATM   13  C15 UNL     1      34.943-182.573  23.920  1.00  0.00     0.109 A
ENDROOT
BRANCH   1  14
HETATM   14  N8  UNL     1      35.750-181.411  21.857  1.00  0.00    -0.232 N
HETATM   15  N7  UNL     1      35.718-181.940  20.615  1.00  0.00    -0.234 N
HETATM   16  N6  UNL     1      35.534-180.981  19.734  1.00  0.00    -0.279 N
ATOM     17  H7  UNL     1      35.820-182.931  20.394  1.00  0.00     0.209 HD
HETATM   18  C4  UNL     1      35.442-179.814  20.352  1.00  0.00     0.150 A
ATOM     19  H6  UNL     1      35.472-181.116  18.725  1.00  0.00     0.189 HD
HETATM   20  C3  UNL     1      35.247-178.572  19.784  1.00  0.00     0.290 C
HETATM   21  C16 UNL     1      35.582-180.096  21.716  1.00  0.00     0.136 A
HETATM   22  N5  UNL     1      34.838-177.455  20.416  1.00  0.00    -0.153 N
HETATM   23  O1  UNL     1      35.493-178.537  18.549  1.00  0.00    -0.265 OA
HETATM   24  C2  UNL     1      34.474-177.281  21.717  1.00  0.00     0.701 C
ATOM     25  H5  UNL     1      34.795-176.617  19.835  1.00  0.00     0.187 HD
HETATM   26  N2  UNL     1      34.891-177.995  22.797  1.00  0.00    -0.173 N
HETATM   27  C1  UNL     1      35.553-179.173  22.756  1.00  0.00     0.146 C
ATOM     28  H2  UNL     1      34.685-177.607  23.719  1.00  0.00     0.186 HD
BRANCH  24  29
HETATM   29  N3  UNL     1      33.636-176.326  21.931  1.00  0.00    -0.138 N
ATOM     30  H3  UNL     1      33.287-176.149  22.873  1.00  0.00     0.205 HD
BRANCH  29  31
HETATM   31  N4  UNL     1      33.210-175.537  20.870  1.00  0.00    -0.331 N
ATOM     32  H42 UNL     1      32.453-174.869  21.018  1.00  0.00     0.177 HD
ATOM     33  H41 UNL     1      33.655-175.636  19.958  1.00  0.00     0.177 HD
ENDBRANCH  29  31
ENDBRANCH  24  29
BRANCH  27  34
HETATM   34  N1  UNL     1      36.245-179.516  23.771  1.00  0.00    -0.383 N
ATOM     35  H12 UNL     1      35.705-179.594  24.633  1.00  0.00     0.157 HD
ATOM     36  H11 UNL     1      37.244-179.680  23.644  1.00  0.00     0.157 HD
ENDBRANCH  27  34
ENDBRANCH   1  14
BRANCH  10  37
HETATM   37  N12 UNL     1      31.400-182.949  24.868  1.00  0.00    -0.204 N
BRANCH  37  38
HETATM   38  C10 UNL     1      30.845-182.222  25.947  1.00  0.00     0.168 C
BRANCH  38  39
HETATM   39  C11 UNL     1      30.106-182.944  27.015  1.00  0.00     0.184 C
BRANCH  39  40
HETATM   40  O2  UNL     1      30.650-184.191  27.312  1.00  0.00    -0.399 OA
ATOM     41  H2  UNL     1      30.557-184.431  28.226  1.00  0.00     0.209 HD
ENDBRANCH  39  40
ENDBRANCH  38  39
ENDBRANCH  37  38
BRANCH  37  42
HETATM   42  C12 UNL     1      30.799-183.608  23.771  1.00  0.00     0.181 C
BRANCH  42  43
HETATM   43  C13 UNL     1      31.648-183.435  22.487  1.00  0.00     0.194 C
BRANCH  43  44
HETATM   44  O3  UNL     1      31.279-182.211  21.942  1.00  0.00    -0.399 OA
ATOM     45  H3  UNL     1      31.564-182.228  21.035  1.00  0.00     0.209 HD
ENDBRANCH  43  44
ENDBRANCH  42  43
BRANCH  42  46
HETATM   46  C14 UNL     1      30.371-185.006  23.845  1.00  0.00     0.341 C
BRANCH  46  47
HETATM   47  N13 UNL     1      30.119-185.630  22.543  1.00  0.00    -0.051 N
ATOM     48 3H13 UNL     1      29.741-184.946  21.889  1.00  0.00     0.277 HD
ATOM     49 2H13 UNL     1      30.999-185.849  22.078  1.00  0.00     0.277 HD
ATOM     50 1H13 UNL     1      29.521-186.456  22.581  1.00  0.00     0.277 HD
ENDBRANCH  46  47
BRANCH  46  51
HETATM   51  O4  UNL     1      29.357-185.277  24.731  1.00  0.00    -0.368 OA
ATOM     52  H4  UNL     1      28.751-184.565  24.899  1.00  0.00     0.212 HD
ENDBRANCH  46  51
ENDBRANCH  42  46
ENDBRANCH  37  42
ENDBRANCH  10  37
TORSDOF 14
ENDMDL