MODEL 5
REMARK VINA RESULT: -6.897178412      5.528      9.476
REMARK  15 active torsions:
REMARK  status: ('A' for Active; 'I' for Inactive)
REMARK    1  A    between atoms: C2_2  and  O1_4
REMARK    2  A    between atoms: C2_2  and  N1_6
REMARK    3  A    between atoms: N1_6  and  C4_8
REMARK    4  A    between atoms: C5_10  and  C6_11
REMARK    5  A    between atoms: C8_15  and  C9_16
REMARK    6  A    between atoms: C9_16  and  O3_17
REMARK    7  A    between atoms: C9_16  and  O4_19
REMARK    8  A    between atoms: C10_22  and  C11_23
REMARK    9  A    between atoms: C11_23  and  N3_24
REMARK   10  A    between atoms: C11_23  and  C12_28
REMARK   11  A    between atoms: C12_28  and  N4_29
REMARK   12  A    between atoms: C12_28  and  O6_33
REMARK   13  A    between atoms: C13_35  and  N5_36
REMARK   14  A    between atoms: C14_39  and  C15_40
REMARK       I    between atoms: C15_40  and  N6_42
REMARK   15  A    between atoms: N6_42  and  S1_44
ROOT
HETATM    1  C4  UNL     1      32.348-185.401  20.567  1.00  0.00     0.164 A
HETATM    2  O2  UNL     1      32.216-186.093  19.467  1.00  0.00    -0.288 OA
HETATM    3  C5  UNL     1      32.401-185.620  18.231  1.00  0.00     0.140 A
HETATM    4  C10 UNL     1      32.763-184.321  18.116  1.00  0.00     0.042 A
HETATM    5  C13 UNL     1      32.907-183.510  19.256  1.00  0.00     0.057 A
HETATM    6  C14 UNL     1      32.699-184.075  20.533  1.00  0.00     0.110 A
ENDROOT
BRANCH   4   7
HETATM    7  C11 UNL     1      33.135-183.666  16.863  1.00  0.00     0.277 C
BRANCH   7   8
HETATM    8  N3  UNL     1      32.209-183.482  15.827  1.00  0.00    -0.067 N
ATOM      9  H33 UNL     1      31.490-184.200  15.919  1.00  0.00     0.275 HD
ATOM     10  H32 UNL     1      31.684-182.630  16.023  1.00  0.00     0.275 HD
ATOM     11  H31 UNL     1      32.499-183.453  14.850  1.00  0.00     0.275 HD
ENDBRANCH   7   8
BRANCH   7  12
HETATM   12  C12 UNL     1      34.387-184.224  16.173  1.00  0.00     0.351 C
BRANCH  12  13
HETATM   13  N4  UNL     1      33.930-184.778  14.867  1.00  0.00    -0.051 N
ATOM     14  H43 UNL     1      34.300-185.708  14.669  1.00  0.00     0.277 HD
ATOM     15  H42 UNL     1      32.942-185.033  14.857  1.00  0.00     0.277 HD
ATOM     16  H41 UNL     1      34.176-184.085  14.161  1.00  0.00     0.277 HD
ENDBRANCH  12  13
BRANCH  12  17
HETATM   17  O6  UNL     1      35.544-183.626  16.075  1.00  0.00    -0.368 OA
ATOM     18  H6  UNL     1      35.992-183.155  16.767  1.00  0.00     0.212 HD
ENDBRANCH  12  17
ENDBRANCH   7  12
ENDBRANCH   4   7
BRANCH   3  19
HETATM   19  C6  UNL     1      32.155-186.577  17.171  1.00  0.00     0.183 A
HETATM   20  N2  UNL     1      32.630-187.764  16.946  1.00  0.00    -0.342 N
HETATM   21  C7  UNL     1      32.149-188.335  15.807  1.00  0.00     0.128 A
ATOM     22  H2  UNL     1      33.300-188.224  17.563  1.00  0.00     0.167 HD
HETATM   23  C8  UNL     1      31.297-187.367  15.323  1.00  0.00     0.125 A
HETATM   24  O5  UNL     1      31.316-186.334  16.145  1.00  0.00    -0.289 OA
BRANCH  23  25
HETATM   25  C9  UNL     1      30.513-187.519  14.068  1.00  0.00     0.314 C
BRANCH  25  26
HETATM   26  O3  UNL     1      29.332-188.221  14.247  1.00  0.00    -0.365 OA
ATOM     27  H3  UNL     1      28.982-188.574  13.437  1.00  0.00     0.213 HD
ENDBRANCH  25  26
BRANCH  25  28
HETATM   28  O4  UNL     1      30.233-186.267  13.533  1.00  0.00    -0.365 OA
ATOM     29  H4  UNL     1      30.565-186.214  12.644  1.00  0.00     0.213 HD
ENDBRANCH  25  28
ENDBRANCH  23  25
ENDBRANCH   3  19
BRANCH   5  30
HETATM   30  N5  UNL     1      32.892-182.227  19.186  1.00  0.00    -0.398 N
ATOM     31  H52 UNL     1      33.671-181.788  18.696  1.00  0.00     0.156 HD
ATOM     32  H51 UNL     1      32.304-181.659  19.796  1.00  0.00     0.156 HD
ENDBRANCH   5  30
BRANCH   6  33
HETATM   33  C15 UNL     1      32.907-183.271  21.715  1.00  0.00     0.273 C
HETATM   34  O7  UNL     1      32.080-182.317  21.998  1.00  0.00    -0.266 OA
HETATM   35  N6  UNL     1      33.932-183.361  22.687  1.00  0.00    -0.231 N
ATOM     36  H6  UNL     1      34.650-184.078  22.586  1.00  0.00     0.184 HD
BRANCH  35  37
HETATM   37  S1  UNL     1      34.002-182.271  24.062  1.00  0.00     0.211 S
HETATM   38  O8  UNL     1      32.653-182.102  24.692  1.00  0.00    -0.578 OA
HETATM   39  O9  UNL     1      35.024-182.819  25.018  1.00  0.00    -0.578 OA
HETATM   40  O10 UNL     1      34.535-180.784  23.462  1.00  0.00    -0.578 OA
ENDBRANCH  35  37
ENDBRANCH   6  33
BRANCH   1  41
HETATM   41  N1  UNL     1      32.115-186.065  21.804  1.00  0.00    -0.339 N
ATOM     42  H1  UNL     1      32.888-186.461  22.338  1.00  0.00     0.164 HD
BRANCH  41  43
HETATM   43  C2  UNL     1      30.719-186.169  22.300  1.00  0.00     0.125 C
HETATM   44  C1  UNL     1      30.535-185.258  23.519  1.00  0.00     0.070 C
HETATM   45  C3  UNL     1      30.431-187.582  22.737  1.00  0.00     0.070 C
BRANCH  43  46
HETATM   46  O1  UNL     1      29.854-185.684  21.339  1.00  0.00    -0.372 OA
ATOM     47  H1  UNL     1      30.349-185.678  20.528  1.00  0.00     0.212 HD
ENDBRANCH  43  46
ENDBRANCH  41  43
ENDBRANCH   1  41
TORSDOF 15
ENDMDL