MODEL 2
REMARK VINA RESULT: -8.549711160      4.486      6.867
REMARK  14 active torsions:
REMARK  status: ('A' for Active; 'I' for Inactive)
REMARK    1  A    between atoms: C2_2  and  C4_4
REMARK       I    between atoms: C4_4  and  N1_6
REMARK    2  A    between atoms: N1_6  and  C5_8
REMARK    3  A    between atoms: C5_8  and  C6_9
REMARK    4  A    between atoms: C5_8  and  C16_48
REMARK    5  A    between atoms: C7_12  and  C8_13
REMARK    6  A    between atoms: C8_13  and  O2_14
REMARK    7  A    between atoms: C8_13  and  O3_16
REMARK    8  A    between atoms: C9_19  and  C10_20
REMARK    9  A    between atoms: C10_20  and  N3_21
REMARK   10  A    between atoms: C12_29  and  N7_30
REMARK   11  A    between atoms: C13_35  and  N9_36
REMARK   12  A    between atoms: N9_36  and  N10_38
REMARK   13  A    between atoms: N11_43  and  N12_45
REMARK   14  A    between atoms: C16_48  and  O5_50
ROOT
HETATM    1  N3  UNL     1      33.004-183.135  24.468  1.00  0.00    -0.254 N
HETATM    2  N4  UNL     1      32.919-183.610  25.711  1.00  0.00    -0.237 N
ATOM      3  H4  UNL     1      31.988-183.741  26.106  1.00  0.00     0.208 HD
HETATM    4  N5  UNL     1      33.955-183.923  26.465  1.00  0.00    -0.269 N
ATOM      5  H5  UNL     1      33.816-184.283  27.410  1.00  0.00     0.190 HD
HETATM    6  C11 UNL     1      35.216-183.761  25.967  1.00  0.00     0.154 A
HETATM    7  N6  UNL     1      36.295-184.073  26.726  1.00  0.00    -0.174 N
ATOM      8  H6  UNL     1      36.178-184.433  27.672  1.00  0.00     0.186 HD
HETATM    9  C12 UNL     1      37.521-183.898  26.208  1.00  0.00     0.679 A
HETATM   10  N8  UNL     1      37.638-183.419  24.951  1.00  0.00    -0.174 N
ATOM     11  H8  UNL     1      38.575-183.290  24.569  1.00  0.00     0.186 HD
HETATM   12  C13 UNL     1      36.583-183.101  24.174  1.00  0.00     0.153 A
HETATM   13  C14 UNL     1      35.319-183.277  24.696  1.00  0.00     0.102 A
HETATM   14  C15 UNL     1      34.187-182.949  23.908  1.00  0.00     0.156 A
HETATM   15  N11 UNL     1      34.439-182.524  22.732  1.00  0.00    -0.290 N
ATOM     16  H11 UNL     1      35.435-182.460  22.518  1.00  0.00     0.188 HD
ENDROOT
BRANCH   1  17
HETATM   17  C10 UNL     1      31.760-182.836  23.803  1.00  0.00     0.219 C
BRANCH  17  18
HETATM   18  C9  UNL     1      30.968-184.104  23.702  1.00  0.00     0.100 A
HETATM   19  C6  UNL     1      29.860-184.469  24.433  1.00  0.00     0.068 A
HETATM   20  N2  UNL     1      29.529-185.706  23.958  1.00  0.00    -0.336 N
HETATM   21  C7  UNL     1      30.380-186.060  23.006  1.00  0.00     0.180 A
ATOM     22  H2  UNL     1      28.746-186.272  24.285  1.00  0.00     0.167 HD
HETATM   23  O4  UNL     1      31.231-185.091  22.868  1.00  0.00    -0.293 OA
BRANCH  19  24
HETATM   24  C5  UNL     1      29.202-183.669  25.461  1.00  0.00     0.165 C
BRANCH  24  25
HETATM   25  N1  UNL     1      29.311-184.192  26.799  1.00  0.00    -0.348 N
HETATM   26  C4  UNL     1      30.065-183.564  27.818  1.00  0.00     0.221 C
HETATM   27  O1  UNL     1      30.661-182.496  27.527  1.00  0.00    -0.273 OA
ATOM     28  H1  UNL     1      28.820-185.058  27.023  1.00  0.00     0.163 HD
BRANCH  26  29
HETATM   29  C2  UNL     1      30.189-184.085  29.189  1.00  0.00     0.070 C
HETATM   30  C1  UNL     1      31.187-185.209  29.288  1.00  0.00     0.019 C
HETATM   31  C3  UNL     1      30.639-182.975  30.111  1.00  0.00     0.019 C
ENDBRANCH  26  29
ENDBRANCH  24  25
BRANCH  24  32
HETATM   32  C16 UNL     1      27.733-183.433  25.158  1.00  0.00     0.142 C
HETATM   33  C17 UNL     1      27.012-182.667  26.223  1.00  0.00     0.042 C
BRANCH  32  34
HETATM   34  O5  UNL     1      27.154-184.688  24.999  1.00  0.00    -0.394 OA
ATOM     35  H5  UNL     1      27.168-184.877  24.069  1.00  0.00     0.210 HD
ENDBRANCH  32  34
ENDBRANCH  24  32
ENDBRANCH  19  24
BRANCH  21  36
HETATM   36  C8  UNL     1      30.444-187.309  22.183  1.00  0.00     0.331 C
BRANCH  36  37
HETATM   37  O2  UNL     1      31.152-187.030  20.999  1.00  0.00    -0.364 OA
ATOM     38  H2  UNL     1      30.548-186.666  20.363  1.00  0.00     0.213 HD
ENDBRANCH  36  37
BRANCH  36  39
HETATM   39  O3  UNL     1      29.145-187.639  21.822  1.00  0.00    -0.364 OA
ATOM     40  H3  UNL     1      29.057-187.473  20.891  1.00  0.00     0.213 HD
ENDBRANCH  36  39
ENDBRANCH  21  36
ENDBRANCH  17  18
ENDBRANCH   1  17
BRANCH  15  41
HETATM   41  N12 UNL     1      33.634-182.144  21.717  1.00  0.00    -0.344 N
ATOM     42 2H12 UNL     1      32.654-182.371  21.885  1.00  0.00     0.176 HD
ATOM     43 1H12 UNL     1      33.828-181.679  20.830  1.00  0.00     0.176 HD
ENDBRANCH  15  41
BRANCH  12  44
HETATM   44  N9  UNL     1      36.698-182.643  22.987  1.00  0.00    -0.291 N
ATOM     45  H9  UNL     1      35.889-182.193  22.562  1.00  0.00     0.188 HD
BRANCH  44  46
HETATM   46  N10 UNL     1      37.865-182.728  22.249  1.00  0.00    -0.344 N
ATOM     47 2H10 UNL     1      38.645-183.238  22.665  1.00  0.00     0.176 HD
ATOM     48 1H10 UNL     1      37.975-182.310  21.326  1.00  0.00     0.176 HD
ENDBRANCH  44  46
ENDBRANCH  12  44
BRANCH   9  49
HETATM   49  N7  UNL     1      38.583-184.190  26.922  1.00  0.00    -0.234 N
ATOM     50  H72 UNL     1      38.764-185.146  27.228  1.00  0.00     0.174 HD
ATOM     51  H71 UNL     1      39.243-183.456  27.177  1.00  0.00     0.174 HD
ENDBRANCH   9  49
TORSDOF 14
ENDMDL