MODEL 2
REMARK VINA RESULT: -8.155619815      2.300      4.310
REMARK  18 active torsions:
REMARK  status: ('A' for Active; 'I' for Inactive)
REMARK    1  A    between atoms: N2_3  and  C2_5
REMARK    2  A    between atoms: C2_5  and  N3_6
REMARK    3  A    between atoms: C2_5  and  C3_11
REMARK    4  A    between atoms: N3_6  and  N4_8
REMARK    5  A    between atoms: C3_11  and  N5_12
REMARK    6  A    between atoms: C3_11  and  O8_33
REMARK    7  A    between atoms: N5_12  and  C4_14
REMARK    8  A    between atoms: C6_16  and  C7_17
REMARK    9  A    between atoms: C7_17  and  O1_18
REMARK   10  A    between atoms: C7_17  and  O2_20
REMARK   11  A    between atoms: C8_23  and  C9_24
REMARK   12  A    between atoms: C9_24  and  O4_25
REMARK   13  A    between atoms: C9_24  and  C10_27
REMARK   14  A    between atoms: C11_30  and  O7_31
REMARK   15  A    between atoms: O8_33  and  N6_34
REMARK   16  A    between atoms: N6_34  and  N7_36
REMARK   17  A    between atoms: N7_36  and  C12_38
REMARK   18  A    between atoms: C14_44  and  C15_45
ROOT
HETATM    1  N1  UNL     1      27.229-184.328  25.259  1.00  0.00    -0.172 NA
HETATM    2  C1  UNL     1      27.926-183.402  25.248  1.00  0.00     0.183 C
HETATM    3  N2  UNL     1      28.784-182.295  25.225  1.00  0.00    -0.278 N
ATOM      4  H2  UNL     1      28.734-181.653  24.434  1.00  0.00     0.179 HD
ENDROOT
BRANCH   3   5
HETATM    5  C2  UNL     1      29.720-182.030  26.261  1.00  0.00     0.157 C
BRANCH   5   6
HETATM    6  N3  UNL     1      29.813-180.805  26.650  1.00  0.00    -0.291 N
ATOM      7  H3  UNL     1      29.093-180.439  27.274  1.00  0.00     0.188 HD
BRANCH   6   8
HETATM    8  N4  UNL     1      30.840-179.959  26.264  1.00  0.00    -0.344 N
ATOM      9  H42 UNL     1      30.714-179.434  25.399  1.00  0.00     0.176 HD
ATOM     10  H41 UNL     1      31.700-179.842  26.800  1.00  0.00     0.176 HD
ENDBRANCH   6   8
ENDBRANCH   5   6
BRANCH   5  11
HETATM   11  C3  UNL     1      30.549-183.130  26.864  1.00  0.00     0.323 C
BRANCH  11  12
HETATM   12  N5  UNL     1      31.673-183.461  26.163  1.00  0.00    -0.353 N
ATOM     13  H5  UNL     1      32.164-184.109  26.780  1.00  0.00     0.162 HD
BRANCH  12  14
HETATM   14  C4  UNL     1      32.391-183.388  25.194  1.00  0.00     0.069 A
HETATM   15  C5  UNL     1      33.755-183.073  25.386  1.00  0.00     0.070 A
HETATM   16  C6  UNL     1      34.629-182.974  24.322  1.00  0.00     0.110 A
HETATM   17  O3  UNL     1      34.197-183.174  23.100  1.00  0.00    -0.308 OA
HETATM   18  C8  UNL     1      32.959-183.470  22.821  1.00  0.00     0.128 A
HETATM   19  C11 UNL     1      32.036-183.580  23.881  1.00  0.00     0.125 A
BRANCH  16  20
HETATM   20  C7  UNL     1      36.073-182.637  24.568  1.00  0.00     0.312 C
BRANCH  20  21
HETATM   21  O1  UNL     1      36.188-181.250  24.648  1.00  0.00    -0.365 OA
ATOM     22  H1  UNL     1      36.751-180.959  23.941  1.00  0.00     0.213 HD
ENDBRANCH  20  21
BRANCH  20  23
HETATM   23  O2  UNL     1      36.791-183.155  23.493  1.00  0.00    -0.365 OA
ATOM     24  H2  UNL     1      37.064-184.029  23.744  1.00  0.00     0.213 HD
ENDBRANCH  20  23
ENDBRANCH  16  20
BRANCH  18  25
HETATM   25  C9  UNL     1      32.515-183.690  21.411  1.00  0.00     0.278 C
BRANCH  25  26
HETATM   26  O4  UNL     1      31.439-182.836  21.154  1.00  0.00    -0.378 OA
ATOM     27  H4  UNL     1      31.547-182.474  20.283  1.00  0.00     0.211 HD
ENDBRANCH  25  26
BRANCH  25  28
HETATM   28  C10 UNL     1      32.216-185.084  21.109  1.00  0.00     0.209 C
HETATM   29  O5  UNL     1      31.083-185.405  20.689  1.00  0.00    -0.646 OA
HETATM   30  O6  UNL     1      33.157-186.080  21.273  1.00  0.00    -0.646 OA
ENDBRANCH  25  28
ENDBRANCH  18  25
BRANCH  19  31
HETATM   31  O7  UNL     1      30.763-183.893  23.490  1.00  0.00    -0.356 OA
ATOM     32  H7  UNL     1      30.011-183.344  23.684  1.00  0.00     0.218 HD
ENDBRANCH  19  31
ENDBRANCH  12  14
ENDBRANCH  11  12
BRANCH  11  33
HETATM   33  O8  UNL     1      30.988-182.575  28.131  1.00  0.00    -0.231 OA
BRANCH  33  34
HETATM   34  N6  UNL     1      31.114-183.429  29.182  1.00  0.00    -0.203 N
ATOM     35  H6  UNL     1      31.718-184.241  29.062  1.00  0.00     0.216 HD
BRANCH  34  36
HETATM   36  N7  UNL     1      30.533-183.290  30.301  1.00  0.00    -0.264 N
ATOM     37  H7  UNL     1      31.083-183.388  31.155  1.00  0.00     0.190 HD
BRANCH  36  38
HETATM   38  C12 UNL     1      29.149-183.003  30.412  1.00  0.00     0.154 A
HETATM   39  N8  UNL     1      28.254-183.029  29.414  1.00  0.00    -0.335 N
HETATM   40  C13 UNL     1      27.070-182.696  29.952  1.00  0.00     0.182 A
ATOM     41  H8  UNL     1      28.437-183.257  28.437  1.00  0.00     0.168 HD
HETATM   42  N9  UNL     1      27.223-182.462  31.288  1.00  0.00    -0.345 N
HETATM   43  C14 UNL     1      28.534-182.653  31.592  1.00  0.00     0.144 A
ATOM     44  H9  UNL     1      26.487-182.193  31.941  1.00  0.00     0.167 HD
BRANCH  43  45
HETATM   45  C15 UNL     1      29.179-182.522  32.879  1.00  0.00     0.285 C
HETATM   46  N10 UNL     1      28.414-182.289  34.048  1.00  0.00    -0.056 NA
HETATM   47  O9  UNL     1      30.428-182.615  32.968  1.00  0.00    -0.269 OA
ENDBRANCH  43  45
ENDBRANCH  36  38
ENDBRANCH  34  36
ENDBRANCH  33  34
ENDBRANCH  11  33
ENDBRANCH   5  11
ENDBRANCH   3   5
TORSDOF 18
ENDMDL