MODEL 1
REMARK VINA RESULT: -9.542434501      0.000      0.000
REMARK  10 active torsions:
REMARK  status: ('A' for Active; 'I' for Inactive)
REMARK       I    between atoms: C2_2  and  N1_4
REMARK    1  A    between atoms: N1_4  and  C3_6
REMARK    2  A    between atoms: C4_7  and  C5_8
REMARK    3  A    between atoms: C6_12  and  N2_13
REMARK       I    between atoms: N2_13  and  C7_15
REMARK       I    between atoms: C7_15  and  N3_16
REMARK       I    between atoms: C7_15  and  N4_20
REMARK    4  A    between atoms: C8_24  and  N5_25
REMARK    5  A    between atoms: N5_25  and  N6_27
REMARK       I    between atoms: N6_27  and  C9_29
REMARK    6  A    between atoms: C9_29  and  C10_31
REMARK    7  A    between atoms: C10_31  and  C11_32
REMARK    8  A    between atoms: C11_32  and  N7_33
REMARK    9  A    between atoms: C13_41  and  N11_42
REMARK   10  A    between atoms: C16_48  and  O6_49
ROOT
HETATM    1  C3  UNL     1      32.011-183.617  19.856  1.00  0.00     0.112 A
HETATM    2  C4  UNL     1      31.843-184.930  19.491  1.00  0.00     0.183 A
HETATM    3  O4  UNL     1      31.593-185.892  20.375  1.00  0.00    -0.282 OA
HETATM    4  C6  UNL     1      31.490-185.647  21.651  1.00  0.00     0.178 A
HETATM    5  C8  UNL     1      31.649-184.343  22.075  1.00  0.00     0.135 A
HETATM    6  C16 UNL     1      31.909-183.307  21.208  1.00  0.00     0.128 A
ENDROOT
BRANCH   5   7
HETATM    7  N5  UNL     1      31.542-184.076  23.454  1.00  0.00    -0.292 N
ATOM      8  H5  UNL     1      32.261-184.446  24.077  1.00  0.00     0.187 HD
BRANCH   7   9
HETATM    9  N6  UNL     1      30.506-183.333  24.009  1.00  0.00    -0.269 N
HETATM   10  C9  UNL     1      29.389-183.894  24.695  1.00  0.00     0.237 C
HETATM   11  O5  UNL     1      29.319-185.131  24.816  1.00  0.00    -0.272 OA
ATOM     12  H6  UNL     1      30.548-182.318  23.919  1.00  0.00     0.190 HD
BRANCH  10  13
HETATM   13  C10 UNL     1      28.370-182.994  25.232  1.00  0.00     0.126 C
BRANCH  13  14
HETATM   14  C11 UNL     1      27.898-183.291  26.623  1.00  0.00     0.161 C
BRANCH  14  15
HETATM   15  N7  UNL     1      29.003-183.342  27.553  1.00  0.00    -0.258 N
HETATM   16  N8  UNL     1      30.285-183.576  27.397  1.00  0.00    -0.237 N
HETATM   17  N9  UNL     1      30.930-183.497  28.549  1.00  0.00    -0.267 N
ATOM     18  H8  UNL     1      30.727-183.791  26.503  1.00  0.00     0.208 HD
HETATM   19  C12 UNL     1      30.042-183.197  29.518  1.00  0.00     0.183 A
ATOM     20  H9  UNL     1      31.931-183.639  28.681  1.00  0.00     0.190 HD
HETATM   21  N10 UNL     1      29.883-182.957  30.842  1.00  0.00    -0.172 N
HETATM   22  C15 UNL     1      28.824-183.100  28.887  1.00  0.00     0.187 A
HETATM   23  C13 UNL     1      28.577-182.711  31.046  1.00  0.00     0.681 A
ATOM     24  H10 UNL     1      30.616-182.962  31.552  1.00  0.00     0.186 HD
HETATM   25  N12 UNL     1      27.937-182.799  29.843  1.00  0.00    -0.167 N
HETATM   26  C14 UNL     1      26.522-182.595  29.658  1.00  0.00     0.177 C
BRANCH  23  27
HETATM   27  N11 UNL     1      28.003-182.435  32.171  1.00  0.00    -0.234 N
ATOM     28 2H11 UNL     1      28.419-182.581  33.090  1.00  0.00     0.174 HD
ATOM     29 1H11 UNL     1      27.071-182.041  32.305  1.00  0.00     0.174 HD
ENDBRANCH  23  27
ENDBRANCH  14  15
ENDBRANCH  13  14
ENDBRANCH  10  13
ENDBRANCH   7   9
ENDBRANCH   5   7
BRANCH   4  30
HETATM   30  N2  UNL     1      31.244-186.588  22.530  1.00  0.00    -0.319 N
HETATM   31  C7  UNL     1      30.259-187.582  22.152  1.00  0.00     0.482 C
HETATM   32  N3  UNL     1      29.896-188.390  23.297  1.00  0.00    -0.033 N
HETATM   33  N4  UNL     1      30.781-188.358  21.067  1.00  0.00    -0.033 N
ATOM     34  H33 UNL     1      30.712-188.813  23.738  1.00  0.00     0.278 HD
ATOM     35  H32 UNL     1      29.580-187.820  24.081  1.00  0.00     0.278 HD
ATOM     36  H31 UNL     1      29.202-189.089  23.031  1.00  0.00     0.278 HD
ATOM     37  H43 UNL     1      31.074-187.779  20.279  1.00  0.00     0.278 HD
ATOM     38  H42 UNL     1      31.689-188.771  21.284  1.00  0.00     0.278 HD
ATOM     39  H41 UNL     1      30.087-189.057  20.801  1.00  0.00     0.278 HD
ATOM     40  H2  UNL     1      31.721-186.620  23.431  1.00  0.00     0.165 HD
ENDBRANCH   4  30
BRANCH   6  41
HETATM   41  O6  UNL     1      32.070-182.007  21.621  1.00  0.00    -0.356 OA
ATOM     42  H6  UNL     1      31.328-181.533  21.979  1.00  0.00     0.218 HD
ENDBRANCH   6  41
BRANCH   1  43
HETATM   43  N1  UNL     1      32.294-182.606  18.894  1.00  0.00    -0.323 N
HETATM   44  C2  UNL     1      33.639-182.270  18.595  1.00  0.00     0.218 C
HETATM   45  C1  UNL     1      33.960-181.221  17.597  1.00  0.00     0.117 C
HETATM   46  O1  UNL     1      34.597-182.852  19.164  1.00  0.00    -0.274 OA
ATOM     47  H1  UNL     1      31.530-182.124  18.421  1.00  0.00     0.169 HD
ENDBRANCH   1  43
BRANCH   2  48
HETATM   48  C5  UNL     1      31.937-185.306  18.086  1.00  0.00     0.236 C
HETATM   49  O2  UNL     1      33.045-185.749  17.638  1.00  0.00    -0.642 OA
HETATM   50  O3  UNL     1      30.917-185.224  17.190  1.00  0.00    -0.642 OA
ENDBRANCH   2  48
TORSDOF 10
ENDMDL