MODEL 1
REMARK VINA RESULT: -7.940295312      0.000      0.000
REMARK  13 active torsions:
REMARK  status: ('A' for Active; 'I' for Inactive)
REMARK    1  A    between atoms: S1_2  and  C2_3
REMARK    2  A    between atoms: C2_3  and  N1_4
REMARK    3  A    between atoms: C2_3  and  C10_29
REMARK    4  A    between atoms: N1_4  and  C3_6
REMARK    5  A    between atoms: C3_6  and  O1_7
REMARK    6  A    between atoms: C3_6  and  C4_9
REMARK    7  A    between atoms: C5_13  and  C6_14
REMARK    8  A    between atoms: C6_14  and  N3_15
REMARK    9  A    between atoms: C9_23  and  N6_24
REMARK   10  A    between atoms: C10_29  and  N8_30
REMARK   11  A    between atoms: C10_29  and  C11_34
REMARK       I    between atoms: C11_34  and  N9_36
REMARK   12  A    between atoms: N9_36  and  C12_38
REMARK   13  A    between atoms: C14_45  and  N13_46
ROOT
HETATM    1  C2  UNL     1      34.888-182.558  21.429  1.00  0.00     0.180 C
ENDROOT
BRANCH   1   2
HETATM    2  S1  UNL     1      35.021-180.750  21.423  1.00  0.00    -0.146 SA
HETATM    3  C1  UNL     1      36.689-180.271  20.936  1.00  0.00     0.092 C
ENDBRANCH   1   2
BRANCH   1   4
HETATM    4  N1  UNL     1      34.751-183.058  22.696  1.00  0.00    -0.376 N
ATOM      5  H1  UNL     1      34.679-184.070  22.800  1.00  0.00     0.157 HD
BRANCH   4   6
HETATM    6  C3  UNL     1      34.703-182.276  23.865  1.00  0.00     0.285 C
BRANCH   6   7
HETATM    7  O1  UNL     1      35.753-182.203  24.725  1.00  0.00    -0.370 OA
ATOM      8  H1  UNL     1      36.098-182.971  25.164  1.00  0.00     0.212 HD
ENDBRANCH   6   7
BRANCH   6   9
HETATM    9  C4  UNL     1      33.473-182.744  24.650  1.00  0.00     0.152 A
HETATM   10  N2  UNL     1      33.482-183.657  25.610  1.00  0.00    -0.243 N
HETATM   11  O2  UNL     1      32.259-183.822  26.038  1.00  0.00    -0.221 OA
ATOM     12  H2  UNL     1      34.305-184.148  25.958  1.00  0.00     0.196 HD
HETATM   13  C5  UNL     1      31.458-183.105  25.448  1.00  0.00     0.167 A
HETATM   14  N7  UNL     1      32.193-182.344  24.486  1.00  0.00    -0.322 N
ATOM     15  H7  UNL     1      31.832-181.654  23.827  1.00  0.00     0.169 HD
BRANCH  13  16
HETATM   16  C6  UNL     1      29.990-182.911  25.545  1.00  0.00     0.239 C
BRANCH  16  17
HETATM   17  N3  UNL     1      29.678-182.782  26.947  1.00  0.00    -0.125 N
HETATM   18  C7  UNL     1      29.370-183.904  27.681  1.00  0.00     0.342 A
HETATM   19  O3  UNL     1      29.268-184.991  27.091  1.00  0.00    -0.246 OA
HETATM   20  N4  UNL     1      29.203-183.724  28.976  1.00  0.00    -0.304 N
HETATM   21  C8  UNL     1      29.304-182.559  29.605  1.00  0.00     0.202 A
ATOM     22  H4  UNL     1      28.978-184.543  29.539  1.00  0.00     0.171 HD
HETATM   23  N5  UNL     1      29.607-181.425  28.872  1.00  0.00    -0.188 N
HETATM   24  C9  UNL     1      29.783-181.599  27.554  1.00  0.00     0.683 A
ATOM     25  H5  UNL     1      29.693-180.508  29.310  1.00  0.00     0.185 HD
BRANCH  24  26
HETATM   26  N6  UNL     1      30.096-180.564  26.817  1.00  0.00    -0.234 N
ATOM     27  H62 UNL     1      30.072-179.635  27.237  1.00  0.00     0.174 HD
ATOM     28  H61 UNL     1      30.370-180.739  25.850  1.00  0.00     0.174 HD
ENDBRANCH  24  26
ENDBRANCH  16  17
ENDBRANCH  13  16
ENDBRANCH   6   9
ENDBRANCH   4   6
ENDBRANCH   1   4
BRANCH   1  29
HETATM   29  C10 UNL     1      33.898-182.979  20.369  1.00  0.00     0.307 C
BRANCH  29  30
HETATM   30  N8  UNL     1      33.573-182.066  19.346  1.00  0.00    -0.064 N
ATOM     31  H83 UNL     1      33.376-182.585  18.490  1.00  0.00     0.275 HD
ATOM     32  H82 UNL     1      32.658-181.660  19.545  1.00  0.00     0.275 HD
ATOM     33  H81 UNL     1      34.229-181.314  19.134  1.00  0.00     0.275 HD
ENDBRANCH  29  30
BRANCH  29  34
HETATM   34  C11 UNL     1      32.575-183.313  21.137  1.00  0.00     0.269 C
HETATM   35  O4  UNL     1      31.929-182.355  21.607  1.00  0.00    -0.270 OA
HETATM   36  N9  UNL     1      32.277-184.619  21.205  1.00  0.00    -0.157 N
ATOM     37  H9  UNL     1      33.009-185.119  20.699  1.00  0.00     0.187 HD
BRANCH  36  38
HETATM   38  C12 UNL     1      31.489-185.465  21.622  1.00  0.00     0.702 A
HETATM   39  N10 UNL     1      31.432-186.719  21.155  1.00  0.00    -0.162 N
HETATM   40  C13 UNL     1      30.567-187.602  21.679  1.00  0.00     0.221 A
ATOM     41  H10 UNL     1      32.052-187.006  20.396  1.00  0.00     0.187 HD
HETATM   42  N11 UNL     1      30.453-188.935  21.183  1.00  0.00    -0.062 NA
HETATM   43  N12 UNL     1      29.749-187.246  22.680  1.00  0.00    -0.163 N
HETATM   44  C14 UNL     1      29.781-185.963  23.184  1.00  0.00     0.692 A
ATOM     45  H12 UNL     1      29.099-187.928  23.070  1.00  0.00     0.187 HD
HETATM   46  N14 UNL     1      30.657-185.097  22.633  1.00  0.00    -0.022 N
ATOM     47  H14 UNL     1      30.696-184.140  22.985  1.00  0.00     0.203 HD
BRANCH  44  48
HETATM   48  N13 UNL     1      29.053-185.669  24.100  1.00  0.00    -0.234 N
ATOM     49 2H13 UNL     1      29.206-184.851  24.691  1.00  0.00     0.174 HD
ATOM     50 1H13 UNL     1      28.255-186.266  24.318  1.00  0.00     0.174 HD
ENDBRANCH  44  48
ENDBRANCH  36  38
ENDBRANCH  29  34
ENDBRANCH   1  29
TORSDOF 13
ENDMDL