MODEL 2
REMARK VINA RESULT: -8.307736908      1.079      1.259
REMARK  16 active torsions:
REMARK  status: ('A' for Active; 'I' for Inactive)
REMARK    1  A    between atoms: C2_2  and  O1_4
REMARK    2  A    between atoms: C2_2  and  C4_6
REMARK    3  A    between atoms: N3_11  and  C5_12
REMARK    4  A    between atoms: C5_12  and  C6_13
REMARK    5  A    between atoms: C6_13  and  C7_14
REMARK    6  A    between atoms: C7_14  and  C8_15
REMARK    7  A    between atoms: C8_15  and  C9_16
REMARK    8  A    between atoms: C9_16  and  N4_17
REMARK    9  A    between atoms: N4_17  and  O2_18
REMARK   10  A    between atoms: N4_17  and  C10_20
REMARK   11  A    between atoms: C10_20  and  O3_21
REMARK   12  A    between atoms: C10_20  and  N5_23
REMARK   13  A    between atoms: C12_28  and  O4_29
REMARK   14  A    between atoms: C14_33  and  N8_34
REMARK       I    between atoms: N9_37  and  C15_38
REMARK       I    between atoms: C15_38  and  N10_40
REMARK   15  A    between atoms: N10_40  and  N11_41
REMARK   16  A    between atoms: C16_44  and  O6_45
ROOT
HETATM    1  C10 UNL     1      30.362-182.467  26.919  1.00  0.00     0.340 C
ENDROOT
BRANCH   1   2
HETATM    2  N4  UNL     1      30.629-183.744  26.204  1.00  0.00    -0.152 NA
BRANCH   2   3
HETATM    3  C9  UNL     1      29.838-183.846  25.027  1.00  0.00     0.125 C
BRANCH   3   4
HETATM    4  C8  UNL     1      30.583-184.388  23.884  1.00  0.00     0.017 C
BRANCH   4   5
HETATM    5  C7  UNL     1      30.080-185.700  23.297  1.00  0.00     0.003 C
BRANCH   5   6
HETATM    6  C6  UNL     1      31.175-186.439  22.606  1.00  0.00     0.022 C
BRANCH   6   7
HETATM    7  C5  UNL     1      32.199-185.642  21.910  1.00  0.00     0.153 C
BRANCH   7   8
HETATM    8  N3  UNL     1      31.965-185.265  20.548  1.00  0.00    -0.255 N
HETATM    9  N2  UNL     1      31.249-184.262  20.102  1.00  0.00    -0.238 N
HETATM   10  N1  UNL     1      31.224-184.256  18.779  1.00  0.00    -0.283 N
ATOM     11  H2  UNL     1      30.777-183.579  20.694  1.00  0.00     0.208 HD
HETATM   12  C4  UNL     1      31.947-185.292  18.360  1.00  0.00     0.113 A
ATOM     13  H1  UNL     1      30.738-183.581  18.189  1.00  0.00     0.188 HD
HETATM   14  C16 UNL     1      32.429-185.948  19.468  1.00  0.00     0.186 A
BRANCH  12  15
HETATM   15  C2  UNL     1      32.244-185.733  16.951  1.00  0.00     0.098 C
HETATM   16  C1  UNL     1      33.528-185.108  16.492  1.00  0.00     0.052 C
HETATM   17  C3  UNL     1      31.118-185.270  16.021  1.00  0.00     0.052 C
BRANCH  15  18
HETATM   18  O1  UNL     1      32.324-187.107  16.839  1.00  0.00    -0.384 OA
ATOM     19  H1  UNL     1      32.409-187.497  17.701  1.00  0.00     0.211 HD
ENDBRANCH  15  18
ENDBRANCH  12  15
BRANCH  14  20
HETATM   20  O6  UNL     1      33.231-187.085  19.446  1.00  0.00    -0.343 OA
ATOM     21  H6  UNL     1      33.197-187.795  20.076  1.00  0.00     0.219 HD
ENDBRANCH  14  20
ENDBRANCH   7   8
ENDBRANCH   6   7
ENDBRANCH   5   6
ENDBRANCH   4   5
ENDBRANCH   3   4
ENDBRANCH   2   3
BRANCH   2  22
HETATM   22  O2  UNL     1      31.932-183.735  25.889  1.00  0.00    -0.309 OA
ATOM     23  H2  UNL     1      32.268-182.847  25.901  1.00  0.00     0.237 HD
ENDBRANCH   2  22
ENDBRANCH   1   2
BRANCH   1  24
HETATM   24  O3  UNL     1      30.207-181.470  25.907  1.00  0.00    -0.362 OA
ATOM     25  H3  UNL     1      31.037-181.010  25.860  1.00  0.00     0.213 HD
ENDBRANCH   1  24
BRANCH   1  26
HETATM   26  N5  UNL     1      29.328-182.522  27.789  1.00  0.00    -0.184 N
HETATM   27  C11 UNL     1      28.755-182.636  28.867  1.00  0.00     0.696 A
HETATM   28  N6  UNL     1      27.360-182.530  28.824  1.00  0.00    -0.168 N
HETATM   29  N9  UNL     1      29.309-182.662  30.088  1.00  0.00    -0.066 N
HETATM   30  C12 UNL     1      26.608-182.449  29.895  1.00  0.00     0.183 A
ATOM     31  H6  UNL     1      26.905-182.515  27.911  1.00  0.00     0.186 HD
HETATM   32  C13 UNL     1      27.172-182.466  31.122  1.00  0.00     0.142 A
HETATM   33  N7  UNL     1      26.363-182.365  32.288  1.00  0.00    -0.094 NA
HETATM   34  C14 UNL     1      28.574-182.578  31.240  1.00  0.00     0.157 A
HETATM   35  C15 UNL     1      30.668-183.135  30.322  1.00  0.00     0.438 C
HETATM   36  O5  UNL     1      31.217-182.494  31.292  1.00  0.00    -0.227 OA
HETATM   37  N10 UNL     1      31.217-184.119  29.611  1.00  0.00    -0.271 NA
ATOM     38  H5  UNL     1      28.537-182.383  27.161  1.00  0.00     0.181 HD
BRANCH  30  39
HETATM   39  O4  UNL     1      25.200-182.342  29.822  1.00  0.00    -0.344 OA
ATOM     40  H4  UNL     1      24.739-181.542  30.049  1.00  0.00     0.219 HD
ENDBRANCH  30  39
BRANCH  34  41
HETATM   41  N8  UNL     1      29.010-182.606  32.417  1.00  0.00    -0.383 N
ATOM     42  H82 UNL     1      28.988-183.398  33.060  1.00  0.00     0.157 HD
ATOM     43  H81 UNL     1      29.413-181.731  32.752  1.00  0.00     0.157 HD
ENDBRANCH  34  41
BRANCH  37  44
HETATM   44  N11 UNL     1      31.771-185.107  28.901  1.00  0.00    -0.275 N
ATOM     45 2H11 UNL     1      31.202-184.446  29.431  1.00  0.00     0.191 HD
ATOM     46 1H11 UNL     1      32.196-185.859  28.359  1.00  0.00     0.191 HD
ENDBRANCH  37  44
ENDBRANCH   1  26
TORSDOF 16
ENDMDL