MODEL 1
REMARK VINA RESULT: -8.463190508      0.000      0.000
REMARK  13 active torsions:
REMARK  status: ('A' for Active; 'I' for Inactive)
REMARK    1  A    between atoms: C2_2  and  C3_3
REMARK    2  A    between atoms: N2_8  and  C6_9
REMARK    3  A    between atoms: C6_9  and  C7_10
REMARK    4  A    between atoms: C8_14  and  N4_15
REMARK    5  A    between atoms: C8_14  and  C15_36
REMARK    6  A    between atoms: N4_15  and  N5_17
REMARK    7  A    between atoms: N5_17  and  C9_19
REMARK    8  A    between atoms: C12_22  and  C13_23
REMARK    9  A    between atoms: C13_23  and  N6_24
REMARK   10  A    between atoms: C13_23  and  N7_28
REMARK   11  A    between atoms: N7_28  and  N8_29
REMARK   12  A    between atoms: C16_45  and  O1_46
REMARK   13  A    between atoms: C17_48  and  N15_49
ROOT
HETATM    1  C7  UNL     1      29.058-183.369  27.656  1.00  0.00     0.242 C
HETATM    2  N3  UNL     1      29.940-184.209  26.918  1.00  0.00    -0.029 N
ATOM      3  H31 UNL     1      29.531-185.112  26.675  1.00  0.00     0.281 HD
ATOM      4  H32 UNL     1      30.717-184.567  27.473  1.00  0.00     0.281 HD
HETATM    5  C8  UNL     1      30.356-183.452  25.782  1.00  0.00     0.299 C
HETATM    6  C16 UNL     1      29.419-182.277  25.643  1.00  0.00     0.216 C
HETATM    7  C17 UNL     1      28.282-182.654  26.609  1.00  0.00     0.249 C
ENDROOT
BRANCH   5   8
HETATM    8  N4  UNL     1      31.731-183.066  25.738  1.00  0.00    -0.291 N
ATOM      9  H4  UNL     1      31.990-182.085  25.637  1.00  0.00     0.183 HD
BRANCH   8  10
HETATM   10  N5  UNL     1      32.684-184.022  25.833  1.00  0.00    -0.299 N
ATOM     11  H5  UNL     1      32.425-184.988  26.035  1.00  0.00     0.186 HD
BRANCH  10  12
HETATM   12  C9  UNL     1      34.059-183.666  25.647  1.00  0.00     0.088 A
HETATM   13  C10 UNL     1      35.021-183.997  26.592  1.00  0.00     0.036 A
HETATM   14  C11 UNL     1      36.335-183.671  26.423  1.00  0.00     0.031 A
HETATM   15  C12 UNL     1      36.697-182.993  25.269  1.00  0.00     0.058 A
HETATM   16  N9  UNL     1      35.766-182.675  24.355  1.00  0.00    -0.343 N
HETATM   17  C14 UNL     1      34.473-182.993  24.522  1.00  0.00     0.144 A
ATOM     18  H9  UNL     1      36.049-182.177  23.511  1.00  0.00     0.167 HD
HETATM   19  N10 UNL     1      33.535-182.637  23.527  1.00  0.00    -0.080 NA
BRANCH  15  20
HETATM   20  C13 UNL     1      38.096-182.601  25.004  1.00  0.00     0.344 C
BRANCH  20  21
HETATM   21  N6  UNL     1      38.931-183.770  24.836  1.00  0.00    -0.054 N
ATOM     22  H63 UNL     1      38.969-184.072  23.862  1.00  0.00     0.276 HD
ATOM     23  H62 UNL     1      39.919-183.552  24.966  1.00  0.00     0.276 HD
ATOM     24  H61 UNL     1      38.626-184.522  25.454  1.00  0.00     0.276 HD
ENDBRANCH  20  21
BRANCH  20  25
HETATM   25  N7  UNL     1      38.670-181.789  26.049  1.00  0.00    -0.108 NA
BRANCH  25  26
HETATM   26  N8  UNL     1      38.107-180.541  26.120  1.00  0.00    -0.346 N
ATOM     27  H82 UNL     1      37.099-180.391  26.168  1.00  0.00     0.172 HD
ATOM     28  H81 UNL     1      38.802-179.795  26.118  1.00  0.00     0.172 HD
ENDBRANCH  25  26
ENDBRANCH  20  25
ENDBRANCH  15  20
ENDBRANCH  10  12
ENDBRANCH   8  10
ENDBRANCH   5   8
BRANCH   5  29
HETATM   29  C15 UNL     1      30.147-184.299  24.557  1.00  0.00     0.175 A
HETATM   30  N11 UNL     1      29.366-185.339  24.321  1.00  0.00    -0.268 N
HETATM   31  N12 UNL     1      29.572-185.712  23.073  1.00  0.00    -0.227 N
ATOM     32  H11 UNL     1      28.723-185.772  24.984  1.00  0.00     0.190 HD
HETATM   33  N13 UNL     1      30.464-184.941  22.497  1.00  0.00    -0.227 N
ATOM     34  H12 UNL     1      29.101-186.494  22.618  1.00  0.00     0.210 HD
HETATM   35  N14 UNL     1      30.831-184.055  23.410  1.00  0.00    -0.268 N
ATOM     36  H13 UNL     1      30.805-185.010  21.539  1.00  0.00     0.210 HD
ATOM     37  H14 UNL     1      31.516-183.311  23.273  1.00  0.00     0.190 HD
ENDBRANCH   5  29
BRANCH   6  38
HETATM   38  O1  UNL     1      29.937-181.081  26.036  1.00  0.00    -0.389 OA
ATOM     39  H1  UNL     1      29.856-180.896  26.964  1.00  0.00     0.210 HD
ENDBRANCH   6  38
BRANCH   1  40
HETATM   40  C6  UNL     1      28.308-183.980  28.772  1.00  0.00     0.186 C
BRANCH  40  41
HETATM   41  N2  UNL     1      28.305-183.356  30.039  1.00  0.00    -0.277 N
HETATM   42  C4  UNL     1      27.267-182.791  30.671  1.00  0.00     0.095 A
HETATM   43  N1  UNL     1      27.726-182.334  31.876  1.00  0.00    -0.334 N
HETATM   44  C5  UNL     1      25.849-182.637  30.248  1.00  0.00     0.091 C
HETATM   45  C3  UNL     1      29.029-182.623  31.965  1.00  0.00     0.097 A
ATOM     46  H1  UNL     1      27.171-181.855  32.584  1.00  0.00     0.168 HD
HETATM   47  N16 UNL     1      29.346-183.238  30.841  1.00  0.00    -0.285 N
ATOM     48  H16 UNL     1      30.281-183.581  30.619  1.00  0.00     0.188 HD
BRANCH  45  49
HETATM   49  C2  UNL     1      29.990-182.347  33.082  1.00  0.00     0.073 C
HETATM   50  C1  UNL     1      29.177-182.271  34.351  1.00  0.00     0.013 C
ENDBRANCH  45  49
ENDBRANCH  40  41
ENDBRANCH   1  40
BRANCH   7  51
HETATM   51  N15 UNL     1      27.364-183.419  25.836  1.00  0.00    -0.070 N
ATOM     52 3H15 UNL     1      26.412-183.199  26.127  1.00  0.00     0.274 HD
ATOM     53 2H15 UNL     1      27.356-183.071  24.878  1.00  0.00     0.274 HD
ATOM     54 1H15 UNL     1      27.488-184.431  25.826  1.00  0.00     0.274 HD
ENDBRANCH   7  51
TORSDOF 13
ENDMDL