MODEL 5
REMARK VINA RESULT: -7.575114041      1.663      2.364
REMARK  14 active torsions:
REMARK  status: ('A' for Active; 'I' for Inactive)
REMARK    1  A    between atoms: C2_2  and  N1_3
REMARK    2  A    between atoms: C4_9  and  S1_10
REMARK    3  A    between atoms: S1_10  and  C5_11
REMARK    4  A    between atoms: C10_21  and  N6_22
REMARK    5  A    between atoms: N7_25  and  C11_26
REMARK    6  A    between atoms: C11_26  and  N8_27
REMARK    7  A    between atoms: N8_27  and  C12_29
REMARK    8  A    between atoms: C12_29  and  C13_30
REMARK    9  A    between atoms: C12_29  and  C14_33
REMARK   10  A    between atoms: C12_29  and  N9_36
REMARK   11  A    between atoms: C13_30  and  O1_31
REMARK   12  A    between atoms: C14_33  and  O2_34
REMARK   13  A    between atoms: N9_36  and  O3_38
REMARK   14  A    between atoms: N10_40  and  C15_41
ROOT
HETATM    1  C5  UNL     1      30.580-183.177  28.006  1.00  0.00     0.081 A
HETATM    2  C6  UNL     1      31.846-183.378  27.444  1.00  0.00     0.070 A
HETATM    3  C7  UNL     1      31.951-183.300  26.073  1.00  0.00     0.080 A
HETATM    4  C8  UNL     1      30.906-183.040  25.240  1.00  0.00     0.082 A
HETATM    5  C9  UNL     1      29.676-182.847  25.831  1.00  0.00     0.116 A
HETATM    6  N4  UNL     1      28.660-182.598  25.087  1.00  0.00    -0.385 N
ATOM      7  H41 UNL     1      27.750-182.455  25.524  1.00  0.00     0.157 HD
ATOM      8  H42 UNL     1      28.757-182.544  24.073  1.00  0.00     0.157 HD
HETATM    9  N5  UNL     1      29.547-182.920  27.192  1.00  0.00    -0.336 N
ATOM     10  H5  UNL     1      28.626-182.772  27.604  1.00  0.00     0.168 HD
HETATM   11  C10 UNL     1      31.403-183.042  23.950  1.00  0.00     0.134 A
HETATM   12  N7  UNL     1      32.723-183.298  24.006  1.00  0.00    -0.248 N
HETATM   13  N10 UNL     1      33.047-183.452  25.279  1.00  0.00    -0.218 N
ENDROOT
BRANCH  12  14
HETATM   14  C11 UNL     1      33.623-183.386  22.837  1.00  0.00     0.270 C
BRANCH  14  15
HETATM   15  N8  UNL     1      33.335-184.491  22.017  1.00  0.00    -0.374 N
ATOM     16  H8  UNL     1      33.369-185.436  22.399  1.00  0.00     0.157 HD
BRANCH  15  17
HETATM   17  C12 UNL     1      32.996-184.285  20.651  1.00  0.00     0.163 C
BRANCH  17  18
HETATM   18  C13 UNL     1      34.267-184.561  19.822  1.00  0.00     0.221 C
BRANCH  18  19
HETATM   19  O1  UNL     1      34.575-185.929  19.882  1.00  0.00    -0.396 OA
ATOM     20  H1  UNL     1      34.257-186.359  19.096  1.00  0.00     0.209 HD
ENDBRANCH  18  19
ENDBRANCH  17  18
BRANCH  17  21
HETATM   21  C14 UNL     1      31.991-185.295  20.134  1.00  0.00     0.221 C
BRANCH  21  22
HETATM   22  O2  UNL     1      30.907-185.281  21.025  1.00  0.00    -0.396 OA
ATOM     23  H2  UNL     1      31.157-184.725  21.755  1.00  0.00     0.209 HD
ENDBRANCH  21  22
ENDBRANCH  17  21
BRANCH  17  24
HETATM   24  N9  UNL     1      32.553-182.988  20.273  1.00  0.00    -0.272 N
ATOM     25  H9  UNL     1      33.158-182.174  20.378  1.00  0.00     0.190 HD
BRANCH  24  26
HETATM   26  O3  UNL     1      31.331-182.873  19.782  1.00  0.00    -0.292 OA
ATOM     27  H3  UNL     1      30.605-182.881  20.395  1.00  0.00     0.244 HD
ENDBRANCH  24  26
ENDBRANCH  17  24
ENDBRANCH  15  17
ENDBRANCH  14  15
ENDBRANCH  12  14
BRANCH  11  28
HETATM   28  N6  UNL     1      30.652-182.823  22.925  1.00  0.00    -0.383 N
ATOM     29  H62 UNL     1      30.256-181.947  22.585  1.00  0.00     0.157 HD
ATOM     30  H61 UNL     1      30.355-183.573  22.301  1.00  0.00     0.157 HD
ENDBRANCH  11  28
BRANCH  13  31
HETATM   31  C15 UNL     1      34.341-183.733  25.764  1.00  0.00     0.214 C
HETATM   32  N11 UNL     1      34.609-184.549  26.720  1.00  0.00    -0.272 N
HETATM   33  N12 UNL     1      35.958-184.624  26.979  1.00  0.00    -0.119 NA
ATOM     34  H11 UNL     1      33.902-185.080  27.230  1.00  0.00     0.185 HD
HETATM   35  C16 UNL     1      36.570-183.512  26.291  1.00  0.00     0.259 C
HETATM   36  N13 UNL     1      35.572-183.198  25.314  1.00  0.00    -0.345 N
ATOM     37  H13 UNL     1      35.721-182.680  24.447  1.00  0.00     0.164 HD
ENDBRANCH  13  31
BRANCH   1  38
HETATM   38  S1  UNL     1      30.517-183.293  29.767  1.00  0.00    -0.035 SA
BRANCH  38  39
HETATM   39  C4  UNL     1      28.929-182.962  30.478  1.00  0.00     0.168 A
HETATM   40  N1  UNL     1      28.747-182.597  31.778  1.00  0.00    -0.270 N
HETATM   41  N2  UNL     1      27.468-182.413  32.043  1.00  0.00    -0.292 N
HETATM   42  C3  UNL     1      26.812-182.661  30.899  1.00  0.00     0.199 A
ATOM     43  H2  UNL     1      27.060-182.138  32.936  1.00  0.00     0.188 HD
HETATM   44  N3  UNL     1      27.689-182.996  29.938  1.00  0.00    -0.330 N
ATOM     45  H3  UNL     1      27.460-183.235  28.973  1.00  0.00     0.168 HD
BRANCH  40  46
HETATM   46  C2  UNL     1      29.876-182.450  32.700  1.00  0.00     0.147 C
HETATM   47  C1  UNL     1      29.383-182.222  34.115  1.00  0.00     0.028 C
ENDBRANCH  40  46
ENDBRANCH  38  39
ENDBRANCH   1  38
TORSDOF 14
ENDMDL