MODEL 1
REMARK VINA RESULT: -8.696467205      0.000      0.000
REMARK  13 active torsions:
REMARK  status: ('A' for Active; 'I' for Inactive)
REMARK    1  A    between atoms: O1_2  and  C2_3
REMARK    2  A    between atoms: C2_3  and  O2_4
REMARK    3  A    between atoms: C2_3  and  C3_6
REMARK    4  A    between atoms: C4_9  and  C5_10
REMARK    5  A    between atoms: C6_13  and  O3_14
REMARK    6  A    between atoms: C7_16  and  N3_17
REMARK    7  A    between atoms: N3_17  and  C8_19
REMARK    8  A    between atoms: N7_26  and  N8_27
REMARK    9  A    between atoms: N8_27  and  N9_29
REMARK   10  A    between atoms: C9_32  and  N10_33
REMARK       I    between atoms: N10_33  and  C10_35
REMARK   11  A    between atoms: C12_38  and  O5_39
REMARK   12  A    between atoms: C13_43  and  C14_44
REMARK   13  A    between atoms: C14_44  and  C15_46
ROOT
HETATM    1  C5  UNL     1      30.238-183.063  26.894  1.00  0.00     0.114 A
HETATM    2  N2  UNL     1      31.120-182.187  26.349  1.00  0.00    -0.330 N
ATOM      3  H2  UNL     1      31.545-181.482  26.952  1.00  0.00     0.168 HD
HETATM    4  C6  UNL     1      31.457-182.211  25.049  1.00  0.00     0.171 A
HETATM    5  C7  UNL     1      30.916-183.142  24.186  1.00  0.00     0.129 A
HETATM    6  C9  UNL     1      30.028-184.028  24.719  1.00  0.00     0.102 A
HETATM    7  C12 UNL     1      29.669-184.007  26.091  1.00  0.00     0.125 A
ENDROOT
BRANCH   1   8
HETATM    8  C4  UNL     1      29.949-182.929  28.336  1.00  0.00     0.136 A
HETATM    9  N1  UNL     1      30.744-182.949  29.367  1.00  0.00    -0.338 N
HETATM   10  C3  UNL     1      30.045-182.790  30.562  1.00  0.00     0.097 A
ATOM     11  H1  UNL     1      31.755-183.067  29.308  1.00  0.00     0.167 HD
HETATM   12  C13 UNL     1      28.738-182.667  30.188  1.00  0.00     0.119 A
HETATM   13  N11 UNL     1      28.702-182.753  28.848  1.00  0.00    -0.335 N
ATOM     14  H11 UNL     1      27.851-182.693  28.288  1.00  0.00     0.168 HD
BRANCH  10  15
HETATM   15  C2  UNL     1      30.692-182.757  31.860  1.00  0.00     0.309 C
BRANCH  15  16
HETATM   16  O1  UNL     1      30.157-183.459  32.885  1.00  0.00    -0.360 OA
HETATM   17  C1  UNL     1      30.181-182.765  34.112  1.00  0.00     0.205 C
ENDBRANCH  15  16
BRANCH  15  18
HETATM   18  O2  UNL     1      30.566-181.362  32.317  1.00  0.00    -0.366 OA
ATOM     19  H2  UNL     1      31.464-181.053  32.306  1.00  0.00     0.213 HD
ENDBRANCH  15  18
ENDBRANCH  10  15
BRANCH  12  20
HETATM   20  C14 UNL     1      27.541-182.491  30.984  1.00  0.00     0.276 C
HETATM   21  O6  UNL     1      27.650-182.244  32.227  1.00  0.00    -0.278 OA
BRANCH  20  22
HETATM   22  C15 UNL     1      26.193-182.571  30.472  1.00  0.00     0.253 C
HETATM   23  O7  UNL     1      25.867-182.642  29.281  1.00  0.00    -0.642 OA
HETATM   24  O8  UNL     1      25.152-182.567  31.449  1.00  0.00    -0.642 OA
ENDBRANCH  20  22
ENDBRANCH  12  20
ENDBRANCH   1   8
BRANCH   7  25
HETATM   25  O5  UNL     1      28.776-184.926  26.546  1.00  0.00    -0.356 OA
ATOM     26  H5  UNL     1      27.897-184.699  26.824  1.00  0.00     0.218 HD
ENDBRANCH   7  25
BRANCH   4  27
HETATM   27  O3  UNL     1      32.355-181.297  24.564  1.00  0.00    -0.344 OA
ATOM     28  H3  UNL     1      32.048-180.572  24.032  1.00  0.00     0.219 HD
ENDBRANCH   4  27
BRANCH   6  29
HETATM   29  N10 UNL     1      29.441-185.005  23.892  1.00  0.00    -0.323 N
HETATM   30  C10 UNL     1      30.113-186.081  23.303  1.00  0.00     0.218 C
HETATM   31  C11 UNL     1      29.379-187.048  22.448  1.00  0.00     0.117 C
HETATM   32  O4  UNL     1      31.344-186.258  23.480  1.00  0.00    -0.274 OA
ATOM     33  H10 UNL     1      28.441-184.921  23.706  1.00  0.00     0.169 HD
ENDBRANCH   6  29
BRANCH   5  34
HETATM   34  N3  UNL     1      31.258-183.163  22.851  1.00  0.00    -0.181 N
ATOM     35  H3  UNL     1      30.463-183.145  22.212  1.00  0.00     0.184 HD
BRANCH  34  36
HETATM   36  C8  UNL     1      32.384-183.201  22.280  1.00  0.00     0.737 A
HETATM   37  N4  UNL     1      33.570-183.324  22.890  1.00  0.00    -0.113 N
HETATM   38  N5  UNL     1      34.532-183.327  21.994  1.00  0.00    -0.212 N
ATOM     39  H4  UNL     1      33.706-183.404  23.898  1.00  0.00     0.207 HD
HETATM   40  N6  UNL     1      33.959-183.205  20.815  1.00  0.00    -0.190 N
ATOM     41  H5  UNL     1      35.532-183.408  22.177  1.00  0.00     0.210 HD
HETATM   42  N7  UNL     1      32.642-183.125  20.967  1.00  0.00     0.011 N
ATOM     43  H6  UNL     1      34.451-183.176  19.921  1.00  0.00     0.212 HD
BRANCH  42  44
HETATM   44  N8  UNL     1      31.746-182.985  19.899  1.00  0.00    -0.212 N
ATOM     45  H8  UNL     1      31.654-182.064  19.471  1.00  0.00     0.210 HD
BRANCH  44  46
HETATM   46  N9  UNL     1      30.970-184.026  19.384  1.00  0.00    -0.329 N
ATOM     47  H92 UNL     1      30.624-184.716  20.051  1.00  0.00     0.178 HD
ATOM     48  H91 UNL     1      30.735-184.131  18.397  1.00  0.00     0.178 HD
ENDBRANCH  44  46
ENDBRANCH  42  44
ENDBRANCH  34  36
ENDBRANCH   5  34
TORSDOF 13
ENDMDL