MODEL 2
REMARK VINA RESULT: -7.023326639      0.987      1.478
REMARK  6 active torsions:
REMARK  status: ('A' for Active; 'I' for Inactive)
REMARK    1  A    between atoms: C4_4  and  C5_5
REMARK    2  A    between atoms: C6_6  and  C7_7
REMARK    3  A    between atoms: N2_11  and  C9_12
REMARK    4  A    between atoms: C9_12  and  C10_13
REMARK    5  A    between atoms: C10_13  and  N3_14
REMARK    6  A    between atoms: C18_27  and  N6_28
ROOT
HETATM    1  C5  UNL     1      -8.458  -3.117  -0.369  1.00  0.00     0.016 A
HETATM    2  C6  UNL     1      -8.068  -4.029  -1.312  1.00  0.00     0.032 A
HETATM    3  S1  UNL     1      -6.777  -4.841  -0.559  1.00  0.00    -0.070 SA
HETATM    4  C16 UNL     1      -6.758  -4.011   0.933  1.00  0.00     0.090 A
HETATM    5  N4  UNL     1      -6.004  -4.088   2.077  1.00  0.00    -0.346 N
ATOM      6  H4  UNL     1      -5.253  -4.775   2.136  1.00  0.00     0.167 HD
HETATM    7  C17 UNL     1      -6.237  -3.279   3.117  1.00  0.00     0.182 A
HETATM    8  N5  UNL     1      -7.225  -2.381   3.028  1.00  0.00    -0.338 N
ATOM      9  H5  UNL     1      -7.410  -1.759   3.815  1.00  0.00     0.168 HD
HETATM   10  C18 UNL     1      -7.971  -2.286   1.928  1.00  0.00     0.113 A
HETATM   11  C19 UNL     1      -7.773  -3.110   0.801  1.00  0.00     0.054 A
ENDROOT
BRANCH   2  12
HETATM   12  C7  UNL     1      -8.659  -4.234  -2.658  1.00  0.00     0.016 A
HETATM   13  C8  UNL     1      -8.235  -3.709  -3.858  1.00  0.00     0.121 A
HETATM   14  N1  UNL     1      -9.041  -4.134  -4.846  1.00  0.00    -0.309 N
HETATM   15  N2  UNL     1      -9.960  -4.911  -4.300  1.00  0.00    -0.301 N
ATOM     16  H1  UNL     1      -8.959  -3.899  -5.835  1.00  0.00     0.186 HD
HETATM   17  C15 UNL     1      -9.759  -4.993  -2.975  1.00  0.00     0.124 A
BRANCH  15  18
HETATM   18  C9  UNL     1     -11.057  -5.599  -4.992  1.00  0.00     0.178 C
BRANCH  18  19
HETATM   19  C10 UNL     1     -10.625  -7.017  -5.356  1.00  0.00     0.294 C
BRANCH  19  20
HETATM   20  N3  UNL     1     -11.779  -7.852  -5.621  1.00  0.00     0.090 N
HETATM   21  C11 UNL     1     -12.913  -7.060  -6.038  1.00  0.00     0.272 C
HETATM   22  C12 UNL     1     -13.619  -7.787  -7.131  1.00  0.00     0.032 C
HETATM   23  C13 UNL     1     -12.666  -8.872  -7.580  1.00  0.00     0.032 C
HETATM   24  C14 UNL     1     -11.432  -8.697  -6.746  1.00  0.00     0.272 C
ENDBRANCH  19  20
ENDBRANCH  18  19
ENDBRANCH  15  18
ENDBRANCH   2  12
BRANCH   1  25
HETATM   25  C4  UNL     1      -9.600  -2.200  -0.686  1.00  0.00     0.019 A
HETATM   26  C3  UNL     1      -9.520  -0.941  -1.217  1.00  0.00     0.028 A
HETATM   27  C2  UNL     1     -10.669  -0.279  -1.408  1.00  0.00    -0.032 A
HETATM   28  C1  UNL     1     -10.715   1.130  -1.990  1.00  0.00     0.050 C
HETATM   29  C20 UNL     1     -11.828  -0.921  -1.053  1.00  0.00     0.081 A
HETATM   30  S2  UNL     1     -11.274  -2.420  -0.469  1.00  0.00    -0.077 SA
HETATM   31 CL1  UNL     1     -13.485  -0.304  -1.188  1.00  0.00    -0.076 Cl
ENDBRANCH   1  25
BRANCH  10  32
HETATM   32  N6  UNL     1      -8.902  -1.391   1.949  1.00  0.00    -0.385 N
ATOM     33  H62 UNL     1      -9.854  -1.623   2.234  1.00  0.00     0.157 HD
ATOM     34  H61 UNL     1      -8.625  -0.450   1.671  1.00  0.00     0.157 HD
ENDBRANCH  10  32
TORSDOF 6
ENDMDL