MODEL 4
REMARK VINA RESULT: -5.574962833      2.766      6.045
REMARK  5 active torsions:
REMARK  status: ('A' for Active; 'I' for Inactive)
REMARK    1  A    between atoms: C12_16  and  O4_17
REMARK    2  A    between atoms: C12_16  and  C13_19
REMARK    3  A    between atoms: C13_19  and  N1_20
REMARK    4  A    between atoms: N1_20  and  C14_22
REMARK    5  A    between atoms: C14_22  and  C15_23
ROOT
HETATM    1  C1  UNL     1      -8.534  -5.702  -3.576  1.00  0.00     0.043 C
HETATM    2  C2  UNL     1      -8.843  -4.597  -2.628  1.00  0.00    -0.087 C
HETATM    3  C3  UNL     1     -10.005  -3.957  -2.682  1.00  0.00    -0.024 C
HETATM    4  C4  UNL     1     -10.393  -2.846  -1.780  1.00  0.00     0.030 C
HETATM    5  C5  UNL     1     -11.837  -2.838  -1.408  1.00  0.00     0.044 C
HETATM    6  C6  UNL     1     -12.098  -2.915   0.055  1.00  0.00     0.084 A
HETATM    7  C7  UNL     1     -13.234  -3.818   0.521  1.00  0.00     0.049 C
HETATM    8  O1  UNL     1     -10.913  -2.984   0.816  1.00  0.00    -0.370 OA
HETATM    9  C8  UNL     1     -11.687  -1.859   0.913  1.00  0.00     0.158 A
HETATM   10  C9  UNL     1     -11.314  -0.542   0.337  1.00  0.00     0.054 C
HETATM   11  C10 UNL     1     -10.123   0.090   0.978  1.00  0.00     0.106 C
HETATM   12  C11 UNL     1      -9.247   0.780  -0.069  1.00  0.00     0.026 C
HETATM   13  S1  UNL     1      -9.073  -1.055   1.876  1.00  0.00     0.161 S
HETATM   14  O2  UNL     1      -8.568  -0.415   3.161  1.00  0.00    -0.228 OA
HETATM   15  O3  UNL     1      -7.820  -1.625   0.904  1.00  0.00    -0.228 OA
HETATM   16  C12 UNL     1      -6.923  -2.464   1.554  1.00  0.00     0.314 C
HETATM   17  O5  UNL     1      -5.988  -3.007   0.737  1.00  0.00    -0.294 OA
HETATM   18  C16 UNL     1      -5.270  -2.831  -0.362  1.00  0.00     0.045 C
HETATM   19  C17 UNL     1      -3.751  -2.638  -0.353  1.00  0.00     0.076 C
HETATM   20  C18 UNL     1      -5.772  -2.802  -1.611  1.00  0.00     0.005 C
HETATM   21  C19 UNL     1      -7.159  -2.953  -2.033  1.00  0.00     0.034 C
HETATM   22  C20 UNL     1      -7.795  -4.249  -1.620  1.00  0.00     0.037 C
ENDROOT
BRANCH  16  23
HETATM   23  O4  UNL     1      -6.260  -1.618   2.486  1.00  0.00    -0.341 OA
ATOM     24  H4  UNL     1      -6.935  -1.380   3.110  1.00  0.00     0.215 HD
ENDBRANCH  16  23
BRANCH  16  25
HETATM   25  C13 UNL     1      -7.688  -3.440   2.414  1.00  0.00     0.217 C
BRANCH  25  26
HETATM   26  N1  UNL     1      -7.825  -4.758   1.923  1.00  0.00    -0.413 N
ATOM     27  H1  UNL     1      -7.862  -4.932   0.919  1.00  0.00     0.153 HD
BRANCH  26  28
HETATM   28  C14 UNL     1      -7.910  -5.831   2.835  1.00  0.00     0.129 C
BRANCH  28  29
HETATM   29  C15 UNL     1      -6.877  -6.930   2.510  1.00  0.00     0.134 C
HETATM   30 CL1  UNL     1      -6.082  -6.420   0.987  1.00  0.00    -0.129 Cl
ENDBRANCH  28  29
ENDBRANCH  26  28
ENDBRANCH  25  26
ENDBRANCH  16  25
TORSDOF 5
ENDMDL