MODEL 3
REMARK VINA RESULT: -6.974707825      3.171      4.323
REMARK  7 active torsions:
REMARK  status: ('A' for Active; 'I' for Inactive)
REMARK    1  A    between atoms: C5_5  and  N1_6
REMARK    2  A    between atoms: N2_9  and  C8_10
REMARK    3  A    between atoms: C8_10  and  C9_11
REMARK    4  A    between atoms: C9_11  and  C10_12
REMARK    5  A    between atoms: C10_12  and  N3_13
REMARK    6  A    between atoms: C11_14  and  O1_15
REMARK    7  A    between atoms: C14_19  and  O2_20
ROOT
HETATM    1  N3  UNL     1      -8.202  -2.778   0.136  1.00  0.00    -0.307 N
HETATM    2  C11 UNL     1      -8.996  -3.421   1.008  1.00  0.00     0.152 A
HETATM    3  C12 UNL     1     -10.117  -2.633   1.285  1.00  0.00     0.018 A
HETATM    4  C13 UNL     1      -9.993  -1.514   0.575  1.00  0.00     0.018 A
HETATM    5  C14 UNL     1      -8.784  -1.604  -0.151  1.00  0.00     0.152 A
HETATM    6  C15 UNL     1     -11.072  -0.508   0.692  1.00  0.00     0.086 C
HETATM    7  C16 UNL     1     -12.109  -0.649  -0.392  1.00  0.00     0.020 C
HETATM    8  C17 UNL     1     -13.188  -1.655  -0.040  1.00  0.00     0.002 C
HETATM    9  C18 UNL     1     -12.637  -3.055   0.015  1.00  0.00     0.002 C
HETATM   10  C19 UNL     1     -12.358  -3.528   1.401  1.00  0.00     0.020 C
HETATM   11  C20 UNL     1     -11.314  -2.766   2.137  1.00  0.00     0.086 C
HETATM   12  S1  UNL     1     -11.843  -1.010   2.253  1.00  0.00    -0.150 SA
ENDROOT
BRANCH   1  13
HETATM   13  C10 UNL     1      -6.946  -3.214  -0.427  1.00  0.00     0.135 C
BRANCH  13  14
HETATM   14  C9  UNL     1      -7.115  -4.167  -1.582  1.00  0.00     0.040 C
BRANCH  14  15
HETATM   15  C8  UNL     1      -7.148  -3.363  -2.855  1.00  0.00     0.123 C
BRANCH  15  16
HETATM   16  N2  UNL     1      -8.344  -3.449  -3.606  1.00  0.00    -0.390 N
HETATM   17  C7  UNL     1      -8.188  -4.052  -4.900  1.00  0.00     0.141 C
HETATM   18  C6  UNL     1      -8.505  -5.525  -4.913  1.00  0.00     0.143 C
HETATM   19  N1  UNL     1      -9.801  -5.701  -4.333  1.00  0.00    -0.369 N
HETATM   20  C22 UNL     1     -10.088  -5.100  -3.072  1.00  0.00     0.167 C
HETATM   21  C21 UNL     1      -9.556  -3.695  -2.950  1.00  0.00     0.078 C
BRANCH  19  22
HETATM   22  C5  UNL     1     -10.788  -6.482  -5.038  1.00  0.00     0.072 A
HETATM   23  C4  UNL     1     -10.801  -7.826  -5.279  1.00  0.00     0.038 A
HETATM   24  C3  UNL     1     -11.846  -8.318  -5.967  1.00  0.00     0.017 A
HETATM   25  C2  UNL     1     -12.805  -7.431  -6.367  1.00  0.00    -0.019 A
HETATM   26  C1  UNL     1     -14.063  -7.735  -7.145  1.00  0.00     0.056 C
HETATM   27  S2  UNL     1     -12.224  -5.942  -5.772  1.00  0.00    -0.078 SA
ENDBRANCH  19  22
ENDBRANCH  15  16
ENDBRANCH  14  15
ENDBRANCH  13  14
ENDBRANCH   1  13
BRANCH   2  28
HETATM   28  O1  UNL     1      -8.667  -4.675   1.501  1.00  0.00    -0.345 OA
ATOM     29  H1  UNL     1      -9.159  -5.077   2.207  1.00  0.00     0.219 HD
ENDBRANCH   2  28
BRANCH   5  30
HETATM   30  O2  UNL     1      -8.262  -0.654  -1.020  1.00  0.00    -0.345 OA
ATOM     31  H2  UNL     1      -8.768   0.033  -1.438  1.00  0.00     0.219 HD
ENDBRANCH   5  30
TORSDOF 7
ENDMDL