MODEL 3
REMARK VINA RESULT: -5.164886307      2.608      3.687
REMARK  8 active torsions:
REMARK  status: ('A' for Active; 'I' for Inactive)
REMARK    1  A    between atoms: C2_2  and  C3_3
REMARK    2  A    between atoms: C3_3  and  C4_4
REMARK    3  A    between atoms: C6_7  and  C7_8
REMARK    4  A    between atoms: C7_8  and  N1_9
REMARK       I    between atoms: N1_9  and  C8_11
REMARK    5  A    between atoms: C8_11  and  O3_13
REMARK    6  A    between atoms: O3_13  and  C9_14
REMARK    7  A    between atoms: C18_25  and  S1_26
REMARK    8  A    between atoms: C20_28  and  O5_29
ROOT
HETATM    1  C3  UNL     1     -10.173  -2.687  -1.174  1.00  0.00     0.075 A
HETATM    2  C6  UNL     1      -9.833  -3.680  -2.229  1.00  0.00    -0.038 A
HETATM    3  C13 UNL     1      -8.766  -4.417  -2.183  1.00  0.00     0.061 A
HETATM    4  C14 UNL     1      -7.766  -4.421  -1.121  1.00  0.00     0.183 A
HETATM    5  O4  UNL     1      -6.736  -5.127  -1.114  1.00  0.00    -0.288 OA
HETATM    6  C15 UNL     1      -8.072  -3.506  -0.027  1.00  0.00     0.026 A
HETATM    7  C16 UNL     1      -7.214  -3.466   1.076  1.00  0.00     0.041 A
HETATM    8  C17 UNL     1      -7.496  -2.669   2.160  1.00  0.00     0.054 A
HETATM    9 CL1  UNL     1      -6.429  -2.614   3.538  1.00  0.00    -0.083 Cl
HETATM   10  C18 UNL     1      -8.643  -1.910   2.139  1.00  0.00     0.055 A
HETATM   11  C20 UNL     1      -9.505  -1.923   1.075  1.00  0.00     0.092 A
HETATM   12  C21 UNL     1      -9.181  -2.755  -0.028  1.00  0.00     0.011 A
ENDROOT
BRANCH   2  13
HETATM   13  C7  UNL     1     -10.813  -3.905  -3.346  1.00  0.00     0.160 C
BRANCH  13  14
HETATM   14  N1  UNL     1     -10.581  -5.097  -4.100  1.00  0.00    -0.333 N
HETATM   15  C8  UNL     1     -11.309  -5.275  -5.362  1.00  0.00     0.361 C
HETATM   16  O2  UNL     1     -12.107  -4.389  -5.743  1.00  0.00    -0.238 OA
ATOM     17  H1  UNL     1      -9.925  -5.806  -3.769  1.00  0.00     0.165 HD
BRANCH  15  18
HETATM   18  O3  UNL     1     -11.139  -6.384  -6.134  1.00  0.00    -0.294 OA
BRANCH  18  19
HETATM   19  C9  UNL     1     -11.954  -7.505  -6.037  1.00  0.00     0.061 C
HETATM   20  C10 UNL     1     -11.496  -8.562  -7.020  1.00  0.00     0.046 C
HETATM   21  C11 UNL     1     -13.410  -7.240  -6.303  1.00  0.00     0.046 C
HETATM   22  C12 UNL     1     -11.846  -8.034  -4.614  1.00  0.00     0.046 C
ENDBRANCH  18  19
ENDBRANCH  15  18
ENDBRANCH  13  14
ENDBRANCH   2  13
BRANCH   1  23
HETATM   23  C2  UNL     1      -9.955  -1.288  -1.716  1.00  0.00     0.023 C
HETATM   24  C1  UNL     1      -8.694  -0.934  -2.379  1.00  0.00     0.007 C
ENDBRANCH   1  23
BRANCH   1  25
HETATM   25  C4  UNL     1     -11.506  -2.861  -0.616  1.00  0.00     0.140 C
HETATM   26  C5  UNL     1     -12.005  -3.947   0.199  1.00  0.00     0.092 C
HETATM   27  O1  UNL     1     -12.383  -1.973  -0.849  1.00  0.00    -0.297 OA
ENDBRANCH   1  25
BRANCH  11  28
HETATM   28  O5  UNL     1     -10.662  -1.161   1.063  1.00  0.00    -0.359 OA
ATOM     29  H5  UNL     1     -11.356  -1.295   1.699  1.00  0.00     0.217 HD
ENDBRANCH  11  28
BRANCH  10  30
HETATM   30  S1  UNL     1      -9.081  -0.839   3.525  1.00  0.00    -0.130 SA
HETATM   31  C19 UNL     1     -10.210  -1.697   4.643  1.00  0.00     0.095 C
ENDBRANCH  10  30
TORSDOF 8
ENDMDL