MODEL 5
REMARK VINA RESULT: -5.942173608      1.484      2.234
REMARK  7 active torsions:
REMARK  status: ('A' for Active; 'I' for Inactive)
REMARK    1  A    between atoms: C2_2  and  O1_3
REMARK    2  A    between atoms: O1_3  and  C3_4
REMARK    3  A    between atoms: C3_4  and  C4_5
REMARK    4  A    between atoms: C4_5  and  S1_6
REMARK    5  A    between atoms: S1_6  and  C5_7
REMARK    6  A    between atoms: C6_10  and  N2_11
REMARK    7  A    between atoms: C17_27  and  C18_28
ROOT
HETATM    1  C5  UNL     1      -8.656  -3.722   1.237  1.00  0.00     0.079 A
HETATM    2  N1  UNL     1      -9.830  -3.395   1.831  1.00  0.00    -0.336 N
ATOM      3  H1  UNL     1     -10.392  -2.645   1.430  1.00  0.00     0.168 HD
HETATM    4  C6  UNL     1     -10.275  -4.019   2.923  1.00  0.00     0.121 A
HETATM    5  C7  UNL     1      -9.557  -5.024   3.491  1.00  0.00     0.099 A
HETATM    6  C8  UNL     1      -9.970  -5.737   4.661  1.00  0.00     0.104 C
HETATM    7  N3  UNL     1     -10.332  -6.313   5.627  1.00  0.00    -0.191 NA
HETATM    8  C9  UNL     1      -8.338  -5.371   2.878  1.00  0.00     0.009 A
HETATM    9  C10 UNL     1      -7.626  -6.423   3.558  1.00  0.00    -0.021 A
HETATM   10  C11 UNL     1      -6.763  -6.115   4.583  1.00  0.00     0.015 A
HETATM   11  C12 UNL     1      -6.126  -7.074   5.340  1.00  0.00     0.040 A
HETATM   12  C13 UNL     1      -6.373  -8.398   5.045  1.00  0.00     0.105 A
HETATM   13  C14 UNL     1      -7.248  -8.721   4.007  1.00  0.00     0.105 A
HETATM   14  C15 UNL     1      -7.864  -7.737   3.275  1.00  0.00     0.052 A
HETATM   15  O2  UNL     1      -7.340 -10.115   3.898  1.00  0.00    -0.323 OA
HETATM   16  C16 UNL     1      -6.376 -10.681   4.767  1.00  0.00     0.352 C
HETATM   17  O3  UNL     1      -5.930  -9.611   5.571  1.00  0.00    -0.323 OA
HETATM   18  C17 UNL     1      -7.827  -4.768   1.752  1.00  0.00    -0.004 A
ENDROOT
BRANCH   4  19
HETATM   19  N2  UNL     1     -11.405  -3.690   3.481  1.00  0.00    -0.384 N
ATOM     20  H22 UNL     1     -12.169  -4.365   3.439  1.00  0.00     0.157 HD
ATOM     21  H21 UNL     1     -11.527  -2.791   3.945  1.00  0.00     0.157 HD
ENDBRANCH   4  19
BRANCH  18  22
HETATM   22  C18 UNL     1      -6.611  -5.078   1.021  1.00  0.00    -0.021 C
HETATM   23  C19 UNL     1      -6.461  -4.813  -0.436  1.00  0.00     0.019 C
HETATM   24  C20 UNL     1      -5.463  -4.271   1.662  1.00  0.00     0.019 C
HETATM   25  C21 UNL     1      -6.164  -6.540   1.176  1.00  0.00     0.019 C
ENDBRANCH  18  22
BRANCH   1  26
HETATM   26  S1  UNL     1      -8.193  -2.902  -0.247  1.00  0.00    -0.105 SA
BRANCH  26  27
HETATM   27  C4  UNL     1      -9.264  -2.863  -1.624  1.00  0.00     0.148 C
BRANCH  27  28
HETATM   28  C3  UNL     1      -8.576  -2.634  -2.917  1.00  0.00     0.089 C
HETATM   29  C22 UNL     1      -8.407  -3.707  -3.710  1.00  0.00     0.119 C
HETATM   30  C23 UNL     1      -8.892  -5.045  -3.309  1.00  0.00     0.085 C
HETATM   31  F1  UNL     1      -7.790  -3.575  -4.886  1.00  0.00    -0.209 F
BRANCH  28  32
HETATM   32  O1  UNL     1      -8.143  -1.406  -3.260  1.00  0.00    -0.352 OA
BRANCH  32  33
HETATM   33  C2  UNL     1      -8.510  -0.142  -2.827  1.00  0.00     0.171 C
HETATM   34  C1  UNL     1      -7.816   0.942  -3.614  1.00  0.00     0.034 C
ENDBRANCH  32  33
ENDBRANCH  28  32
ENDBRANCH  27  28
ENDBRANCH  26  27
ENDBRANCH   1  26
TORSDOF 7
ENDMDL