MODEL 2
REMARK VINA RESULT: -7.642944839      0.952      1.214
REMARK  7 active torsions:
REMARK  status: ('A' for Active; 'I' for Inactive)
REMARK    1  A    between atoms: N1_1  and  C1_5
REMARK    2  A    between atoms: C1_5  and  C2_6
REMARK    3  A    between atoms: C4_10  and  C5_11
REMARK    4  A    between atoms: C6_14  and  N4_15
REMARK    5  A    between atoms: N4_15  and  C7_17
REMARK    6  A    between atoms: C10_20  and  N5_21
REMARK    7  A    between atoms: C12_25  and  C13_26
ROOT
HETATM    1  C5  UNL     1      -7.679  -5.423   2.451  1.00  0.00     0.090 A
HETATM    2  N3  UNL     1      -8.138  -4.691   1.396  1.00  0.00    -0.189 N
ATOM      3  H3  UNL     1      -9.129  -4.452   1.360  1.00  0.00     0.184 HD
HETATM    4  C6  UNL     1      -7.324  -4.265   0.384  1.00  0.00     0.683 A
HETATM    5  N6  UNL     1      -6.017  -4.558   0.392  1.00  0.00    -0.200 N
ATOM      6  H6  UNL     1      -5.410  -4.239  -0.363  1.00  0.00     0.183 HD
HETATM    7  C19 UNL     1      -5.520  -5.275   1.408  1.00  0.00     0.132 A
HETATM    8  C20 UNL     1      -6.358  -5.710   2.445  1.00  0.00     0.078 A
HETATM    9 CL1  UNL     1      -5.640  -6.621   3.739  1.00  0.00    -0.080 Cl
ENDROOT
BRANCH   4  10
HETATM   10  N4  UNL     1      -7.876  -3.596  -0.569  1.00  0.00    -0.191 N
ATOM     11  H4  UNL     1      -7.863  -2.577  -0.517  1.00  0.00     0.184 HD
BRANCH  10  12
HETATM   12  C7  UNL     1      -8.494  -4.201  -1.677  1.00  0.00     0.056 A
HETATM   13  C8  UNL     1      -7.784  -4.896  -2.644  1.00  0.00     0.033 A
HETATM   14  C9  UNL     1      -8.482  -5.427  -3.721  1.00  0.00     0.038 A
HETATM   15  C10 UNL     1      -9.837  -5.284  -3.851  1.00  0.00     0.103 A
HETATM   16  C11 UNL     1     -10.536  -4.579  -2.864  1.00  0.00     0.045 A
HETATM   17  C12 UNL     1      -9.886  -4.042  -1.789  1.00  0.00    -0.024 A
BRANCH  15  18
HETATM   18  N5  UNL     1     -10.542  -5.830  -4.948  1.00  0.00    -0.116 N
HETATM   19  O1  UNL     1     -11.594  -5.327  -5.396  1.00  0.00    -0.532 OA
HETATM   20  O2  UNL     1     -10.110  -6.969  -5.603  1.00  0.00    -0.532 OA
ENDBRANCH  15  18
BRANCH  17  21
HETATM   21  C13 UNL     1     -10.578  -3.315  -0.688  1.00  0.00     0.021 C
HETATM   22  C14 UNL     1     -10.938  -1.886  -1.085  1.00  0.00     0.009 C
HETATM   23  C15 UNL     1     -12.413  -1.650  -1.171  1.00  0.00     0.001 C
HETATM   24  C16 UNL     1     -12.992  -1.920   0.225  1.00  0.00     0.000 C
HETATM   25  C17 UNL     1     -12.719  -3.341   0.586  1.00  0.00     0.001 C
HETATM   26  C18 UNL     1     -11.873  -4.077  -0.396  1.00  0.00     0.009 C
ENDBRANCH  17  21
ENDBRANCH  10  12
ENDBRANCH   4  10
BRANCH   1  27
HETATM   27  C4  UNL     1      -8.666  -5.805   3.472  1.00  0.00     0.051 A
HETATM   28  C3  UNL     1      -9.331  -6.947   3.765  1.00  0.00     0.110 A
HETATM   29  N2  UNL     1     -10.148  -6.952   4.780  1.00  0.00    -0.361 N
HETATM   30  C2  UNL     1     -10.316  -5.867   5.499  1.00  0.00     0.077 A
ATOM     31  H2  UNL     1     -10.659  -7.803   5.017  1.00  0.00     0.165 HD
HETATM   32  S1  UNL     1      -9.283  -4.763   4.727  1.00  0.00    -0.071 SA
BRANCH  30  33
HETATM   33  C1  UNL     1     -11.182  -5.622   6.693  1.00  0.00     0.294 C
BRANCH  33  34
HETATM   34  N1  UNL     1     -12.301  -4.764   6.267  1.00  0.00    -0.074 N
ATOM     35  H13 UNL     1     -12.050  -3.776   6.227  1.00  0.00     0.274 HD
ATOM     36  H12 UNL     1     -12.537  -4.882   5.281  1.00  0.00     0.274 HD
ATOM     37  H11 UNL     1     -13.088  -4.949   6.889  1.00  0.00     0.274 HD
ENDBRANCH  33  34
ENDBRANCH  30  33
ENDBRANCH   1  27
TORSDOF 7
ENDMDL