MODEL 4
REMARK VINA RESULT: -6.839094982      2.055      5.382
REMARK  7 active torsions:
REMARK  status: ('A' for Active; 'I' for Inactive)
REMARK    1  A    between atoms: N1_1  and  C1_5
REMARK    2  A    between atoms: C1_5  and  C2_6
REMARK    3  A    between atoms: C3_9  and  C4_10
REMARK    4  A    between atoms: C4_10  and  S1_11
REMARK    5  A    between atoms: S1_11  and  C5_14
REMARK    6  A    between atoms: C9_20  and  N3_21
REMARK    7  A    between atoms: N3_21  and  C10_23
ROOT
HETATM    1  C2  UNL     1      -5.869  -2.353  -0.773  1.00  0.00     0.089 A
HETATM    2  N2  UNL     1      -6.235  -3.193  -1.721  1.00  0.00    -0.352 N
ATOM      3  H2  UNL     1      -5.603  -3.386  -2.498  1.00  0.00     0.166 HD
HETATM    4  C3  UNL     1      -7.387  -3.774  -1.673  1.00  0.00     0.058 A
HETATM    5  C9  UNL     1      -8.202  -3.475  -0.602  1.00  0.00     0.096 A
HETATM    6  S3  UNL     1      -7.245  -2.374   0.274  1.00  0.00    -0.055 SA
ENDROOT
BRANCH   4   7
HETATM    7  C4  UNL     1      -7.842  -4.786  -2.709  1.00  0.00     0.206 C
BRANCH   7   8
HETATM    8  S1  UNL     1      -8.746  -3.992  -4.011  1.00  0.00     0.187 S
HETATM    9  O1  UNL     1      -7.870  -3.550  -5.116  1.00  0.00    -0.222 OA
HETATM   10  O2  UNL     1      -9.527  -2.846  -3.425  1.00  0.00    -0.222 OA
BRANCH   8  11
HETATM   11  C5  UNL     1      -9.908  -5.181  -4.642  1.00  0.00     0.101 A
HETATM   12  C6  UNL     1      -9.775  -6.542  -4.736  1.00  0.00     0.033 A
HETATM   13  C7  UNL     1     -10.798  -7.222  -5.260  1.00  0.00     0.033 A
HETATM   14  C8  UNL     1     -11.895  -6.503  -5.660  1.00  0.00     0.075 A
HETATM   15 CL1  UNL     1     -13.381  -7.135  -6.392  1.00  0.00    -0.076 Cl
HETATM   16  S2  UNL     1     -11.457  -4.899  -5.289  1.00  0.00    -0.066 SA
ENDBRANCH   8  11
ENDBRANCH   7   8
ENDBRANCH   4   7
BRANCH   5  17
HETATM   17  N3  UNL     1      -9.545  -3.942  -0.349  1.00  0.00    -0.378 N
ATOM     18  H3  UNL     1      -9.846  -4.856  -0.685  1.00  0.00     0.160 HD
BRANCH  17  19
HETATM   19  C10 UNL     1     -10.470  -3.086   0.395  1.00  0.00     0.082 C
HETATM   20  C11 UNL     1     -11.492  -3.944   1.026  1.00  0.00     0.025 C
HETATM   21  C12 UNL     1     -12.890  -3.749   0.482  1.00  0.00     0.002 C
HETATM   22  C13 UNL     1     -13.180  -2.255   0.290  1.00  0.00     0.000 C
HETATM   23  C14 UNL     1     -12.293  -1.873  -0.889  1.00  0.00     0.002 C
HETATM   24  C15 UNL     1     -10.875  -1.962  -0.452  1.00  0.00     0.025 C
ENDBRANCH  17  19
ENDBRANCH   5  17
BRANCH   1  25
HETATM   25  C1  UNL     1      -4.617  -1.531  -0.586  1.00  0.00     0.172 C
HETATM   26  C16 UNL     1      -3.360  -2.207  -1.042  1.00  0.00     0.046 C
HETATM   27  C17 UNL     1      -2.706  -1.707   0.233  1.00  0.00     0.006 C
HETATM   28  C18 UNL     1      -4.117  -1.597   0.818  1.00  0.00     0.046 C
BRANCH  25  29
HETATM   29  N1  UNL     1      -4.820  -0.201  -1.113  1.00  0.00    -0.064 N
ATOM     30  H13 UNL     1      -4.509  -0.120  -2.080  1.00  0.00     0.275 HD
ATOM     31  H12 UNL     1      -5.809   0.006  -1.258  1.00  0.00     0.275 HD
ATOM     32  H11 UNL     1      -4.370   0.484  -0.506  1.00  0.00     0.275 HD
ENDBRANCH  25  29
ENDBRANCH   1  25
TORSDOF 7
ENDMDL