MODEL 2
REMARK VINA RESULT: -6.546904789      3.032      3.819
REMARK  6 active torsions:
REMARK  status: ('A' for Active; 'I' for Inactive)
REMARK    1  A    between atoms: C2_2  and  C3_3
REMARK       I    between atoms: C3_3  and  N1_5
REMARK    2  A    between atoms: N1_5  and  C4_7
REMARK    3  A    between atoms: C6_12  and  S1_13
REMARK    4  A    between atoms: S1_13  and  S2_14
REMARK    5  A    between atoms: S2_14  and  C7_15
REMARK    6  A    between atoms: C10_22  and  C11_23
ROOT
HETATM    1  C4  UNL     1      -8.200  -3.824  -3.087  1.00  0.00     0.146 A
HETATM    2  N2  UNL     1      -7.640  -4.767  -2.317  1.00  0.00    -0.281 N
ATOM      3  H2  UNL     1      -7.669  -5.768  -2.510  1.00  0.00     0.189 HD
HETATM    4  N3  UNL     1      -7.050  -4.225  -1.281  1.00  0.00    -0.286 N
HETATM    5  C5  UNL     1      -6.345  -4.970  -0.246  1.00  0.00     0.178 C
HETATM    6  C6  UNL     1      -7.213  -2.875  -1.350  1.00  0.00     0.122 A
HETATM    7  C15 UNL     1      -7.942  -2.619  -2.494  1.00  0.00     0.125 A
HETATM    8  C16 UNL     1      -8.319  -1.302  -2.918  1.00  0.00     0.106 C
HETATM    9  N6  UNL     1      -8.610  -0.252  -3.234  1.00  0.00    -0.191 NA
ENDROOT
BRANCH   1  10
HETATM   10  N1  UNL     1      -8.843  -4.072  -4.164  1.00  0.00    -0.311 N
HETATM   11  C3  UNL     1      -9.308  -5.332  -4.587  1.00  0.00     0.222 C
HETATM   12  O1  UNL     1      -8.608  -6.155  -5.234  1.00  0.00    -0.273 OA
ATOM     13  H1  UNL     1      -9.038  -3.280  -4.776  1.00  0.00     0.170 HD
BRANCH  11  14
HETATM   14  C2  UNL     1     -10.703  -5.721  -4.260  1.00  0.00     0.099 C
HETATM   15  C1  UNL     1     -11.032  -6.961  -5.060  1.00  0.00     0.014 C
ENDBRANCH  11  14
ENDBRANCH   1  10
BRANCH   6  16
HETATM   16  S1  UNL     1      -6.553  -1.783  -0.128  1.00  0.00    -0.030 SA
BRANCH  16  17
HETATM   17  S2  UNL     1      -8.035  -1.599   1.381  1.00  0.00    -0.031 SA
BRANCH  17  18
HETATM   18  C7  UNL     1      -8.016  -3.091   2.317  1.00  0.00     0.109 A
HETATM   19  N4  UNL     1      -7.060  -3.656   3.054  1.00  0.00    -0.292 N
HETATM   20  N5  UNL     1      -7.489  -4.785   3.583  1.00  0.00    -0.303 N
ATOM     21  H4  UNL     1      -6.126  -3.269   3.191  1.00  0.00     0.187 HD
HETATM   22  C8  UNL     1      -8.776  -5.004   3.201  1.00  0.00     0.036 A
ATOM     23  H5  UNL     1      -6.941  -5.398   4.187  1.00  0.00     0.186 HD
HETATM   24  C9  UNL     1      -9.574  -6.176   3.608  1.00  0.00     0.070 C
HETATM   25  C10 UNL     1      -9.117  -3.953   2.409  1.00  0.00     0.040 A
BRANCH  25  26
HETATM   26  C11 UNL     1     -10.417  -3.719   1.739  1.00  0.00     0.021 A
HETATM   27  C12 UNL     1     -10.877  -4.035   0.504  1.00  0.00     0.022 A
HETATM   28  C13 UNL     1     -12.133  -3.679   0.182  1.00  0.00     0.033 A
HETATM   29  C14 UNL     1     -12.862  -3.018   1.127  1.00  0.00     0.075 A
HETATM   30 CL1  UNL     1     -14.528  -2.424   1.003  1.00  0.00    -0.076 Cl
HETATM   31  S3  UNL     1     -11.786  -2.910   2.437  1.00  0.00    -0.077 SA
ENDBRANCH  25  26
ENDBRANCH  17  18
ENDBRANCH  16  17
ENDBRANCH   6  16
TORSDOF 6
ENDMDL