MODEL 5
REMARK VINA RESULT: -5.488656485      5.420      7.930
REMARK  8 active torsions:
REMARK  status: ('A' for Active; 'I' for Inactive)
REMARK    1  A    between atoms: C2_2  and  C3_3
REMARK    2  A    between atoms: C4_4  and  C5_5
REMARK    3  A    between atoms: C8_9  and  O1_10
REMARK    4  A    between atoms: C10_12  and  O2_13
REMARK    5  A    between atoms: C14_20  and  S1_21
REMARK    6  A    between atoms: S1_21  and  C15_22
REMARK    7  A    between atoms: C19_28  and  N3_29
REMARK    8  A    between atoms: N3_29  and  N4_31
ROOT
HETATM    1  C3  UNL     1      -7.351  -4.734   1.096  1.00  0.00    -0.005 A
HETATM    2  C4  UNL     1      -8.603  -4.247   1.272  1.00  0.00     0.095 A
HETATM    3  O3  UNL     1      -9.105  -4.860   2.357  1.00  0.00    -0.291 OA
HETATM    4  C13 UNL     1      -8.285  -5.685   2.877  1.00  0.00     0.165 A
HETATM    5  N1  UNL     1      -8.330  -6.521   3.954  1.00  0.00    -0.316 N
ATOM      6  H1  UNL     1      -9.179  -6.542   4.518  1.00  0.00     0.170 HD
HETATM    7  C14 UNL     1      -7.314  -7.312   4.304  1.00  0.00     0.148 A
HETATM    8  N2  UNL     1      -6.211  -7.267   3.551  1.00  0.00    -0.321 N
ATOM      9  H2  UNL     1      -5.426  -7.867   3.807  1.00  0.00     0.169 HD
HETATM   10  C19 UNL     1      -6.078  -6.457   2.453  1.00  0.00     0.136 A
HETATM   11  C20 UNL     1      -7.139  -5.663   2.130  1.00  0.00     0.070 A
ENDROOT
BRANCH   2  12
HETATM   12  C5  UNL     1      -9.427  -3.277   0.574  1.00  0.00     0.003 A
HETATM   13  C6  UNL     1      -9.681  -2.015   0.998  1.00  0.00     0.041 A
HETATM   14  C7  UNL     1     -10.512  -1.137   0.260  1.00  0.00     0.071 A
HETATM   15 CL1  UNL     1     -10.799   0.468   0.857  1.00  0.00    -0.081 Cl
HETATM   16  C8  UNL     1     -11.099  -1.526  -0.916  1.00  0.00     0.123 A
HETATM   17  C10 UNL     1     -10.849  -2.803  -1.358  1.00  0.00     0.104 A
HETATM   18  C12 UNL     1     -10.044  -3.638  -0.635  1.00  0.00     0.054 A
BRANCH  16  19
HETATM   19  O1  UNL     1     -11.919  -0.704  -1.673  1.00  0.00    -0.351 OA
HETATM   20  C9  UNL     1     -13.292  -0.514  -1.379  1.00  0.00     0.210 C
ENDBRANCH  16  19
BRANCH  17  21
HETATM   21  O2  UNL     1     -11.414  -3.254  -2.542  1.00  0.00    -0.353 OA
HETATM   22  C11 UNL     1     -10.776  -4.258  -3.308  1.00  0.00     0.210 C
ENDBRANCH  17  21
ENDBRANCH   2  12
BRANCH   1  23
HETATM   23  C2  UNL     1      -6.379  -4.420   0.059  1.00  0.00     0.038 C
HETATM   24  C1  UNL     1      -6.799  -4.713  -1.349  1.00  0.00     0.010 C
ENDBRANCH   1  23
BRANCH  10  25
HETATM   25  N3  UNL     1      -5.021  -6.456   1.765  1.00  0.00    -0.291 N
ATOM     26  H3  UNL     1      -5.094  -6.868   0.835  1.00  0.00     0.188 HD
BRANCH  25  27
HETATM   27  N4  UNL     1      -3.774  -5.967   2.110  1.00  0.00    -0.344 N
ATOM     28  H42 UNL     1      -2.996  -6.388   1.602  1.00  0.00     0.176 HD
ATOM     29  H41 UNL     1      -3.545  -5.251   2.799  1.00  0.00     0.176 HD
ENDBRANCH  25  27
ENDBRANCH  10  25
BRANCH   7  30
HETATM   30  S1  UNL     1      -7.441  -8.395   5.743  1.00  0.00    -0.085 SA
BRANCH  30  31
HETATM   31  C15 UNL     1      -7.510 -10.103   5.143  1.00  0.00     0.005 C
HETATM   32  C16 UNL     1      -8.339 -10.174   3.882  1.00  0.00     0.026 C
HETATM   33  C17 UNL     1      -6.134 -10.637   4.856  1.00  0.00     0.026 C
HETATM   34  C18 UNL     1      -8.207 -10.907   6.236  1.00  0.00     0.026 C
ENDBRANCH  30  31
ENDBRANCH   7  30
TORSDOF 8
ENDMDL