MODEL 4
REMARK VINA RESULT: -6.512950173      1.687      2.062
REMARK  14 active torsions:
REMARK  status: ('A' for Active; 'I' for Inactive)
REMARK    1  A    between atoms: N1_7  and  C5_8
REMARK    2  A    between atoms: C5_8  and  C6_9
REMARK    3  A    between atoms: C6_9  and  O2_10
REMARK    4  A    between atoms: O2_10  and  C7_11
REMARK    5  A    between atoms: C7_11  and  O3_12
REMARK    6  A    between atoms: C7_11  and  C8_14
REMARK    7  A    between atoms: C10_16  and  N2_17
REMARK    8  A    between atoms: N2_17  and  C11_19
REMARK    9  A    between atoms: C11_19  and  O4_20
REMARK   10  A    between atoms: C11_19  and  N3_22
REMARK   11  A    between atoms: N3_22  and  C12_24
REMARK   12  A    between atoms: C12_24  and  O5_25
REMARK   13  A    between atoms: C12_24  and  O6_27
REMARK   14  A    between atoms: O6_27  and  C13_28
ROOT
HETATM    1  C8  UNL     1      -8.292  -2.252  -2.485  1.00  0.00     0.046 A
HETATM    2  C9  UNL     1      -8.772  -3.372  -3.111  1.00  0.00     0.047 A
HETATM    3  C10 UNL     1      -8.232  -4.590  -2.884  1.00  0.00     0.036 A
HETATM    4  C16 UNL     1      -7.143  -4.718  -1.980  1.00  0.00     0.031 A
HETATM    5  C17 UNL     1      -6.626  -3.624  -1.328  1.00  0.00     0.027 A
HETATM    6  C18 UNL     1      -7.199  -2.404  -1.584  1.00  0.00     0.049 A
HETATM    7 CL1  UNL     1      -6.565  -0.975  -0.790  1.00  0.00    -0.083 Cl
ENDROOT
BRANCH   3   8
HETATM    8  N2  UNL     1      -8.542  -5.861  -3.461  1.00  0.00    -0.322 N
ATOM      9  H2  UNL     1      -8.152  -6.731  -3.097  1.00  0.00     0.169 HD
BRANCH   8  10
HETATM   10  C11 UNL     1      -9.427  -5.839  -4.573  1.00  0.00     0.225 C
BRANCH  10  11
HETATM   11  O4  UNL     1      -8.816  -6.174  -5.693  1.00  0.00    -0.332 OA
ATOM     12  H4  UNL     1      -8.827  -5.466  -6.326  1.00  0.00     0.221 HD
ENDBRANCH  10  11
BRANCH  10  13
HETATM   13  N3  UNL     1     -10.756  -5.523  -4.641  1.00  0.00    -0.282 N
ATOM     14  H3  UNL     1     -11.190  -5.477  -3.720  1.00  0.00     0.173 HD
BRANCH  13  15
HETATM   15  C12 UNL     1     -11.656  -5.250  -5.661  1.00  0.00     0.268 C
BRANCH  15  16
HETATM   16  O5  UNL     1     -12.075  -3.999  -5.780  1.00  0.00    -0.327 OA
ATOM     17  H5  UNL     1     -12.704  -3.688  -5.138  1.00  0.00     0.221 HD
ENDBRANCH  15  16
BRANCH  15  18
HETATM   18  O6  UNL     1     -12.230  -6.062  -6.609  1.00  0.00    -0.275 OA
BRANCH  18  19
HETATM   19  C13 UNL     1     -12.627  -7.409  -6.201  1.00  0.00     0.206 C
HETATM   20  C14 UNL     1     -13.915  -7.754  -6.870  1.00  0.00     0.084 C
HETATM   21  C15 UNL     1     -11.547  -8.378  -6.709  1.00  0.00     0.084 C
HETATM   22  F1  UNL     1     -12.686  -7.480  -4.845  1.00  0.00    -0.212 F
ENDBRANCH  18  19
ENDBRANCH  15  18
ENDBRANCH  13  15
ENDBRANCH  10  13
ENDBRANCH   8  10
ENDBRANCH   3   8
BRANCH   1  23
HETATM   23  C7  UNL     1      -8.736  -0.902  -2.595  1.00  0.00     0.190 C
BRANCH  23  24
HETATM   24  O2  UNL     1      -9.708  -0.228  -1.879  1.00  0.00    -0.328 OA
BRANCH  24  25
HETATM   25  C6  UNL     1     -10.917  -0.841  -1.550  1.00  0.00     0.198 C
BRANCH  25  26
HETATM   26  C5  UNL     1     -11.294  -0.888  -0.125  1.00  0.00     0.159 C
BRANCH  26  27
HETATM   27  N1  UNL     1     -10.344  -1.858   0.568  1.00  0.00    -0.310 N
HETATM   28  C2  UNL     1     -10.388  -3.157   0.432  1.00  0.00     0.018 A
HETATM   29  C1  UNL     1     -11.379  -3.918  -0.446  1.00  0.00     0.069 C
HETATM   30  C3  UNL     1      -9.451  -3.895   1.112  1.00  0.00     0.080 A
HETATM   31  S1  UNL     1      -8.551  -2.693   1.920  1.00  0.00    -0.039 SA
HETATM   32  C4  UNL     1      -9.398  -1.331   1.357  1.00  0.00     0.290 A
HETATM   33  O1  UNL     1      -9.193  -0.078   1.615  1.00  0.00    -0.260 OA
ENDBRANCH  26  27
ENDBRANCH  25  26
ENDBRANCH  24  25
ENDBRANCH  23  24
BRANCH  23  34
HETATM   34  O3  UNL     1      -8.133  -0.151  -3.493  1.00  0.00    -0.340 OA
ATOM     35  H3  UNL     1      -8.732   0.379  -4.005  1.00  0.00     0.220 HD
ENDBRANCH  23  34
ENDBRANCH   1  23
TORSDOF 14
ENDMDL