MODEL 3
REMARK VINA RESULT: -7.888529743      2.536      7.261
REMARK  2 active torsions:
REMARK  status: ('A' for Active; 'I' for Inactive)
REMARK    1  A    between atoms: C1_2  and  C2_4
REMARK    2  A    between atoms: C2_4  and  C3_5
ROOT
HETATM    1  C3  UNL     1      32.997 -27.658 -25.462  1.00  0.00    -0.006 C
HETATM    2  C4  UNL     1      33.574 -26.940 -26.664  1.00  0.00     0.010 C
HETATM    3  C5  UNL     1      33.364 -25.445 -26.606  1.00  0.00     0.072 C
HETATM    4  C6  UNL     1      31.893 -25.086 -26.623  1.00  0.00     0.200 C
HETATM    5  C7  UNL     1      31.108 -26.354 -26.299  1.00  0.00     0.072 C
HETATM    6  C8  UNL     1      31.753 -26.939 -25.055  1.00  0.00     0.010 C
HETATM    7  O2  UNL     1      31.588 -24.064 -25.728  1.00  0.00    -0.197 OA
HETATM    8  O3  UNL     1      30.519 -23.493 -26.286  1.00  0.00    -0.197 OA
HETATM    9  C9  UNL     1      30.818 -23.450 -27.628  1.00  0.00     0.200 C
HETATM   10  C10 UNL     1      31.723 -22.337 -28.021  1.00  0.00     0.071 C
HETATM   11  C11 UNL     1      31.066 -21.021 -28.223  1.00  0.00     0.006 C
HETATM   12  C12 UNL     1      29.686 -21.056 -28.758  1.00  0.00     0.000 C
HETATM   13  C13 UNL     1      28.842 -22.191 -28.246  1.00  0.00     0.006 C
HETATM   14  C14 UNL     1      29.566 -23.500 -28.488  1.00  0.00     0.071 C
HETATM   15  O4  UNL     1      31.498 -24.659 -27.872  1.00  0.00    -0.313 OA
ENDROOT
BRANCH   1  16
HETATM   16  C2  UNL     1      34.028 -27.761 -24.367  1.00  0.00     0.104 C
BRANCH  16  17
HETATM   17  C1  UNL     1      33.656 -28.697 -23.305  1.00  0.00     0.231 C
HETATM   18  N1  UNL     1      33.265 -30.034 -23.676  1.00  0.00    -0.062 NA
HETATM   19  O1  UNL     1      33.639 -28.466 -22.077  1.00  0.00    -0.277 OA
ENDBRANCH  16  17
ENDBRANCH   1  16
TORSDOF 2
ENDMDL