MODEL 3
REMARK VINA RESULT: -5.967701138      2.065      5.414
REMARK  3 active torsions:
REMARK  status: ('A' for Active; 'I' for Inactive)
REMARK    1  A    between atoms: C2_2  and  C3_3
REMARK    2  A    between atoms: C3_3  and  C4_4
REMARK    3  A    between atoms: C12_15  and  O4_16
ROOT
HETATM    1  C4  UNL     1      31.922 -24.280 -27.047  1.00  0.00     0.102 C
HETATM    2  C5  UNL     1      32.942 -23.562 -27.874  1.00  0.00     0.050 C
HETATM    3  O1  UNL     1      31.639 -25.557 -27.683  1.00  0.00    -0.229 OA
HETATM    4  O2  UNL     1      30.884 -26.161 -26.791  1.00  0.00    -0.231 OA
HETATM    5  C6  UNL     1      31.392 -25.900 -25.526  1.00  0.00     0.201 C
HETATM    6  C7  UNL     1      31.734 -27.095 -24.755  1.00  0.00     0.160 C
HETATM    7  O3  UNL     1      31.486 -26.964 -23.368  1.00  0.00    -0.383 OA
HETATM    8  C8  UNL     1      31.681 -28.237 -22.831  1.00  0.00     0.168 C
HETATM    9  C9  UNL     1      33.158 -28.548 -22.677  1.00  0.00     0.027 C
HETATM   10  C10 UNL     1      33.888 -27.564 -23.602  1.00  0.00     0.012 C
HETATM   11  C11 UNL     1      33.119 -27.632 -24.929  1.00  0.00     0.046 C
HETATM   12  C12 UNL     1      33.916 -26.934 -25.990  1.00  0.00     0.125 C
HETATM   13  C13 UNL     1      33.822 -25.458 -25.991  1.00  0.00     0.047 C
HETATM   14  C14 UNL     1      32.454 -24.870 -25.766  1.00  0.00     0.024 C
HETATM   15  C15 UNL     1      32.573 -23.859 -24.665  1.00  0.00     0.021 C
ENDROOT
BRANCH   1  16
HETATM   16  C3  UNL     1      30.594 -23.637 -27.006  1.00  0.00     0.041 C
BRANCH  16  17
HETATM   17  C2  UNL     1      30.163 -22.832 -28.189  1.00  0.00    -0.002 C
HETATM   18  C1  UNL     1      28.907 -23.533 -28.746  1.00  0.00     0.005 C
ENDBRANCH  16  17
ENDBRANCH   1  16
BRANCH  12  19
HETATM   19  O4  UNL     1      33.693 -27.529 -27.250  1.00  0.00    -0.395 OA
ATOM     20  H4  UNL     1      33.609 -28.471 -27.163  1.00  0.00     0.210 HD
ENDBRANCH  12  19
TORSDOF 3
ENDMDL