MODEL 2
REMARK VINA RESULT: -8.658131439      1.095      1.919
REMARK  2 active torsions:
REMARK  status: ('A' for Active; 'I' for Inactive)
REMARK    1  A    between atoms: C2_2  and  C3_3
REMARK    2  A    between atoms: N3_13  and  C9_14
ROOT
HETATM    1  C1  UNL     1      32.071 -27.032 -24.143  1.00  0.00     0.139 A
HETATM    2  C2  UNL     1      32.942 -28.093 -24.031  1.00  0.00     0.048 A
HETATM    3  N1  UNL     1      33.832 -27.928 -25.026  1.00  0.00    -0.289 N
ATOM      4  H1  UNL     1      34.619 -28.543 -25.229  1.00  0.00     0.188 HD
HETATM    5  N2  UNL     1      33.514 -26.833 -25.698  1.00  0.00    -0.240 N
ATOM      6  H2  UNL     1      34.029 -26.480 -26.505  1.00  0.00     0.208 HD
HETATM    7  N3  UNL     1      32.443 -26.261 -25.187  1.00  0.00    -0.281 N
ENDROOT
BRANCH   7   8
HETATM    8  C9  UNL     1      31.814 -25.042 -25.670  1.00  0.00     0.137 C
HETATM    9  C10 UNL     1      31.492 -25.256 -27.117  1.00  0.00     0.035 C
HETATM   10  C11 UNL     1      31.895 -24.086 -27.993  1.00  0.00     0.016 C
HETATM   11  C12 UNL     1      33.359 -24.163 -28.309  1.00  0.00     0.008 C
HETATM   12  C15 UNL     1      31.512 -22.859 -27.218  1.00  0.00     0.277 C
HETATM   13  C13 UNL     1      34.148 -22.962 -27.946  1.00  0.00     0.031 C
HETATM   14  C14 UNL     1      33.688 -22.203 -26.762  1.00  0.00     0.272 C
HETATM   15  N4  UNL     1      32.473 -22.709 -26.159  1.00  0.00     0.090 N
HETATM   16  C16 UNL     1      32.698 -23.882 -25.383  1.00  0.00     0.299 C
ENDBRANCH   7   8
BRANCH   2  17
HETATM   17  C3  UNL     1      32.898 -29.178 -23.022  1.00  0.00     0.038 C
HETATM   18  C4  UNL     1      34.165 -29.996 -23.118  1.00  0.00     0.011 C
HETATM   19  C5  UNL     1      34.654 -30.445 -21.762  1.00  0.00     0.001 C
HETATM   20  C6  UNL     1      33.517 -30.760 -20.817  1.00  0.00     0.000 C
HETATM   21  C7  UNL     1      32.698 -29.539 -20.550  1.00  0.00     0.001 C
HETATM   22  C8  UNL     1      32.740 -28.529 -21.669  1.00  0.00     0.011 C
ENDBRANCH   2  17
TORSDOF 2
ENDMDL