MODEL 3
REMARK VINA RESULT: -6.153517606      2.742      3.602
REMARK  2 active torsions:
REMARK  status: ('A' for Active; 'I' for Inactive)
REMARK    1  A    between atoms: C4_7  and  N3_8
REMARK    2  A    between atoms: N3_8  and  C5_10
ROOT
HETATM    1  C1  UNL     1      29.462 -22.681 -28.897  1.00  0.00     0.111 A
HETATM    2  C2  UNL     1      29.609 -21.458 -28.289  1.00  0.00     0.068 A
HETATM    3  C3  UNL     1      30.357 -21.661 -27.116  1.00  0.00     0.125 A
HETATM    4  N1  UNL     1      30.640 -22.964 -27.037  1.00  0.00    -0.252 N
HETATM    5  N2  UNL     1      30.084 -23.545 -28.128  1.00  0.00    -0.306 N
ATOM      6  H2  UNL     1      30.142 -24.543 -28.329  1.00  0.00     0.186 HD
HETATM    7  C4  UNL     1      31.358 -23.583 -25.956  1.00  0.00     0.216 A
HETATM    8  C11 UNL     1      31.899 -22.610 -24.971  1.00  0.00     0.075 A
HETATM    9  C12 UNL     1      33.445 -22.632 -24.934  1.00  0.00     0.014 C
HETATM   10  C13 UNL     1      33.870 -21.781 -23.768  1.00  0.00     0.001 C
HETATM   11  C14 UNL     1      33.575 -20.333 -24.101  1.00  0.00     0.006 C
HETATM   12  C15 UNL     1      32.038 -20.233 -24.138  1.00  0.00     0.053 C
HETATM   13  C16 UNL     1      31.528 -21.205 -25.152  1.00  0.00    -0.004 A
HETATM   14  N4  UNL     1      30.831 -20.777 -26.124  1.00  0.00    -0.348 N
ATOM     15  H4  UNL     1      30.612 -19.782 -26.189  1.00  0.00     0.167 HD
ENDROOT
BRANCH   7  16
HETATM   16  N3  UNL     1      32.372 -24.443 -26.373  1.00  0.00    -0.373 N
ATOM     17  H3  UNL     1      33.093 -24.060 -26.985  1.00  0.00     0.161 HD
BRANCH  16  18
HETATM   18  C5  UNL     1      32.478 -25.778 -26.018  1.00  0.00    -0.016 C
HETATM   19  C6  UNL     1      33.746 -26.276 -25.382  1.00  0.00     0.052 C
HETATM   20  C7  UNL     1      33.570 -27.744 -25.078  1.00  0.00     0.006 C
HETATM   21  C8  UNL     1      32.574 -27.946 -23.964  1.00  0.00     0.001 C
HETATM   22  C9  UNL     1      31.487 -26.907 -23.990  1.00  0.00     0.006 C
HETATM   23  C10 UNL     1      31.310 -26.523 -25.456  1.00  0.00     0.052 C
ENDBRANCH  16  18
ENDBRANCH   7  16
TORSDOF 2
ENDMDL