MODEL 3
REMARK VINA RESULT: -6.684288020      3.323      5.917
REMARK  2 active torsions:
REMARK  status: ('A' for Active; 'I' for Inactive)
REMARK    1  A    between atoms: C9_13  and  C10_14
REMARK    2  A    between atoms: C10_14  and  C11_15
ROOT
HETATM    1  C11 UNL     1      35.902 -23.781 -29.662  1.00  0.00    -0.015 C
HETATM    2  C12 UNL     1      36.493 -23.628 -30.829  1.00  0.00     0.089 C
HETATM    3  C13 UNL     1      35.751 -23.066 -31.937  1.00  0.00     0.087 C
HETATM    4  N2  UNL     1      35.170 -22.601 -32.822  1.00  0.00    -0.192 NA
ENDROOT
BRANCH   1   5
HETATM    5  C10 UNL     1      34.489 -23.379 -29.487  1.00  0.00     0.041 C
BRANCH   5   6
HETATM    6  C9  UNL     1      34.142 -22.979 -28.093  1.00  0.00     0.078 C
HETATM    7  C4  UNL     1      33.098 -23.910 -27.546  1.00  0.00     0.021 C
HETATM    8  C3  UNL     1      33.483 -25.309 -27.416  1.00  0.00    -0.009 C
HETATM    9  C5  UNL     1      31.771 -23.637 -28.222  1.00  0.00     0.058 C
HETATM   10  C14 UNL     1      32.425 -23.381 -26.264  1.00  0.00     0.170 C
HETATM   11  C2  UNL     1      33.150 -26.008 -26.343  1.00  0.00    -0.058 C
HETATM   12  C1  UNL     1      33.554 -27.435 -26.232  1.00  0.00     0.046 C
HETATM   13  C15 UNL     1      32.374 -25.429 -25.210  1.00  0.00     0.146 C
HETATM   14  O2  UNL     1      31.639 -24.365 -25.725  1.00  0.00    -0.372 OA
HETATM   15  C16 UNL     1      31.456 -26.499 -24.701  1.00  0.00     0.044 C
HETATM   16  C6  UNL     1      31.603 -22.502 -27.198  1.00  0.00     0.093 C
HETATM   17  C7  UNL     1      30.206 -22.232 -26.777  1.00  0.00     0.049 C
HETATM   18  O1  UNL     1      32.318 -21.392 -27.726  1.00  0.00    -0.326 OA
HETATM   19  C8  UNL     1      33.675 -21.585 -27.948  1.00  0.00     0.118 C
HETATM   20  N1  UNL     1      34.449 -20.566 -28.015  1.00  0.00    -0.383 N
ATOM     21  H12 UNL     1      34.126 -19.603 -27.915  1.00  0.00     0.158 HD
ATOM     22  H11 UNL     1      35.446 -20.707 -28.179  1.00  0.00     0.158 HD
ENDBRANCH   5   6
ENDBRANCH   1   5
TORSDOF 2
ENDMDL