MODEL 2
REMARK VINA RESULT: -7.556007797      0.783      1.431
REMARK  2 active torsions:
REMARK  status: ('A' for Active; 'I' for Inactive)
REMARK    1  A    between atoms: C6_6  and  N1_7
REMARK    2  A    between atoms: C8_9  and  C9_10
ROOT
HETATM    1  N1  UNL     1      33.259 -27.688 -24.914  1.00  0.00    -0.282 N
HETATM    2  C7  UNL     1      33.262 -26.359 -24.871  1.00  0.00     0.139 A
HETATM    3  C8  UNL     1      33.373 -25.920 -26.156  1.00  0.00     0.050 A
HETATM    4  N3  UNL     1      33.436 -27.009 -26.943  1.00  0.00    -0.289 N
ATOM      5  H3  UNL     1      33.524 -27.011 -27.959  1.00  0.00     0.188 HD
HETATM    6  N4  UNL     1      33.365 -28.063 -26.178  1.00  0.00    -0.240 N
ATOM      7  H4  UNL     1      33.389 -29.029 -26.504  1.00  0.00     0.208 HD
ENDROOT
BRANCH   3   8
HETATM    8  C9  UNL     1      33.426 -24.534 -26.704  1.00  0.00     0.070 C
HETATM    9  C10 UNL     1      32.372 -24.467 -27.822  1.00  0.00     0.244 C
HETATM   10  N2  UNL     1      31.443 -23.393 -27.424  1.00  0.00    -0.070 N
HETATM   11  C11 UNL     1      32.282 -22.548 -26.676  1.00  0.00     0.190 C
ATOM     12  H22 UNL     1      30.948 -22.941 -28.194  1.00  0.00     0.277 HD
ATOM     13  H21 UNL     1      30.600 -23.705 -26.941  1.00  0.00     0.277 HD
HETATM   14  C12 UNL     1      31.705 -21.642 -25.673  1.00  0.00     0.033 C
HETATM   15  C15 UNL     1      32.875 -23.604 -25.712  1.00  0.00     0.028 C
HETATM   16  C13 UNL     1      32.864 -21.522 -24.670  1.00  0.00     0.002 C
HETATM   17  C14 UNL     1      33.780 -22.724 -24.959  1.00  0.00     0.007 C
ENDBRANCH   3   8
BRANCH   1  18
HETATM   18  C6  UNL     1      33.162 -28.636 -23.825  1.00  0.00     0.109 C
HETATM   19  C5  UNL     1      32.269 -28.030 -22.774  1.00  0.00     0.027 C
HETATM   20  C4  UNL     1      31.810 -29.164 -21.866  1.00  0.00     0.002 C
HETATM   21  C3  UNL     1      32.808 -30.291 -21.893  1.00  0.00     0.004 C
HETATM   22  C2  UNL     1      34.230 -29.743 -21.938  1.00  0.00    -0.017 C
HETATM   23  C1  UNL     1      35.180 -30.943 -21.898  1.00  0.00     0.010 C
HETATM   24  C16 UNL     1      34.481 -28.953 -23.205  1.00  0.00     0.031 C
ENDBRANCH   1  18
TORSDOF 2
ENDMDL