MODEL 4
REMARK VINA RESULT: -7.150970857      2.512      6.827
REMARK  2 active torsions:
REMARK  status: ('A' for Active; 'I' for Inactive)
REMARK    1  A    between atoms: C2_3  and  C3_4
REMARK       I    between atoms: C3_4  and  N2_6
REMARK    2  A    between atoms: C4_8  and  C5_9
ROOT
HETATM    1  N1  UNL     1      31.166 -25.677 -24.315  1.00  0.00    -0.100 NA
HETATM    2  C1  UNL     1      32.119 -25.842 -25.404  1.00  0.00     0.076 A
HETATM    3  C2  UNL     1      32.817 -27.013 -25.509  1.00  0.00     0.098 A
HETATM    4  S1  UNL     1      33.784 -26.762 -26.891  1.00  0.00    -0.087 SA
HETATM    5  C7  UNL     1      33.281 -25.184 -27.297  1.00  0.00    -0.008 A
HETATM    6  C8  UNL     1      32.358 -24.896 -26.326  1.00  0.00    -0.019 A
HETATM    7  C9  UNL     1      31.634 -23.556 -26.299  1.00  0.00     0.042 C
HETATM    8  C10 UNL     1      31.209 -23.214 -27.712  1.00  0.00     0.005 C
HETATM    9  C11 UNL     1      32.267 -22.336 -28.306  1.00  0.00     0.001 C
HETATM   10  C12 UNL     1      33.657 -22.887 -28.162  1.00  0.00     0.005 C
HETATM   11  C13 UNL     1      33.766 -24.348 -28.457  1.00  0.00     0.046 C
ENDROOT
BRANCH   3  12
HETATM   12  C3  UNL     1      32.757 -28.206 -24.648  1.00  0.00     0.264 C
HETATM   13  O1  UNL     1      32.911 -29.319 -25.178  1.00  0.00    -0.267 OA
HETATM   14  N2  UNL     1      32.528 -28.020 -23.278  1.00  0.00    -0.334 N
HETATM   15  C4  UNL     1      33.091 -28.787 -22.421  1.00  0.00     0.098 C
ATOM     16  H2  UNL     1      31.911 -27.271 -22.962  1.00  0.00     0.168 HD
BRANCH  15  17
HETATM   17  C5  UNL     1      33.980 -29.868 -22.874  1.00  0.00     0.183 A
HETATM   18  C6  UNL     1      34.643 -30.753 -21.964  1.00  0.00     0.206 A
HETATM   19  O2  UNL     1      33.463 -31.153 -22.595  1.00  0.00    -0.376 OA
ENDBRANCH  15  17
ENDBRANCH   3  12
TORSDOF 2
ENDMDL