MODEL 4
REMARK VINA RESULT: -6.300578882      0.936      1.008
REMARK  2 active torsions:
REMARK  status: ('A' for Active; 'I' for Inactive)
REMARK    1  A    between atoms: C2_2  and  O1_3
REMARK    2  A    between atoms: O1_3  and  C3_4
ROOT
HETATM    1  C3  UNL     1      33.606 -25.637 -25.665  1.00  0.00     0.260 C
HETATM    2  C4  UNL     1      33.354 -25.832 -27.164  1.00  0.00     0.068 C
HETATM    3  C5  UNL     1      33.436 -24.429 -27.662  1.00  0.00     0.029 C
HETATM    4  C6  UNL     1      32.181 -23.947 -28.355  1.00  0.00     0.026 C
HETATM    5  C7  UNL     1      30.945 -24.106 -27.568  1.00  0.00     0.009 C
HETATM    6  C8  UNL     1      30.546 -22.934 -26.729  1.00  0.00     0.008 C
HETATM    7  C9  UNL     1      31.567 -22.493 -25.744  1.00  0.00     0.018 C
HETATM    8  C10 UNL     1      31.144 -21.107 -25.239  1.00  0.00     0.013 C
HETATM    9  C11 UNL     1      32.880 -22.272 -26.497  1.00  0.00     0.088 C
HETATM   10  C12 UNL     1      33.695 -21.234 -25.708  1.00  0.00     0.049 C
HETATM   11  O2  UNL     1      32.593 -21.721 -27.691  1.00  0.00    -0.367 OA
HETATM   12  C13 UNL     1      32.475 -22.526 -28.773  1.00  0.00     0.059 C
HETATM   13  C14 UNL     1      31.473 -22.086 -29.801  1.00  0.00     0.046 C
HETATM   14  C15 UNL     1      33.837 -22.524 -29.485  1.00  0.00     0.046 C
HETATM   15  C16 UNL     1      33.636 -23.544 -26.467  1.00  0.00     0.164 C
HETATM   16  O3  UNL     1      33.212 -24.333 -25.401  1.00  0.00    -0.353 OA
ENDROOT
BRANCH   1  17
HETATM   17  O1  UNL     1      32.855 -26.577 -25.009  1.00  0.00    -0.362 OA
BRANCH  17  18
HETATM   18  C2  UNL     1      33.258 -27.838 -25.399  1.00  0.00     0.166 C
HETATM   19  C1  UNL     1      33.699 -28.699 -24.240  1.00  0.00     0.033 C
ENDBRANCH  17  18
ENDBRANCH   1  17
TORSDOF 2
ENDMDL