MODEL 3
REMARK VINA RESULT: -5.643733862      2.197      2.999
REMARK  4 active torsions:
REMARK  status: ('A' for Active; 'I' for Inactive)
REMARK       I    between atoms: C2_2  and  N1_4
REMARK    1  A    between atoms: N1_4  and  C3_6
REMARK    2  A    between atoms: C4_9  and  N3_10
REMARK    3  A    between atoms: N3_10  and  O2_11
REMARK    4  A    between atoms: C5_13  and  C7_15
ROOT
HETATM    1  C3  UNL     1      33.424 -27.272 -25.146  1.00  0.00     0.153 A
HETATM    2  N2  UNL     1      33.360 -25.970 -24.859  1.00  0.00    -0.320 N
ATOM      3  H2  UNL     1      33.972 -25.557 -24.155  1.00  0.00     0.169 HD
HETATM    4  C4  UNL     1      32.492 -25.237 -25.504  1.00  0.00     0.147 A
HETATM    5  C11 UNL     1      31.699 -25.845 -26.435  1.00  0.00     0.029 A
HETATM    6  C12 UNL     1      30.632 -25.230 -27.305  1.00  0.00     0.060 C
HETATM    7  S1  UNL     1      32.236 -27.465 -26.349  1.00  0.00    -0.055 SA
ENDROOT
BRANCH   4   8
HETATM    8  N3  UNL     1      32.353 -23.811 -25.256  1.00  0.00    -0.212 N
HETATM    9  C5  UNL     1      32.997 -22.945 -25.987  1.00  0.00     0.038 C
HETATM   10  C6  UNL     1      32.800 -21.531 -25.671  1.00  0.00     0.071 C
BRANCH   8  11
HETATM   11  O2  UNL     1      31.547 -23.357 -24.256  1.00  0.00    -0.281 OA
ATOM     12  H2  UNL     1      31.090 -22.529 -24.342  1.00  0.00     0.245 HD
ENDBRANCH   8  11
BRANCH   9  13
HETATM   13  C7  UNL     1      33.834 -23.426 -27.025  1.00  0.00     0.029 C
HETATM   14  C8  UNL     1      33.709 -23.325 -28.303  1.00  0.00    -0.086 C
HETATM   15  C9  UNL     1      34.765 -23.939 -29.218  1.00  0.00     0.043 C
HETATM   16  C10 UNL     1      32.616 -22.658 -29.018  1.00  0.00     0.043 C
ENDBRANCH   9  13
ENDBRANCH   4   8
BRANCH   1  17
HETATM   17  N1  UNL     1      34.199 -28.198 -24.641  1.00  0.00    -0.307 N
HETATM   18  C2  UNL     1      33.816 -28.820 -23.428  1.00  0.00     0.219 C
HETATM   19  C1  UNL     1      33.511 -30.260 -23.341  1.00  0.00     0.117 C
HETATM   20  O1  UNL     1      33.736 -28.118 -22.396  1.00  0.00    -0.274 OA
ATOM     21  H1  UNL     1      35.063 -28.467 -25.113  1.00  0.00     0.171 HD
ENDBRANCH   1  17
TORSDOF 4
ENDMDL