MODEL 4
REMARK VINA RESULT: -5.259091964      2.255      6.655
REMARK  4 active torsions:
REMARK  status: ('A' for Active; 'I' for Inactive)
REMARK    1  A    between atoms: C2_2  and  C3_3
REMARK    2  A    between atoms: C2_2  and  C10_19
REMARK       I    between atoms: N3_9  and  C5_11
REMARK    3  A    between atoms: C5_11  and  O2_13
REMARK    4  A    between atoms: O2_13  and  C6_14
ROOT
HETATM    1  C3  UNL     1      32.328 -23.515 -25.403  1.00  0.00     0.074 A
HETATM    2  N1  UNL     1      31.538 -24.450 -24.902  1.00  0.00    -0.296 N
ATOM      3  H1  UNL     1      30.628 -24.197 -24.516  1.00  0.00     0.187 HD
HETATM    4  N2  UNL     1      31.917 -25.669 -24.902  1.00  0.00    -0.279 N
ATOM      5  H2  UNL     1      31.318 -26.400 -24.518  1.00  0.00     0.189 HD
HETATM    6  C4  UNL     1      33.111 -25.967 -25.413  1.00  0.00     0.169 A
HETATM    7  N3  UNL     1      33.677 -27.150 -25.504  1.00  0.00    -0.281 N
ATOM      8  H3  UNL     1      34.603 -27.258 -25.917  1.00  0.00     0.173 HD
HETATM    9  C5  UNL     1      32.970 -28.266 -25.017  1.00  0.00     0.367 C
HETATM   10  O1  UNL     1      32.630 -29.143 -25.883  1.00  0.00    -0.238 OA
HETATM   11  S1  UNL     1      33.678 -24.428 -25.897  1.00  0.00    -0.037 SA
ENDROOT
BRANCH   9  12
HETATM   12  O2  UNL     1      32.623 -28.484 -23.710  1.00  0.00    -0.294 OA
BRANCH  12  13
HETATM   13  C6  UNL     1      33.523 -29.175 -22.856  1.00  0.00     0.061 C
HETATM   14  C7  UNL     1      33.403 -30.658 -22.970  1.00  0.00     0.046 C
HETATM   15  C8  UNL     1      34.937 -28.784 -23.296  1.00  0.00     0.046 C
HETATM   16  C9  UNL     1      33.329 -28.787 -21.403  1.00  0.00     0.046 C
ENDBRANCH  12  13
ENDBRANCH   9  12
BRANCH   1  17
HETATM   17  C2  UNL     1      32.040 -22.039 -25.481  1.00  0.00     0.044 C
HETATM   18  C1  UNL     1      31.944 -21.713 -26.956  1.00  0.00     0.017 C
BRANCH  17  19
HETATM   19  C10 UNL     1      33.141 -21.227 -24.894  1.00  0.00    -0.004 A
HETATM   20  C11 UNL     1      33.785 -21.585 -23.608  1.00  0.00     0.006 A
HETATM   21  C12 UNL     1      32.772 -20.489 -23.593  1.00  0.00     0.006 A
ENDBRANCH  17  19
ENDBRANCH   1  17
TORSDOF 4
ENDMDL