MODEL 3
REMARK VINA RESULT: -8.160934220      0.883      1.198
REMARK  13 active torsions:
REMARK  status: ('A' for Active; 'I' for Inactive)
REMARK    1  A    between atoms: O1_2  and  N1_3
REMARK    2  A    between atoms: N1_3  and  C2_4
REMARK    3  A    between atoms: N1_3  and  C15_42
REMARK    4  A    between atoms: C2_4  and  C3_5
REMARK    5  A    between atoms: N4_13  and  C7_14
REMARK    6  A    between atoms: C8_18  and  O2_19
REMARK    7  A    between atoms: C9_21  and  C10_22
REMARK    8  A    between atoms: C10_22  and  N8_23
REMARK    9  A    between atoms: C12_29  and  N11_30
REMARK   10  A    between atoms: C15_42  and  C16_43
REMARK   11  A    between atoms: C15_42  and  C17_46
REMARK   12  A    between atoms: C16_43  and  O3_44
REMARK   13  A    between atoms: C17_46  and  O4_47
ROOT
HETATM    1  C3  UNL     1      12.763  10.180 -32.113  1.00  0.00     0.059 A
HETATM    2  N2  UNL     1      13.994  10.424 -31.692  1.00  0.00    -0.339 N
ATOM      3  H2  UNL     1      14.645  11.048 -32.166  1.00  0.00     0.167 HD
HETATM    4  C4  UNL     1      14.288   9.743 -30.550  1.00  0.00     0.137 A
HETATM    5  C5  UNL     1      13.154   9.024 -30.255  1.00  0.00     0.040 A
HETATM    6  C6  UNL     1      13.409   8.306 -29.085  1.00  0.00     0.123 A
HETATM    7  N3  UNL     1      14.647   8.637 -28.753  1.00  0.00    -0.305 N
ATOM      8  H3  UNL     1      15.127   8.274 -27.930  1.00  0.00     0.186 HD
HETATM    9  N4  UNL     1      15.185   9.478 -29.588  1.00  0.00    -0.250 N
HETATM   10  C9  UNL     1      12.192   9.266 -31.191  1.00  0.00     0.025 A
ENDROOT
BRANCH  10  11
HETATM   11  C10 UNL     1      10.874   8.777 -31.315  1.00  0.00     0.134 C
BRANCH  11  12
HETATM   12  N8  UNL     1      10.371   7.524 -30.839  1.00  0.00    -0.233 N
HETATM   13  N9  UNL     1      10.509   6.889 -29.707  1.00  0.00    -0.234 N
HETATM   14  N10 UNL     1       9.747   5.784 -29.696  1.00  0.00    -0.279 N
ATOM     15  H9  UNL     1      11.112   7.189 -28.940  1.00  0.00     0.209 HD
HETATM   16  C11 UNL     1       9.094   5.695 -30.848  1.00  0.00     0.140 A
ATOM     17  H10 UNL     1       9.679   5.120 -28.926  1.00  0.00     0.189 HD
HETATM   18  C12 UNL     1       8.126   4.822 -31.325  1.00  0.00     0.147 A
HETATM   19  C14 UNL     1       9.493   6.790 -31.575  1.00  0.00     0.175 A
HETATM   20  N12 UNL     1       7.590   5.105 -32.545  1.00  0.00    -0.175 N
HETATM   21  C13 UNL     1       8.010   6.202 -33.246  1.00  0.00     0.679 A
ATOM     22  H12 UNL     1       6.872   4.496 -32.937  1.00  0.00     0.186 HD
HETATM   23  N13 UNL     1       7.395   6.487 -34.372  1.00  0.00    -0.234 N
HETATM   24  N14 UNL     1       8.944   7.029 -32.779  1.00  0.00    -0.172 N
ATOM     25 2H13 UNL     1       6.680   5.854 -34.730  1.00  0.00     0.174 HD
ATOM     26 1H13 UNL     1       7.708   7.305 -34.895  1.00  0.00     0.174 HD
ATOM     27  H14 UNL     1       9.240   7.835 -33.329  1.00  0.00     0.186 HD
BRANCH  18  28
HETATM   28  N11 UNL     1       7.732   3.822 -30.641  1.00  0.00    -0.383 N
ATOM     29 2H11 UNL     1       8.286   3.452 -29.869  1.00  0.00     0.157 HD
ATOM     30 1H11 UNL     1       6.861   3.337 -30.855  1.00  0.00     0.157 HD
ENDBRANCH  18  28
ENDBRANCH  11  12
ENDBRANCH  10  11
BRANCH   1  31
HETATM   31  C2  UNL     1      11.957  10.786 -33.167  1.00  0.00     0.120 C
BRANCH  31  32
HETATM   32  N1  UNL     1      10.796  10.192 -33.686  1.00  0.00    -0.163 NA
BRANCH  32  33
HETATM   33  O1  UNL     1      11.075   9.677 -34.973  1.00  0.00    -0.304 OA
HETATM   34  C1  UNL     1      11.493   8.382 -34.927  1.00  0.00     0.230 C
ENDBRANCH  32  33
BRANCH  32  35
HETATM   35  C15 UNL     1       9.601  10.985 -33.895  1.00  0.00     0.138 C
BRANCH  35  36
HETATM   36  C16 UNL     1       9.599  11.330 -35.412  1.00  0.00     0.188 C
BRANCH  36  37
HETATM   37  O3  UNL     1      10.262  12.486 -35.693  1.00  0.00    -0.399 OA
ATOM     38  H3  UNL     1      10.544  12.539 -36.599  1.00  0.00     0.209 HD
ENDBRANCH  36  37
ENDBRANCH  35  36
BRANCH  35  39
HETATM   39  C17 UNL     1       8.417  10.033 -33.684  1.00  0.00     0.188 C
BRANCH  39  40
HETATM   40  O4  UNL     1       8.075  10.190 -32.324  1.00  0.00    -0.399 OA
ATOM     41  H4  UNL     1       7.192   9.845 -32.259  1.00  0.00     0.209 HD
ENDBRANCH  39  40
ENDBRANCH  35  39
ENDBRANCH  32  35
ENDBRANCH  31  32
ENDBRANCH   1  31
BRANCH   9  42
HETATM   42  C7  UNL     1      16.467  10.179 -29.415  1.00  0.00     0.265 C
HETATM   43  N5  UNL     1      16.721  10.154 -27.920  1.00  0.00    -0.098 NA
HETATM   44  N6  UNL     1      17.556   9.037 -27.788  1.00  0.00    -0.035 NA
HETATM   45  N7  UNL     1      18.534   9.393 -28.754  1.00  0.00    -0.094 NA
HETATM   46  C8  UNL     1      17.665   9.510 -29.947  1.00  0.00     0.270 C
BRANCH  46  47
HETATM   47  O2  UNL     1      17.487   8.273 -30.526  1.00  0.00    -0.375 OA
ATOM     48  H2  UNL     1      16.931   8.231 -31.295  1.00  0.00     0.211 HD
ENDBRANCH  46  47
ENDBRANCH   9  42
TORSDOF 13
ENDMDL