MODEL 1
REMARK VINA RESULT: -6.257649978      0.000      0.000
REMARK  15 active torsions:
REMARK  status: ('A' for Active; 'I' for Inactive)
REMARK    1  A    between atoms: N1_2  and  C3_4
REMARK    2  A    between atoms: C3_4  and  C4_5
REMARK    3  A    between atoms: C4_5  and  N2_6
REMARK    4  A    between atoms: N2_6  and  C5_8
REMARK    5  A    between atoms: C6_11  and  N4_12
REMARK    6  A    between atoms: C7_17  and  C8_18
REMARK    7  A    between atoms: C8_18  and  C9_23
REMARK    8  A    between atoms: N6_19  and  O1_21
REMARK    9  A    between atoms: C9_23  and  O2_24
REMARK   10  A    between atoms: C9_23  and  C10_26
REMARK   11  A    between atoms: C10_26  and  N7_27
REMARK   12  A    between atoms: C11_31  and  C12_32
REMARK   13  A    between atoms: C13_37  and  C14_38
REMARK       I    between atoms: C14_38  and  N10_40
REMARK   14  A    between atoms: N10_40  and  N11_42
REMARK   15  A    between atoms: C17_49  and  N14_50
ROOT
HETATM    1  C5  UNL     1      10.037   7.981 -31.552  1.00  0.00     0.132 A
HETATM    2  N3  UNL     1      11.303   8.106 -31.207  1.00  0.00    -0.176 N
ATOM      3  H3  UNL     1      11.639   7.577 -30.402  1.00  0.00     0.186 HD
HETATM    4  C6  UNL     1      12.165   8.889 -31.856  1.00  0.00     0.678 A
HETATM    5  N5  UNL     1      11.713   9.575 -32.908  1.00  0.00    -0.189 N
ATOM      6  H5  UNL     1      12.370  10.174 -33.409  1.00  0.00     0.184 HD
HETATM    7  C7  UNL     1      10.392   9.521 -33.363  1.00  0.00     0.092 A
HETATM    8  C11 UNL     1       9.552   8.718 -32.679  1.00  0.00     0.068 A
ENDROOT
BRANCH   8   9
HETATM    9  C12 UNL     1       8.177   8.452 -33.029  1.00  0.00     0.092 C
HETATM   10  N8  UNL     1       7.246   9.376 -32.667  1.00  0.00    -0.297 N
HETATM   11  N9  UNL     1       5.933   9.225 -32.649  1.00  0.00    -0.293 N
ATOM     12  H8  UNL     1       7.602  10.288 -32.379  1.00  0.00     0.187 HD
HETATM   13  C13 UNL     1       5.118   8.401 -33.327  1.00  0.00     0.144 C
ATOM     14  H9  UNL     1       5.451   9.848 -32.001  1.00  0.00     0.187 HD
HETATM   15  C15 UNL     1       5.493   7.159 -33.846  1.00  0.00     0.106 C
HETATM   16  N12 UNL     1       4.439   6.232 -34.056  1.00  0.00    -0.098 NA
HETATM   17  C16 UNL     1       6.748   6.712 -34.181  1.00  0.00     0.101 C
HETATM   18  N13 UNL     1       6.851   5.546 -35.000  1.00  0.00    -0.098 NA
HETATM   19  C17 UNL     1       7.939   7.321 -33.777  1.00  0.00     0.081 C
BRANCH  13  20
HETATM   20  C14 UNL     1       3.738   8.787 -33.562  1.00  0.00     0.289 C
HETATM   21  O3  UNL     1       3.457   9.551 -34.514  1.00  0.00    -0.264 OA
HETATM   22  N10 UNL     1       2.693   8.316 -32.731  1.00  0.00    -0.271 N
ATOM     23  H10 UNL     1       2.929   7.695 -31.957  1.00  0.00     0.189 HD
BRANCH  22  24
HETATM   24  N11 UNL     1       1.359   8.663 -32.924  1.00  0.00    -0.342 N
ATOM     25 2H11 UNL     1       0.971   8.542 -33.859  1.00  0.00     0.176 HD
ATOM     26 1H11 UNL     1       0.767   9.028 -32.176  1.00  0.00     0.176 HD
ENDBRANCH  22  24
ENDBRANCH  13  20
BRANCH  19  27
HETATM   27  N14 UNL     1       8.967   6.649 -34.215  1.00  0.00    -0.396 N
ATOM     28 2H14 UNL     1       9.014   5.734 -33.765  1.00  0.00     0.156 HD
ATOM     29 1H14 UNL     1       9.567   7.092 -34.911  1.00  0.00     0.156 HD
ENDBRANCH  19  27
ENDBRANCH   8   9
BRANCH   1  30
HETATM   30  N2  UNL     1       9.189   7.219 -30.954  1.00  0.00    -0.373 N
ATOM     31  H2  UNL     1       8.232   7.563 -30.873  1.00  0.00     0.161 HD
BRANCH  30  32
HETATM   32  C4  UNL     1       9.469   5.938 -30.395  1.00  0.00     0.151 C
BRANCH  32  33
HETATM   33  C3  UNL     1       9.101   4.821 -31.325  1.00  0.00     0.290 C
BRANCH  33  34
HETATM   34  N1  UNL     1       8.018   4.006 -30.812  1.00  0.00     0.081 N
HETATM   35  C1  UNL     1       6.795   4.183 -31.559  1.00  0.00     0.309 C
HETATM   36  C2  UNL     1       7.825   4.192 -29.393  1.00  0.00     0.309 C
ENDBRANCH  33  34
ENDBRANCH  32  33
ENDBRANCH  30  32
ENDBRANCH   1  30
BRANCH   7  37
HETATM   37  C8  UNL     1      10.035  10.386 -34.458  1.00  0.00     0.090 C
HETATM   38  N6  UNL     1       9.716  11.587 -34.215  1.00  0.00    -0.269 N
ATOM     39  H6  UNL     1       9.498  12.024 -35.111  1.00  0.00     0.194 HD
BRANCH  38  40
HETATM   40  O1  UNL     1       9.555  12.469 -33.330  1.00  0.00    -0.290 OA
ATOM     41  H1  UNL     1       9.140  13.293 -33.103  1.00  0.00     0.244 HD
ENDBRANCH  38  40
BRANCH  37  42
HETATM   42  C9  UNL     1       9.856  10.057 -35.899  1.00  0.00     0.197 C
BRANCH  42  43
HETATM   43  O2  UNL     1      10.047   8.673 -36.109  1.00  0.00    -0.388 OA
ATOM     44  H2  UNL     1      10.669   8.533 -36.815  1.00  0.00     0.210 HD
ENDBRANCH  42  43
BRANCH  42  45
HETATM   45  C10 UNL     1       8.336  10.198 -36.236  1.00  0.00     0.267 C
BRANCH  45  46
HETATM   46  N7  UNL     1       7.900   9.041 -36.975  1.00  0.00    -0.077 N
ATOM     47  H73 UNL     1       8.657   8.378 -37.136  1.00  0.00     0.274 HD
ATOM     48  H72 UNL     1       7.292   8.437 -36.422  1.00  0.00     0.274 HD
ATOM     49  H71 UNL     1       7.458   9.340 -37.845  1.00  0.00     0.274 HD
ENDBRANCH  45  46
ENDBRANCH  42  45
ENDBRANCH  37  42
ENDBRANCH   7  37
BRANCH   4  50
HETATM   50  N4  UNL     1      13.403   8.990 -31.491  1.00  0.00    -0.234 N
ATOM     51  H42 UNL     1      13.648   9.471 -30.625  1.00  0.00     0.174 HD
ATOM     52  H41 UNL     1      14.162   8.597 -32.049  1.00  0.00     0.174 HD
ENDBRANCH   4  50
TORSDOF 15
ENDMDL