MODEL 1
REMARK VINA RESULT: -8.516748820      0.000      0.000
REMARK  17 active torsions:
REMARK  status: ('A' for Active; 'I' for Inactive)
REMARK    1  A    between atoms: C1_4  and  O1_6
REMARK    2  A    between atoms: O1_6  and  N3_7
REMARK    3  A    between atoms: C2_9  and  N4_10
REMARK    4  A    between atoms: C2_9  and  C9_32
REMARK    5  A    between atoms: N4_10  and  C3_12
REMARK    6  A    between atoms: C3_12  and  C4_13
REMARK    7  A    between atoms: C3_12  and  C5_20
REMARK    8  A    between atoms: C4_13  and  O2_14
REMARK    9  A    between atoms: N5_16  and  O3_18
REMARK   10  A    between atoms: C5_20  and  O4_21
REMARK   11  A    between atoms: C5_20  and  C6_23
REMARK   12  A    between atoms: C6_23  and  O5_24
REMARK   13  A    between atoms: C6_23  and  C7_26
REMARK   14  A    between atoms: C7_26  and  O6_27
REMARK   15  A    between atoms: C7_26  and  C8_29
REMARK   16  A    between atoms: C8_29  and  O7_30
REMARK   17  A    between atoms: C12_39  and  C13_40
ROOT
HETATM    1  N3  UNL     1       9.189   7.040 -30.984  1.00  0.00    -0.239 N
ATOM      2  H3  UNL     1       8.243   6.940 -31.352  1.00  0.00     0.196 HD
HETATM    3  C2  UNL     1       9.846   8.136 -31.148  1.00  0.00     0.157 C
ENDROOT
BRANCH   3   4
HETATM    4  N4  UNL     1       9.205   9.187 -31.855  1.00  0.00    -0.358 N
ATOM      5  H4  UNL     1       8.805   9.966 -31.332  1.00  0.00     0.162 HD
BRANCH   4   6
HETATM    6  C3  UNL     1       9.103   9.181 -33.324  1.00  0.00     0.191 C
BRANCH   6   7
HETATM    7  C4  UNL     1      10.038  10.119 -33.946  1.00  0.00     0.161 C
HETATM    8  N5  UNL     1      10.428  11.182 -33.349  1.00  0.00    -0.249 N
ATOM      9  H5  UNL     1      10.074  11.375 -32.413  1.00  0.00     0.196 HD
BRANCH   7  10
HETATM   10  O2  UNL     1      10.524   9.864 -35.219  1.00  0.00    -0.346 OA
ATOM     11  H2  UNL     1      10.816  10.583 -35.766  1.00  0.00     0.219 HD
ENDBRANCH   7  10
BRANCH   8  12
HETATM   12  O3  UNL     1      11.292  12.059 -33.914  1.00  0.00    -0.288 OA
ATOM     13  H3  UNL     1      11.040  12.942 -34.156  1.00  0.00     0.244 HD
ENDBRANCH   8  12
ENDBRANCH   6   7
BRANCH   6  14
HETATM   14  C5  UNL     1       7.681   9.471 -33.661  1.00  0.00     0.180 C
BRANCH  14  15
HETATM   15  O4  UNL     1       7.579  10.508 -34.552  1.00  0.00    -0.390 OA
ATOM     16  H4  UNL     1       6.929  10.327 -35.222  1.00  0.00     0.210 HD
ENDBRANCH  14  15
BRANCH  14  17
HETATM   17  C6  UNL     1       6.845   8.262 -33.989  1.00  0.00     0.180 C
BRANCH  17  18
HETATM   18  O5  UNL     1       7.513   7.142 -33.460  1.00  0.00    -0.390 OA
ATOM     19  H5  UNL     1       7.005   6.840 -32.717  1.00  0.00     0.210 HD
ENDBRANCH  17  18
BRANCH  17  20
HETATM   20  C7  UNL     1       5.535   8.420 -33.203  1.00  0.00     0.173 C
BRANCH  20  21
HETATM   21  O6  UNL     1       5.815   9.241 -32.118  1.00  0.00    -0.391 OA
ATOM     22  H6  UNL     1       5.145   9.073 -31.467  1.00  0.00     0.210 HD
ENDBRANCH  20  21
BRANCH  20  23
HETATM   23  C8  UNL     1       4.475   9.014 -34.104  1.00  0.00     0.198 C
BRANCH  23  24
HETATM   24  O7  UNL     1       3.935  10.118 -33.419  1.00  0.00    -0.398 OA
ATOM     25  H7  UNL     1       3.864  10.823 -34.053  1.00  0.00     0.209 HD
ENDBRANCH  23  24
ENDBRANCH  20  23
ENDBRANCH  17  20
ENDBRANCH  14  17
ENDBRANCH   6  14
ENDBRANCH   4   6
ENDBRANCH   3   4
BRANCH   3  26
HETATM   26  C9  UNL     1      11.222   8.311 -30.623  1.00  0.00     0.123 A
HETATM   27  N6  UNL     1      12.364   7.957 -31.167  1.00  0.00    -0.331 N
HETATM   28  C10 UNL     1      13.486   8.192 -30.554  1.00  0.00     0.140 A
ATOM     29  H6  UNL     1      12.371   7.495 -32.076  1.00  0.00     0.168 HD
HETATM   30  N7  UNL     1      14.747   7.882 -30.994  1.00  0.00    -0.348 N
HETATM   31  C14 UNL     1      13.425   8.814 -29.335  1.00  0.00     0.121 A
HETATM   32  C11 UNL     1      15.845   8.159 -30.301  1.00  0.00     0.126 A
ATOM     33  H7  UNL     1      14.846   7.417 -31.895  1.00  0.00     0.167 HD
HETATM   34  C12 UNL     1      15.772   8.786 -29.075  1.00  0.00     0.126 A
HETATM   35  N8  UNL     1      14.550   9.105 -28.611  1.00  0.00    -0.341 N
ATOM     36  H8  UNL     1      14.460   9.569 -27.708  1.00  0.00     0.167 HD
HETATM   37  S1  UNL     1      11.736   9.023 -29.148  1.00  0.00    -0.047 SA
BRANCH  34  38
HETATM   38  C13 UNL     1      16.969   9.088 -28.318  1.00  0.00     0.228 C
HETATM   39  O8  UNL     1      17.130   8.637 -27.150  1.00  0.00    -0.643 OA
HETATM   40  O9  UNL     1      17.943   9.886 -28.898  1.00  0.00    -0.643 OA
ENDBRANCH  34  38
ENDBRANCH   3  26
BRANCH   1  41
HETATM   41  O1  UNL     1       9.788   6.015 -30.304  1.00  0.00    -0.203 OA
BRANCH  41  42
HETATM   42  C1  UNL     1       8.998   4.984 -29.824  1.00  0.00     0.249 C
HETATM   43  N1  UNL     1       9.575   3.887 -29.489  1.00  0.00    -0.366 N
ATOM     44  H12 UNL     1       8.993   3.128 -29.135  1.00  0.00     0.159 HD
ATOM     45  H11 UNL     1      10.587   3.814 -29.589  1.00  0.00     0.159 HD
HETATM   46  N2  UNL     1       7.589   5.086 -29.684  1.00  0.00    -0.055 NA
ENDBRANCH  41  42
ENDBRANCH   1  41
TORSDOF 17
ENDMDL