MODEL 3
REMARK VINA RESULT: -7.446051215      1.903      5.918
REMARK  13 active torsions:
REMARK  status: ('A' for Active; 'I' for Inactive)
REMARK    1  A    between atoms: C3_8  and  C4_9
REMARK    2  A    between atoms: C4_9  and  C5_10
REMARK    3  A    between atoms: C4_9  and  N4_14
REMARK    4  A    between atoms: C5_10  and  C6_11
REMARK    5  A    between atoms: C6_11  and  O1_12
REMARK    6  A    between atoms: N6_18  and  C8_20
REMARK    7  A    between atoms: C9_23  and  N8_24
REMARK    8  A    between atoms: C12_36  and  C13_37
REMARK    9  A    between atoms: C13_37  and  N12_38
REMARK   10  A    between atoms: C13_37  and  C14_42
REMARK   11  A    between atoms: C14_42  and  O2_43
REMARK   12  A    between atoms: C14_42  and  C15_45
REMARK   13  A    between atoms: C15_45  and  O3_46
ROOT
HETATM    1  N4  UNL     1       9.741   9.478 -33.349  1.00  0.00    -0.262 N
HETATM    2  N5  UNL     1       9.436   8.346 -32.736  1.00  0.00    -0.280 N
ATOM      3  H5  UNL     1       8.587   7.810 -32.915  1.00  0.00     0.189 HD
HETATM    4  C7  UNL     1      10.365   7.993 -31.863  1.00  0.00     0.151 A
HETATM    5  N6  UNL     1      10.435   6.967 -31.087  1.00  0.00    -0.173 N
ATOM      6  H6  UNL     1      11.243   6.865 -30.472  1.00  0.00     0.186 HD
HETATM    7  C11 UNL     1      11.365   8.974 -31.904  1.00  0.00     0.080 A
HETATM    8  C12 UNL     1      12.561   9.154 -31.241  1.00  0.00     0.061 A
HETATM    9  N13 UNL     1      13.293  10.242 -31.545  1.00  0.00    -0.353 N
ATOM     10  H13 UNL     1      14.182  10.393 -31.068  1.00  0.00     0.166 HD
HETATM   11  C16 UNL     1      12.881  11.128 -32.458  1.00  0.00     0.182 A
HETATM   12  N14 UNL     1      11.721  10.947 -33.095  1.00  0.00    -0.337 N
ATOM     13  H14 UNL     1      11.431  11.638 -33.787  1.00  0.00     0.168 HD
HETATM   14  C17 UNL     1      10.921   9.895 -32.863  1.00  0.00     0.140 A
ENDROOT
BRANCH   5  15
HETATM   15  C8  UNL     1       9.419   5.977 -31.064  1.00  0.00     0.713 A
HETATM   16  N7  UNL     1       8.469   5.845 -32.005  1.00  0.00    -0.021 N
HETATM   17  C9  UNL     1       7.518   4.900 -31.968  1.00  0.00     0.705 A
ATOM     18  H7  UNL     1       8.471   6.499 -32.790  1.00  0.00     0.203 HD
HETATM   19  N9  UNL     1       7.480   4.025 -30.959  1.00  0.00    -0.022 N
HETATM   20  C10 UNL     1       8.408   4.116 -29.993  1.00  0.00     0.705 A
ATOM     21  H9  UNL     1       6.761   3.304 -30.923  1.00  0.00     0.203 HD
HETATM   22  N10 UNL     1       8.363   3.264 -29.022  1.00  0.00    -0.234 N
HETATM   23  N11 UNL     1       9.353   5.069 -30.045  1.00  0.00    -0.021 N
ATOM     24 2H10 UNL     1       7.645   2.540 -28.982  1.00  0.00     0.174 HD
ATOM     25 1H10 UNL     1       9.068   3.333 -28.288  1.00  0.00     0.174 HD
ATOM     26  H11 UNL     1      10.047   5.116 -29.299  1.00  0.00     0.203 HD
BRANCH  17  27
HETATM   27  N8  UNL     1       6.611   4.815 -32.910  1.00  0.00    -0.234 N
ATOM     28  H82 UNL     1       6.905   4.902 -33.883  1.00  0.00     0.174 HD
ATOM     29  H81 UNL     1       5.628   4.663 -32.683  1.00  0.00     0.174 HD
ENDBRANCH  17  27
ENDBRANCH   5  15
BRANCH   1  30
HETATM   30  C4  UNL     1       8.961  10.168 -34.368  1.00  0.00     0.181 C
BRANCH  30  31
HETATM   31  C3  UNL     1       9.568   9.945 -35.690  1.00  0.00     0.124 A
HETATM   32  N1  UNL     1       9.578  10.690 -36.802  1.00  0.00    -0.333 N
HETATM   33  C1  UNL     1       8.920  11.963 -36.969  1.00  0.00     0.158 C
HETATM   34  C2  UNL     1      10.289  10.056 -37.744  1.00  0.00     0.200 A
HETATM   35  N2  UNL     1      10.726   8.902 -37.213  1.00  0.00    -0.295 N
HETATM   36  N3  UNL     1      10.292   8.835 -35.976  1.00  0.00    -0.286 N
ATOM     37  H2  UNL     1      11.296   8.202 -37.687  1.00  0.00     0.187 HD
ATOM     38  H3  UNL     1      10.472   8.067 -35.329  1.00  0.00     0.188 HD
ENDBRANCH  30  31
BRANCH  30  39
HETATM   39  C5  UNL     1       7.517   9.752 -34.273  1.00  0.00     0.061 C
BRANCH  39  40
HETATM   40  C6  UNL     1       7.212   8.629 -35.241  1.00  0.00     0.166 C
BRANCH  40  41
HETATM   41  O1  UNL     1       7.532   7.395 -34.700  1.00  0.00    -0.401 OA
ATOM     42  H1  UNL     1       8.388   7.408 -34.289  1.00  0.00     0.209 HD
ENDBRANCH  40  41
ENDBRANCH  39  40
ENDBRANCH  30  39
ENDBRANCH   1  30
BRANCH   8  43
HETATM   43  C13 UNL     1      12.978   8.170 -30.230  1.00  0.00     0.264 C
BRANCH  43  44
HETATM   44  N12 UNL     1      13.027   8.834 -28.921  1.00  0.00    -0.067 N
ATOM     45 3H12 UNL     1      12.117   9.193 -28.631  1.00  0.00     0.275 HD
ATOM     46 2H12 UNL     1      13.170   8.177 -28.155  1.00  0.00     0.275 HD
ATOM     47 1H12 UNL     1      13.742   9.561 -28.951  1.00  0.00     0.275 HD
ENDBRANCH  43  44
BRANCH  43  48
HETATM   48  C14 UNL     1      14.403   7.690 -30.444  1.00  0.00     0.178 C
BRANCH  48  49
HETATM   49  O2  UNL     1      14.530   6.341 -30.622  1.00  0.00    -0.391 OA
ATOM     50  H2  UNL     1      13.848   5.821 -30.213  1.00  0.00     0.210 HD
ENDBRANCH  48  49
BRANCH  48  51
HETATM   51  C15 UNL     1      15.321   8.126 -29.325  1.00  0.00     0.198 C
BRANCH  51  52
HETATM   52  O3  UNL     1      15.761   9.425 -29.676  1.00  0.00    -0.398 OA
ATOM     53  H3  UNL     1      16.437   9.298 -30.331  1.00  0.00     0.209 HD
ENDBRANCH  51  52
ENDBRANCH  48  51
ENDBRANCH  43  48
ENDBRANCH   8  43
TORSDOF 13
ENDMDL