MODEL 3
REMARK VINA RESULT: -8.854277834      1.057      2.107
REMARK  12 active torsions:
REMARK  status: ('A' for Active; 'I' for Inactive)
REMARK    1  A    between atoms: C3_4  and  C4_5
REMARK    2  A    between atoms: C4_5  and  N1_6
REMARK    3  A    between atoms: N1_6  and  C5_9
REMARK    4  A    between atoms: C5_9  and  C6_10
REMARK    5  A    between atoms: C6_10  and  N2_11
REMARK    6  A    between atoms: C7_16  and  C8_17
REMARK    7  A    between atoms: C8_17  and  N5_18
REMARK    8  A    between atoms: C11_23  and  N7_24
REMARK    9  A    between atoms: C12_29  and  N9_30
REMARK   10  A    between atoms: C14_38  and  N12_39
REMARK       I    between atoms: N12_39  and  C15_41
REMARK       I    between atoms: C15_41  and  N13_42
REMARK       I    between atoms: C15_41  and  N14_46
REMARK   11  A    between atoms: C16_50  and  O2_51
REMARK   12  A    between atoms: C17_53  and  O3_54
ROOT
HETATM    1  N2  UNL     1      15.473   8.278 -29.714  1.00  0.00    -0.108 N
HETATM    2  N3  UNL     1      14.894   8.994 -28.696  1.00  0.00    -0.225 N
ATOM      3  H3  UNL     1      15.497   9.416 -27.990  1.00  0.00     0.209 HD
HETATM    4  N4  UNL     1      13.617   9.154 -28.596  1.00  0.00    -0.272 N
ATOM      5  H4  UNL     1      13.219   9.692 -27.826  1.00  0.00     0.190 HD
HETATM    6  C7  UNL     1      12.821   8.595 -29.528  1.00  0.00     0.131 A
HETATM    7  N11 UNL     1      13.350   7.879 -30.553  1.00  0.00    -0.176 N
ATOM      8  H11 UNL     1      12.742   7.458 -31.256  1.00  0.00     0.185 HD
HETATM    9  C14 UNL     1      14.699   7.728 -30.631  1.00  0.00     0.700 A
ENDROOT
BRANCH   6  10
HETATM   10  C8  UNL     1      11.377   8.796 -29.399  1.00  0.00     0.210 C
BRANCH  10  11
HETATM   11  N5  UNL     1      10.712   8.278 -30.574  1.00  0.00    -0.320 N
HETATM   12  C9  UNL     1      10.622   8.883 -31.796  1.00  0.00     0.185 A
HETATM   13  N6  UNL     1       9.917   8.121 -32.646  1.00  0.00    -0.346 N
HETATM   14  C10 UNL     1       9.536   7.000 -31.996  1.00  0.00     0.123 A
ATOM     15  H6  UNL     1       9.706   8.349 -33.618  1.00  0.00     0.167 HD
HETATM   16  C11 UNL     1       8.830   5.890 -32.389  1.00  0.00     0.145 A
HETATM   17  C13 UNL     1      10.049   7.128 -30.698  1.00  0.00     0.155 A
HETATM   18  N8  UNL     1       8.632   4.900 -31.509  1.00  0.00    -0.175 N
HETATM   19  C12 UNL     1       9.129   5.003 -30.245  1.00  0.00     0.679 A
ATOM     20  H8  UNL     1       8.109   4.070 -31.785  1.00  0.00     0.186 HD
HETATM   21  N10 UNL     1       9.812   6.086 -29.860  1.00  0.00    -0.174 N
ATOM     22  H10 UNL     1      10.168   6.132 -28.904  1.00  0.00     0.186 HD
BRANCH  16  23
HETATM   23  N7  UNL     1       8.347   5.780 -33.587  1.00  0.00    -0.383 N
ATOM     24  H72 UNL     1       8.985   5.638 -34.371  1.00  0.00     0.157 HD
ATOM     25  H71 UNL     1       7.344   5.829 -33.766  1.00  0.00     0.157 HD
ENDBRANCH  16  23
BRANCH  19  26
HETATM   26  N9  UNL     1       8.964   4.050 -29.404  1.00  0.00    -0.234 N
ATOM     27  H92 UNL     1       8.580   4.269 -28.486  1.00  0.00     0.174 HD
ATOM     28  H91 UNL     1       9.228   3.096 -29.650  1.00  0.00     0.174 HD
ENDBRANCH  19  26
ENDBRANCH  10  11
ENDBRANCH   6  10
BRANCH   9  29
HETATM   29  N12 UNL     1      15.171   7.028 -31.592  1.00  0.00    -0.172 N
HETATM   30  C15 UNL     1      15.312   7.564 -32.937  1.00  0.00     0.494 C
HETATM   31  N13 UNL     1      14.051   8.144 -33.425  1.00  0.00    -0.032 N
HETATM   32  N14 UNL     1      16.289   8.617 -32.911  1.00  0.00    -0.032 N
ATOM     33 3H13 UNL     1      13.286   7.471 -33.371  1.00  0.00     0.278 HD
ATOM     34 2H13 UNL     1      13.691   8.848 -32.780  1.00  0.00     0.278 HD
ATOM     35 1H13 UNL     1      14.151   8.520 -34.368  1.00  0.00     0.278 HD
ATOM     36 3H14 UNL     1      16.068   9.339 -32.224  1.00  0.00     0.278 HD
ATOM     37 2H14 UNL     1      17.179   8.315 -32.515  1.00  0.00     0.278 HD
ATOM     38 1H14 UNL     1      16.389   8.993 -33.854  1.00  0.00     0.278 HD
ATOM     39  H12 UNL     1      15.455   6.065 -31.409  1.00  0.00     0.181 HD
ENDBRANCH   9  29
BRANCH   1  40
HETATM   40  C6  UNL     1      16.903   8.289 -29.640  1.00  0.00     0.197 C
BRANCH  40  41
HETATM   41  C5  UNL     1      17.544   9.616 -29.648  1.00  0.00     0.255 C
BRANCH  41  42
HETATM   42  N1  UNL     1      18.956   9.749 -29.794  1.00  0.00    -0.068 N
ATOM     43  H12 UNL     1      19.491   9.239 -29.091  1.00  0.00     0.277 HD
ATOM     44  H11 UNL     1      19.308  10.679 -29.560  1.00  0.00     0.277 HD
BRANCH  42  45
HETATM   45  C4  UNL     1      19.247   9.334 -31.181  1.00  0.00     0.300 C
BRANCH  45  46
HETATM   46  C3  UNL     1      20.697   9.213 -31.375  1.00  0.00     0.115 A
HETATM   47  O1  UNL     1      21.383   8.300 -32.020  1.00  0.00    -0.312 OA
HETATM   48  C2  UNL     1      22.672   8.550 -31.984  1.00  0.00     0.085 A
HETATM   49  C1  UNL     1      23.759   7.714 -32.626  1.00  0.00     0.079 C
HETATM   50  C17 UNL     1      22.877   9.698 -31.272  1.00  0.00     0.131 A
HETATM   51  C16 UNL     1      21.642  10.125 -30.881  1.00  0.00     0.133 A
BRANCH  50  52
HETATM   52  O3  UNL     1      24.058  10.352 -30.968  1.00  0.00    -0.356 OA
ATOM     53  H3  UNL     1      24.523  11.023 -31.454  1.00  0.00     0.218 HD
ENDBRANCH  50  52
BRANCH  51  54
HETATM   54  O2  UNL     1      21.298  11.237 -30.123  1.00  0.00    -0.356 OA
ATOM     55  H2  UNL     1      21.466  12.129 -30.405  1.00  0.00     0.218 HD
ENDBRANCH  51  54
ENDBRANCH  45  46
ENDBRANCH  42  45
ENDBRANCH  41  42
ENDBRANCH  40  41
ENDBRANCH   1  40
TORSDOF 12
ENDMDL