MODEL 1
REMARK VINA RESULT: -8.677874370      0.000      0.000
REMARK  12 active torsions:
REMARK  status: ('A' for Active; 'I' for Inactive)
REMARK    1  A    between atoms: C1_4  and  C2_5
REMARK    2  A    between atoms: C1_4  and  N13_45
REMARK    3  A    between atoms: C2_5  and  S1_6
REMARK    4  A    between atoms: S1_6  and  C3_7
REMARK    5  A    between atoms: C3_7  and  C4_8
REMARK    6  A    between atoms: N3_12  and  C6_14
REMARK    7  A    between atoms: N7_26  and  C11_27
REMARK    8  A    between atoms: C11_27  and  C12_28
REMARK    9  A    between atoms: C12_28  and  N8_29
REMARK   10  A    between atoms: C12_28  and  C13_33
REMARK   11  A    between atoms: N9_36  and  N10_37
REMARK   12  A    between atoms: N13_45  and  N14_47
ROOT
HETATM    1  C6  UNL     1      12.831   9.041 -29.801  1.00  0.00     0.708 A
HETATM    2  N4  UNL     1      13.125   9.572 -30.973  1.00  0.00    -0.173 N
ATOM      3  H4  UNL     1      14.007  10.076 -31.064  1.00  0.00     0.186 HD
HETATM    4  C7  UNL     1      12.310   9.484 -32.081  1.00  0.00     0.145 A
HETATM    5  N5  UNL     1      12.580   9.987 -33.148  1.00  0.00    -0.383 N
ATOM      6  H51 UNL     1      11.978   9.922 -33.968  1.00  0.00     0.157 HD
ATOM      7  H52 UNL     1      13.462  10.492 -33.236  1.00  0.00     0.157 HD
HETATM    8  C8  UNL     1      11.101   8.791 -31.961  1.00  0.00     0.127 A
HETATM    9  C9  UNL     1      10.822   8.252 -30.739  1.00  0.00     0.176 A
HETATM   10  N6  UNL     1       9.611   7.644 -30.872  1.00  0.00    -0.334 N
ATOM     11  H6  UNL     1       9.106   7.140 -30.143  1.00  0.00     0.168 HD
HETATM   12  C10 UNL     1       9.207   7.826 -32.120  1.00  0.00     0.185 A
HETATM   13  N7  UNL     1      10.135   8.555 -32.845  1.00  0.00    -0.334 N
HETATM   14  N9  UNL     1      11.655   8.363 -29.669  1.00  0.00    -0.074 N
ENDROOT
BRANCH   1  15
HETATM   15  N3  UNL     1      13.678   9.150 -28.636  1.00  0.00    -0.174 N
HETATM   16  C5  UNL     1      14.965   9.246 -28.788  1.00  0.00     0.125 A
HETATM   17  N2  UNL     1      15.487   9.239 -30.029  1.00  0.00    -0.331 N
HETATM   18  C14 UNL     1      15.801   9.386 -27.722  1.00  0.00     0.094 A
HETATM   19  C4  UNL     1      16.813   9.368 -30.244  1.00  0.00     0.093 A
ATOM     20  H2  UNL     1      14.864   9.134 -30.829  1.00  0.00     0.168 HD
HETATM   21  N12 UNL     1      17.622   9.505 -29.181  1.00  0.00    -0.334 N
HETATM   22  C15 UNL     1      17.186   9.521 -27.924  1.00  0.00     0.121 A
ATOM     23  H12 UNL     1      18.623   9.603 -29.345  1.00  0.00     0.168 HD
HETATM   24  N11 UNL     1      18.040   9.662 -26.793  1.00  0.00    -0.083 NA
ATOM     25  H3  UNL     1      13.269   9.151 -27.701  1.00  0.00     0.186 HD
BRANCH  19  26
HETATM   26  C3  UNL     1      17.360   9.322 -31.640  1.00  0.00     0.150 C
BRANCH  26  27
HETATM   27  S1  UNL     1      19.024   9.916 -31.774  1.00  0.00    -0.154 SA
BRANCH  27  28
HETATM   28  C2  UNL     1      20.315   8.802 -31.286  1.00  0.00     0.151 C
BRANCH  28  29
HETATM   29  C1  UNL     1      21.665   9.371 -31.281  1.00  0.00     0.098 C
HETATM   30  N1  UNL     1      22.094  10.337 -30.552  1.00  0.00    -0.387 N
ATOM     31  H12 UNL     1      21.411  10.750 -29.917  1.00  0.00     0.157 HD
ATOM     32  H11 UNL     1      23.034  10.733 -30.549  1.00  0.00     0.157 HD
BRANCH  29  33
HETATM   33  N13 UNL     1      22.627   8.789 -32.177  1.00  0.00    -0.295 N
ATOM     34  H13 UNL     1      23.593   9.113 -32.137  1.00  0.00     0.187 HD
BRANCH  33  35
HETATM   35  N14 UNL     1      22.289   7.798 -33.097  1.00  0.00    -0.344 N
ATOM     36 2H14 UNL     1      21.671   7.049 -32.782  1.00  0.00     0.176 HD
ATOM     37 1H14 UNL     1      22.634   7.801 -34.057  1.00  0.00     0.176 HD
ENDBRANCH  33  35
ENDBRANCH  29  33
ENDBRANCH  28  29
ENDBRANCH  27  28
ENDBRANCH  26  27
ENDBRANCH  19  26
ENDBRANCH   1  15
BRANCH  14  38
HETATM   38  N10 UNL     1      11.346   7.815 -28.493  1.00  0.00    -0.322 N
ATOM     39 2H10 UNL     1      10.825   8.336 -27.788  1.00  0.00     0.178 HD
ATOM     40 1H10 UNL     1      11.632   6.855 -28.299  1.00  0.00     0.178 HD
ENDBRANCH  14  38
BRANCH  13  41
HETATM   41  C11 UNL     1       9.957   8.926 -34.232  1.00  0.00     0.174 C
BRANCH  41  42
HETATM   42  C12 UNL     1       9.087  10.151 -34.347  1.00  0.00     0.301 C
BRANCH  42  43
HETATM   43  N8  UNL     1       8.690  10.718 -33.094  1.00  0.00    -0.064 N
ATOM     44  H83 UNL     1       7.909  11.361 -33.226  1.00  0.00     0.275 HD
ATOM     45  H82 UNL     1       8.239  10.011 -32.512  1.00  0.00     0.275 HD
ATOM     46  H81 UNL     1       9.442  11.175 -32.579  1.00  0.00     0.275 HD
ENDBRANCH  42  43
BRANCH  42  47
HETATM   47  C13 UNL     1       9.946  11.182 -35.062  1.00  0.00     0.206 C
HETATM   48  O1  UNL     1       9.938  11.279 -36.313  1.00  0.00    -0.646 OA
HETATM   49  O2  UNL     1      10.728  12.001 -34.299  1.00  0.00    -0.646 OA
ENDBRANCH  42  47
ENDBRANCH  41  42
ENDBRANCH  13  41
TORSDOF 12
ENDMDL