MODEL 4
REMARK VINA RESULT: -7.726998217      2.889      9.953
REMARK  14 active torsions:
REMARK  status: ('A' for Active; 'I' for Inactive)
REMARK    1  A    between atoms: C2_2  and  N1_3
REMARK    2  A    between atoms: C2_2  and  C8_24
REMARK    3  A    between atoms: N1_3  and  O1_4
REMARK    4  A    between atoms: O1_4  and  C3_5
REMARK    5  A    between atoms: C3_5  and  S1_6
REMARK    6  A    between atoms: S1_6  and  C4_7
REMARK    7  A    between atoms: C5_10  and  N3_11
REMARK    8  A    between atoms: C6_16  and  N5_17
REMARK    9  A    between atoms: C9_25  and  O2_26
REMARK   10  A    between atoms: N10_31  and  C12_32
REMARK   11  A    between atoms: C12_32  and  C14_35
REMARK   12  A    between atoms: C14_35  and  O3_36
REMARK   13  A    between atoms: C14_35  and  N12_38
REMARK   14  A    between atoms: N12_38  and  N13_39
ROOT
HETATM    1  C12 UNL     1      20.289  10.032 -31.232  1.00  0.00     0.245 C
HETATM    2  C13 UNL     1      20.830   8.849 -31.940  1.00  0.00     0.089 C
HETATM    3  N11 UNL     1      21.242   7.920 -32.491  1.00  0.00    -0.195 NA
ENDROOT
BRANCH   1   4
HETATM    4  N10 UNL     1      19.006   9.733 -30.590  1.00  0.00    -0.300 N
HETATM    5  C11 UNL     1      18.940   9.738 -29.245  1.00  0.00     0.125 A
HETATM    6  C10 UNL     1      17.776   9.467 -28.570  1.00  0.00     0.096 A
HETATM    7  C9  UNL     1      16.602   9.174 -29.272  1.00  0.00     0.110 A
HETATM    8  N9  UNL     1      17.692   9.459 -27.154  1.00  0.00    -0.098 NA
HETATM    9  C8  UNL     1      16.653   9.166 -30.642  1.00  0.00     0.106 A
HETATM   10  C15 UNL     1      17.882   9.451 -31.260  1.00  0.00     0.265 A
HETATM   11  O4  UNL     1      17.936   9.440 -32.497  1.00  0.00    -0.267 OA
BRANCH   7  12
HETATM   12  O2  UNL     1      15.437   8.901 -28.553  1.00  0.00    -0.358 OA
ATOM     13  H2  UNL     1      14.677   9.470 -28.564  1.00  0.00     0.217 HD
ENDBRANCH   7  12
BRANCH   9  14
HETATM   14  C2  UNL     1      15.442   8.898 -31.400  1.00  0.00     0.132 C
HETATM   15  C1  UNL     1      15.355   7.602 -32.176  1.00  0.00     0.089 C
BRANCH  14  16
HETATM   16  N1  UNL     1      14.482   9.640 -31.457  1.00  0.00    -0.284 NA
BRANCH  16  17
HETATM   17  O1  UNL     1      13.523  10.400 -31.559  1.00  0.00    -0.199 OA
BRANCH  17  18
HETATM   18  C3  UNL     1      12.685  10.894 -32.545  1.00  0.00     0.299 C
BRANCH  18  19
HETATM   19  S1  UNL     1      11.620   9.575 -33.219  1.00  0.00    -0.063 SA
BRANCH  19  20
HETATM   20  C4  UNL     1      11.074   8.537 -31.900  1.00  0.00     0.176 A
HETATM   21  N2  UNL     1      11.391   8.810 -30.639  1.00  0.00    -0.170 N
HETATM   22  C5  UNL     1      10.973   7.997 -29.635  1.00  0.00     0.692 A
ATOM     23  H2  UNL     1      11.952   9.634 -30.423  1.00  0.00     0.186 HD
HETATM   24  N4  UNL     1      10.244   6.926 -29.924  1.00  0.00    -0.022 N
HETATM   25  C6  UNL     1       9.896   6.612 -31.210  1.00  0.00     0.701 A
ATOM     26  H4  UNL     1       9.935   6.319 -29.165  1.00  0.00     0.203 HD
HETATM   27  N8  UNL     1      10.327   7.436 -32.175  1.00  0.00    -0.169 N
ATOM     28  H8  UNL     1      10.086   7.230 -33.145  1.00  0.00     0.186 HD
BRANCH  22  29
HETATM   29  N3  UNL     1      11.310   8.296 -28.407  1.00  0.00    -0.234 N
ATOM     30  H32 UNL     1      11.928   9.078 -28.191  1.00  0.00     0.174 HD
ATOM     31  H31 UNL     1      10.935   7.728 -27.646  1.00  0.00     0.174 HD
ENDBRANCH  22  29
BRANCH  25  32
HETATM   32  N5  UNL     1       9.121   5.478 -31.358  1.00  0.00    -0.165 N
HETATM   33  C7  UNL     1       8.292   4.919 -30.660  1.00  0.00     0.215 C
HETATM   34  N6  UNL     1       7.856   5.318 -29.387  1.00  0.00    -0.066 NA
HETATM   35  N7  UNL     1       7.679   3.707 -31.169  1.00  0.00    -0.066 NA
ATOM     36  H5  UNL     1       9.276   5.004 -32.248  1.00  0.00     0.186 HD
ENDBRANCH  25  32
ENDBRANCH  19  20
ENDBRANCH  18  19
ENDBRANCH  17  18
ENDBRANCH  16  17
ENDBRANCH  14  16
ENDBRANCH   9  14
ENDBRANCH   1   4
BRANCH   1  37
HETATM   37  C14 UNL     1      21.328  10.559 -30.290  1.00  0.00     0.267 C
BRANCH  37  38
HETATM   38  O3  UNL     1      21.768   9.410 -29.548  1.00  0.00    -0.375 OA
ATOM     39  H3  UNL     1      21.192   9.372 -28.792  1.00  0.00     0.211 HD
ENDBRANCH  37  38
BRANCH  37  40
HETATM   40  N12 UNL     1      22.537  11.020 -30.971  1.00  0.00    -0.113 NA
BRANCH  40  41
HETATM   41  N13 UNL     1      23.507  10.009 -31.043  1.00  0.00    -0.346 N
ATOM     42 2H13 UNL     1      23.551   9.327 -31.800  1.00  0.00     0.172 HD
ATOM     43 1H13 UNL     1      24.149  10.048 -30.251  1.00  0.00     0.172 HD
ENDBRANCH  40  41
ENDBRANCH  37  40
ENDBRANCH   1  37
TORSDOF 14
ENDMDL