MODEL 2
REMARK VINA RESULT: -8.770427977      2.855      9.942
REMARK  16 active torsions:
REMARK  status: ('A' for Active; 'I' for Inactive)
REMARK    1  A    between atoms: N1_1  and  C1_4
REMARK    2  A    between atoms: C2_7  and  S1_8
REMARK    3  A    between atoms: S1_8  and  C3_9
REMARK    4  A    between atoms: C3_9  and  C4_10
REMARK    5  A    between atoms: C4_10  and  C5_12
REMARK    6  A    between atoms: C6_16  and  C7_17
REMARK    7  A    between atoms: C7_17  and  C8_18
REMARK    8  A    between atoms: C8_18  and  O3_19
REMARK    9  A    between atoms: C8_18  and  O4_21
REMARK   10  A    between atoms: C9_23  and  O5_24
REMARK   11  A    between atoms: C10_28  and  N5_29
REMARK   12  A    between atoms: N5_29  and  C11_31
REMARK   13  A    between atoms: C13_38  and  C14_39
REMARK   14  A    between atoms: C14_39  and  O6_40
REMARK   15  A    between atoms: C14_39  and  N9_42
REMARK   16  A    between atoms: N9_42  and  N10_43
ROOT
HETATM    1  C1  UNL     1      12.055   8.885 -29.166  1.00  0.00     0.692 A
HETATM    2  N2  UNL     1      11.507   9.119 -30.383  1.00  0.00    -0.170 N
ATOM      3  H2  UNL     1      10.539   9.434 -30.437  1.00  0.00     0.186 HD
HETATM    4  C2  UNL     1      12.199   8.950 -31.521  1.00  0.00     0.174 A
HETATM    5  N4  UNL     1      13.470   8.532 -31.384  1.00  0.00    -0.169 N
ATOM      6  H4  UNL     1      14.027   8.391 -32.226  1.00  0.00     0.186 HD
HETATM    7  C10 UNL     1      14.048   8.288 -30.176  1.00  0.00     0.700 A
HETATM    8  N11 UNL     1      13.332   8.466 -29.058  1.00  0.00    -0.022 N
ATOM      9  H11 UNL     1      13.746   8.288 -28.143  1.00  0.00     0.203 HD
ENDROOT
BRANCH   4  10
HETATM   10  S1  UNL     1      11.506   9.241 -33.141  1.00  0.00    -0.085 SA
BRANCH  10  11
HETATM   11  C3  UNL     1       9.683   9.149 -32.954  1.00  0.00     0.168 C
BRANCH  11  12
HETATM   12  C4  UNL     1       9.182   8.000 -33.699  1.00  0.00     0.190 C
HETATM   13  O1  UNL     1       9.233   7.994 -34.989  1.00  0.00    -0.290 OA
BRANCH  12  14
HETATM   14  C5  UNL     1       8.614   6.826 -33.080  1.00  0.00     0.137 A
HETATM   15  N3  UNL     1       7.385   6.319 -33.417  1.00  0.00    -0.255 N
HETATM   16  O2  UNL     1       7.120   5.277 -32.726  1.00  0.00    -0.239 OA
ATOM     17  H3  UNL     1       6.767   6.719 -34.123  1.00  0.00     0.195 HD
HETATM   18  C6  UNL     1       8.083   4.988 -31.900  1.00  0.00     0.116 A
HETATM   19  C9  UNL     1       9.069   5.977 -32.106  1.00  0.00     0.130 A
BRANCH  18  20
HETATM   20  C7  UNL     1       8.163   3.869 -30.935  1.00  0.00     0.130 C
BRANCH  20  21
HETATM   21  C8  UNL     1       8.202   4.317 -29.499  1.00  0.00     0.260 C
BRANCH  21  22
HETATM   22  O3  UNL     1       9.548   4.348 -29.080  1.00  0.00    -0.371 OA
ATOM     23  H3  UNL     1       9.684   5.136 -28.568  1.00  0.00     0.212 HD
ENDBRANCH  21  22
BRANCH  21  24
HETATM   24  O4  UNL     1       7.700   5.584 -29.313  1.00  0.00    -0.371 OA
ATOM     25  H4  UNL     1       6.848   5.591 -28.895  1.00  0.00     0.212 HD
ENDBRANCH  21  24
ENDBRANCH  20  21
ENDBRANCH  18  20
BRANCH  19  26
HETATM   26  O5  UNL     1      10.241   6.009 -31.415  1.00  0.00    -0.356 OA
ATOM     27  H5  UNL     1      10.423   6.373 -30.557  1.00  0.00     0.218 HD
ENDBRANCH  19  26
ENDBRANCH  12  14
ENDBRANCH  11  12
ENDBRANCH  10  11
ENDBRANCH   4  10
BRANCH   1  28
HETATM   28  N1  UNL     1      11.368   9.058 -28.062  1.00  0.00    -0.234 N
ATOM     29  H12 UNL     1      10.429   8.665 -28.016  1.00  0.00     0.174 HD
ATOM     30  H11 UNL     1      11.756   9.569 -27.268  1.00  0.00     0.174 HD
ENDBRANCH   1  28
BRANCH   7  31
HETATM   31  N5  UNL     1      15.278   7.887 -30.109  1.00  0.00    -0.174 N
ATOM     32  H5  UNL     1      15.495   7.054 -29.561  1.00  0.00     0.186 HD
BRANCH  31  33
HETATM   33  C11 UNL     1      16.333   8.563 -30.767  1.00  0.00     0.149 A
HETATM   34  N6  UNL     1      16.468   8.778 -32.091  1.00  0.00    -0.283 N
HETATM   35  N7  UNL     1      17.575   9.428 -32.303  1.00  0.00    -0.286 N
ATOM     36  H6  UNL     1      15.808   8.480 -32.810  1.00  0.00     0.188 HD
HETATM   37  C12 UNL     1      18.219   9.671 -31.150  1.00  0.00     0.144 A
ATOM     38  H7  UNL     1      17.910   9.714 -33.222  1.00  0.00     0.188 HD
HETATM   39  N8  UNL     1      19.473  10.368 -31.001  1.00  0.00    -0.081 NA
HETATM   40  C13 UNL     1      17.436   9.125 -30.167  1.00  0.00     0.076 A
BRANCH  40  41
HETATM   41  C14 UNL     1      17.786   9.174 -28.719  1.00  0.00     0.271 C
BRANCH  41  42
HETATM   42  O6  UNL     1      19.125   9.621 -28.639  1.00  0.00    -0.374 OA
ATOM     43  H6  UNL     1      19.253  10.228 -29.359  1.00  0.00     0.212 HD
ENDBRANCH  41  42
BRANCH  41  44
HETATM   44  N9  UNL     1      16.977  10.241 -28.145  1.00  0.00    -0.111 NA
BRANCH  44  45
HETATM   45  N10 UNL     1      16.126   9.790 -27.159  1.00  0.00    -0.346 N
ATOM     46 2H10 UNL     1      16.255   8.897 -26.683  1.00  0.00     0.172 HD
ATOM     47 1H10 UNL     1      15.366  10.443 -26.967  1.00  0.00     0.172 HD
ENDBRANCH  44  45
ENDBRANCH  41  44
ENDBRANCH  40  41
ENDBRANCH  31  33
ENDBRANCH   7  31
TORSDOF 16
ENDMDL