MODEL 4
REMARK VINA RESULT: -8.253088021      2.212      3.547
REMARK  13 active torsions:
REMARK  status: ('A' for Active; 'I' for Inactive)
REMARK    1  A    between atoms: N1_2  and  C2_3
REMARK    2  A    between atoms: N1_2  and  C14_42
REMARK    3  A    between atoms: C2_3  and  C3_4
REMARK    4  A    between atoms: C4_8  and  C5_9
REMARK    5  A    between atoms: C5_9  and  O2_10
REMARK    6  A    between atoms: C5_9  and  N3_12
REMARK    7  A    between atoms: N3_12  and  C6_14
REMARK    8  A    between atoms: C9_19  and  N5_20
REMARK    9  A    between atoms: C10_25  and  C11_26
REMARK   10  A    between atoms: C11_26  and  N7_27
REMARK   11  A    between atoms: C11_26  and  N8_31
REMARK   12  A    between atoms: C15_45  and  N14_46
REMARK   13  A    between atoms: C16_51  and  N16_52
ROOT
HETATM    1  N8  UNL     1      19.643   8.483 -31.124  1.00  0.00    -0.295 N
ATOM      2  H8  UNL     1      19.568   7.514 -30.816  1.00  0.00     0.174 HD
HETATM    3  C12 UNL     1      20.918   9.067 -31.212  1.00  0.00     0.179 C
HETATM    4  N9  UNL     1      21.992   9.535 -31.284  1.00  0.00    -0.172 NA
ENDROOT
BRANCH   1   5
HETATM    5  C11 UNL     1      18.438   9.199 -31.453  1.00  0.00     0.344 C
BRANCH   5   6
HETATM    6  C10 UNL     1      17.560   9.278 -30.274  1.00  0.00     0.107 A
HETATM    7  N6  UNL     1      18.046   9.323 -29.022  1.00  0.00    -0.190 N
HETATM    8  C9  UNL     1      17.226   9.398 -27.951  1.00  0.00     0.676 A
ATOM      9  H6  UNL     1      19.056   9.301 -28.878  1.00  0.00     0.184 HD
HETATM   10  N4  UNL     1      15.893   9.428 -28.154  1.00  0.00    -0.190 N
HETATM   11  C8  UNL     1      15.348   9.386 -29.383  1.00  0.00     0.083 A
ATOM     12  H4  UNL     1      15.275   9.484 -27.345  1.00  0.00     0.184 HD
HETATM   13  C7  UNL     1      13.987   9.414 -29.622  1.00  0.00     0.082 A
HETATM   14  C13 UNL     1      16.182   9.309 -30.483  1.00  0.00     0.102 A
HETATM   15  C6  UNL     1      13.446   9.370 -30.886  1.00  0.00     0.120 A
HETATM   16  N11 UNL     1      14.342   9.295 -31.910  1.00  0.00    -0.285 N
HETATM   17  N10 UNL     1      15.647   9.267 -31.717  1.00  0.00    -0.295 N
ATOM     18  H11 UNL     1      13.989   9.260 -32.866  1.00  0.00     0.188 HD
ATOM     19  H10 UNL     1      16.267   9.211 -32.525  1.00  0.00     0.187 HD
BRANCH   8  20
HETATM   20  N5  UNL     1      17.764   9.438 -26.783  1.00  0.00    -0.234 N
ATOM     21  H52 UNL     1      17.147   9.400 -25.972  1.00  0.00     0.174 HD
ATOM     22  H51 UNL     1      18.771   9.504 -26.633  1.00  0.00     0.174 HD
ENDBRANCH   8  20
BRANCH  15  23
HETATM   23  N3  UNL     1      12.063   9.395 -31.162  1.00  0.00    -0.342 N
ATOM     24  H3  UNL     1      11.676  10.180 -31.685  1.00  0.00     0.164 HD
BRANCH  23  25
HETATM   25  C5  UNL     1      11.183   8.341 -30.726  1.00  0.00     0.298 C
BRANCH  25  26
HETATM   26  C4  UNL     1      10.074   8.149 -31.693  1.00  0.00     0.197 A
HETATM   27  O1  UNL     1       9.888   7.087 -32.421  1.00  0.00    -0.218 OA
HETATM   28  N2  UNL     1       8.840   7.260 -33.140  1.00  0.00    -0.245 N
HETATM   29  C3  UNL     1       8.289   8.465 -32.905  1.00  0.00     0.122 A
ATOM     30  H2  UNL     1       8.473   6.575 -33.801  1.00  0.00     0.196 HD
HETATM   31  N12 UNL     1       9.094   9.016 -31.977  1.00  0.00    -0.322 N
ATOM     32  H12 UNL     1       8.977   9.940 -31.561  1.00  0.00     0.169 HD
BRANCH  29  33
HETATM   33  C2  UNL     1       7.065   9.052 -33.533  1.00  0.00     0.219 C
BRANCH  33  34
HETATM   34  N1  UNL     1       7.111   8.967 -34.971  1.00  0.00    -0.214 N
HETATM   35  C1  UNL     1       6.187   8.160 -35.745  1.00  0.00     0.169 C
BRANCH  34  36
HETATM   36  C14 UNL     1       8.093   9.697 -35.694  1.00  0.00     0.709 A
HETATM   37  N13 UNL     1       8.170  11.027 -35.419  1.00  0.00    -0.022 N
HETATM   38  C15 UNL     1       9.067  11.818 -36.046  1.00  0.00     0.705 A
ATOM     39  H13 UNL     1       7.539  11.433 -34.727  1.00  0.00     0.203 HD
HETATM   40  N15 UNL     1       9.890  11.265 -36.956  1.00  0.00    -0.022 N
HETATM   41  C16 UNL     1       9.800   9.941 -37.218  1.00  0.00     0.705 A
ATOM     42  H15 UNL     1      10.577  11.840 -37.444  1.00  0.00     0.203 HD
HETATM   43  N17 UNL     1       8.902   9.150 -36.590  1.00  0.00    -0.022 N
ATOM     44  H17 UNL     1       8.848   8.153 -36.801  1.00  0.00     0.203 HD
BRANCH  38  45
HETATM   45  N14 UNL     1       9.140  13.086 -35.784  1.00  0.00    -0.234 N
ATOM     46 2H14 UNL     1       8.557  13.495 -35.053  1.00  0.00     0.174 HD
ATOM     47 1H14 UNL     1       9.777  13.695 -36.298  1.00  0.00     0.174 HD
ENDBRANCH  38  45
BRANCH  41  48
HETATM   48  N16 UNL     1      10.617   9.476 -38.100  1.00  0.00    -0.234 N
ATOM     49 2H16 UNL     1      10.627   9.823 -39.059  1.00  0.00     0.174 HD
ATOM     50 1H16 UNL     1      11.253   8.744 -37.785  1.00  0.00     0.174 HD
ENDBRANCH  41  48
ENDBRANCH  34  36
ENDBRANCH  33  34
ENDBRANCH  29  33
ENDBRANCH  25  26
BRANCH  25  51
HETATM   51  O2  UNL     1      11.982   7.178 -30.652  1.00  0.00    -0.369 OA
ATOM     52  H2  UNL     1      12.773   7.286 -31.165  1.00  0.00     0.212 HD
ENDBRANCH  25  51
ENDBRANCH  23  25
ENDBRANCH  15  23
ENDBRANCH   5   6
BRANCH   5  53
HETATM   53  N7  UNL     1      18.784  10.532 -31.921  1.00  0.00    -0.052 N
ATOM     54  H73 UNL     1      18.027  11.198 -31.763  1.00  0.00     0.277 HD
ATOM     55  H72 UNL     1      19.494  10.968 -31.332  1.00  0.00     0.277 HD
ATOM     56  H71 UNL     1      19.066  10.506 -32.900  1.00  0.00     0.277 HD
ENDBRANCH   5  53
ENDBRANCH   1   5
TORSDOF 13
ENDMDL