MODEL 2
REMARK VINA RESULT: -7.598260859      1.843      2.497
REMARK  12 active torsions:
REMARK  status: ('A' for Active; 'I' for Inactive)
REMARK    1  A    between atoms: C2_2  and  C3_4
REMARK    2  A    between atoms: C3_4  and  N1_5
REMARK    3  A    between atoms: C3_4  and  C4_9
REMARK    4  A    between atoms: C4_9  and  O2_10
REMARK    5  A    between atoms: C4_9  and  N2_12
REMARK    6  A    between atoms: N2_12  and  C6_14
REMARK    7  A    between atoms: C7_17  and  N4_18
REMARK    8  A    between atoms: C9_27  and  C10_28
REMARK    9  A    between atoms: C11_33  and  S1_34
REMARK   10  A    between atoms: S1_34  and  C12_35
REMARK   11  A    between atoms: N13_46  and  O3_47
REMARK   12  A    between atoms: N14_49  and  N15_50
ROOT
HETATM    1  C6  UNL     1      10.617   9.770 -33.273  1.00  0.00     0.138 A
HETATM    2  N3  UNL     1       9.941  10.460 -34.240  1.00  0.00    -0.176 N
ATOM      3  H3  UNL     1       9.257   9.964 -34.811  1.00  0.00     0.186 HD
HETATM    4  C7  UNL     1      10.143  11.758 -34.465  1.00  0.00     0.679 A
HETATM    5  N5  UNL     1      11.034  12.458 -33.738  1.00  0.00    -0.176 N
ATOM      6  H5  UNL     1      11.192  13.451 -33.906  1.00  0.00     0.186 HD
HETATM    7  C8  UNL     1      11.704  11.798 -32.787  1.00  0.00     0.132 A
HETATM    8  N6  UNL     1      12.558  12.430 -32.077  1.00  0.00    -0.384 N
ATOM      9  H61 UNL     1      13.069  11.926 -31.352  1.00  0.00     0.157 HD
ATOM     10  H62 UNL     1      12.691  13.422 -32.272  1.00  0.00     0.157 HD
HETATM   11  C9  UNL     1      11.521  10.430 -32.520  1.00  0.00     0.100 A
ENDROOT
BRANCH  11  12
HETATM   12  C10 UNL     1      12.329   9.820 -31.449  1.00  0.00     0.161 A
HETATM   13  N7  UNL     1      12.071   9.868 -30.126  1.00  0.00    -0.281 N
HETATM   14  N8  UNL     1      13.028   9.225 -29.487  1.00  0.00    -0.276 N
ATOM     15  H7  UNL     1      11.270  10.326 -29.692  1.00  0.00     0.188 HD
HETATM   16  C11 UNL     1      13.939   8.736 -30.339  1.00  0.00     0.188 A
ATOM     17  H8  UNL     1      13.069   9.114 -28.474  1.00  0.00     0.189 HD
HETATM   18  N14 UNL     1      13.462   9.133 -31.576  1.00  0.00    -0.220 N
BRANCH  16  19
HETATM   19  S1  UNL     1      15.419   7.803 -30.105  1.00  0.00    -0.025 SA
BRANCH  19  20
HETATM   20  C12 UNL     1      16.931   8.628 -30.383  1.00  0.00     0.167 A
HETATM   21  C13 UNL     1      17.613   8.989 -29.256  1.00  0.00     0.169 A
HETATM   22  N9  UNL     1      17.071   8.678 -27.978  1.00  0.00    -0.079 NA
HETATM   23  N10 UNL     1      18.833   9.683 -29.359  1.00  0.00    -0.175 N
HETATM   24  C14 UNL     1      19.425  10.049 -30.601  1.00  0.00     0.693 A
ATOM     25  H10 UNL     1      19.318   9.937 -28.499  1.00  0.00     0.185 HD
HETATM   26  N11 UNL     1      20.546  10.686 -30.656  1.00  0.00    -0.233 N
HETATM   27  N12 UNL     1      18.718   9.675 -31.765  1.00  0.00    -0.105 N
ATOM     28 2H11 UNL     1      21.058  10.957 -29.815  1.00  0.00     0.174 HD
ATOM     29 1H11 UNL     1      20.971  10.949 -31.546  1.00  0.00     0.174 HD
HETATM   30  N13 UNL     1      17.483   8.970 -31.637  1.00  0.00    -0.139 N
ATOM     31  H12 UNL     1      19.087   9.905 -32.688  1.00  0.00     0.208 HD
BRANCH  30  32
HETATM   32  O3  UNL     1      16.937   8.641 -32.826  1.00  0.00    -0.267 OA
ATOM     33  H3  UNL     1      17.285   8.907 -33.669  1.00  0.00     0.247 HD
ENDBRANCH  30  32
ENDBRANCH  19  20
ENDBRANCH  16  19
BRANCH  18  34
HETATM   34  N15 UNL     1      14.131   8.837 -32.769  1.00  0.00    -0.335 N
ATOM     35 2H15 UNL     1      13.902   8.021 -33.335  1.00  0.00     0.177 HD
ATOM     36 1H15 UNL     1      14.895   9.367 -33.187  1.00  0.00     0.177 HD
ENDBRANCH  18  34
ENDBRANCH  11  12
BRANCH   1  37
HETATM   37  N2  UNL     1      10.323   8.360 -33.117  1.00  0.00    -0.342 N
HETATM   38  C5  UNL     1      10.657   7.570 -34.292  1.00  0.00     0.154 C
BRANCH  37  39
HETATM   39  C4  UNL     1       9.737   7.925 -31.922  1.00  0.00     0.259 C
BRANCH  39  40
HETATM   40  C3  UNL     1      10.011   6.582 -31.356  1.00  0.00     0.300 C
BRANCH  40  41
HETATM   41  C2  UNL     1       8.849   5.653 -31.301  1.00  0.00     0.157 C
HETATM   42  C1  UNL     1       8.449   4.894 -30.086  1.00  0.00     0.093 C
HETATM   43  O1  UNL     1       8.125   5.457 -32.292  1.00  0.00    -0.296 OA
ENDBRANCH  40  41
BRANCH  40  44
HETATM   44  N1  UNL     1      10.285   6.836 -29.888  1.00  0.00    -0.064 N
ATOM     45  H13 UNL     1       9.501   6.644 -29.264  1.00  0.00     0.275 HD
ATOM     46  H12 UNL     1      10.924   6.175 -29.448  1.00  0.00     0.275 HD
ATOM     47  H11 UNL     1      10.603   7.805 -29.895  1.00  0.00     0.275 HD
ENDBRANCH  40  44
ENDBRANCH  39  40
BRANCH  39  48
HETATM   48  O2  UNL     1       8.328   8.134 -32.004  1.00  0.00    -0.374 OA
ATOM     49  H2  UNL     1       8.083   8.320 -32.902  1.00  0.00     0.212 HD
ENDBRANCH  39  48
ENDBRANCH  37  39
ENDBRANCH   1  37
BRANCH   4  50
HETATM   50  N4  UNL     1       9.495  12.392 -35.382  1.00  0.00    -0.234 N
ATOM     51  H42 UNL     1       8.763  13.036 -35.082  1.00  0.00     0.174 HD
ATOM     52  H41 UNL     1       9.705  12.257 -36.371  1.00  0.00     0.174 HD
ENDBRANCH   4  50
TORSDOF 12
ENDMDL