MODEL 1
REMARK VINA RESULT: -6.646068618      0.000      0.000
REMARK  0 active torsions:
REMARK  status: ('A' for Active; 'I' for Inactive)
ROOT
HETATM    1  C1  UNL     1      -5.348   5.571 -28.170  1.00  0.00    -0.030 C
HETATM    2  C2  UNL     1      -5.344   5.842 -29.115  1.00  0.00    -0.030 C
HETATM    3  C3  UNL     1      -5.679   5.853 -30.454  1.00  0.00     0.026 C
HETATM    4  C4  UNL     1      -6.675   4.487 -30.322  1.00  0.00     0.004 C
HETATM    5  C5  UNL     1      -7.277   4.648 -28.954  1.00  0.00     0.001 C
HETATM    6  C6  UNL     1      -6.709   3.805 -27.849  1.00  0.00     0.004 C
HETATM    7  C7  UNL     1      -5.696   4.873 -27.036  1.00  0.00     0.026 C
ENDROOT
TORSDOF 0
ENDMDL