MODEL 4
REMARK VINA RESULT: -6.106679796      0.848      1.406
REMARK  0 active torsions:
REMARK  status: ('A' for Active; 'I' for Inactive)
ROOT
HETATM    1  C1  UNL     1      -6.062   6.095 -31.261  1.00  0.00     0.006 C
HETATM    2  C2  UNL     1      -6.507   4.685 -30.982  1.00  0.00     0.011 C
HETATM    3  C3  UNL     1      -7.013   5.062 -29.606  1.00  0.00    -0.033 A
HETATM    4  C4  UNL     1      -7.091   3.911 -28.764  1.00  0.00     0.015 A
HETATM    5  C5  UNL     1      -6.114   4.837 -28.339  1.00  0.00    -0.005 A
HETATM    6  C6  UNL     1      -5.001   5.427 -29.150  1.00  0.00     0.011 C
HETATM    7  C7  UNL     1      -6.138   6.221 -29.738  1.00  0.00    -0.005 C
ENDROOT
TORSDOF 0
ENDMDL