MODEL 3
REMARK VINA RESULT: -6.190678681      0.877      3.330
REMARK  1 active torsions:
REMARK  status: ('A' for Active; 'I' for Inactive)
REMARK    1  A    between atoms: C2_2  and  C3_3
ROOT
HETATM    1  C3  UNL     1      -6.947   4.636 -28.783  1.00  0.00     0.007 C
HETATM    2  C4  UNL     1      -6.367   3.868 -27.591  1.00  0.00     0.008 C
HETATM    3  C5  UNL     1      -5.798   5.055 -26.811  1.00  0.00     0.001 C
HETATM    4  C6  UNL     1      -4.988   5.733 -27.882  1.00  0.00     0.001 C
HETATM    5  C7  UNL     1      -5.748   5.440 -29.182  1.00  0.00     0.008 C
ENDROOT
BRANCH   1   6
HETATM    6  C2  UNL     1      -7.504   3.768 -29.819  1.00  0.00    -0.032 C
HETATM    7  C1  UNL     1      -7.145   3.720 -31.087  1.00  0.00     0.007 C
ENDBRANCH   1   6
TORSDOF 1
ENDMDL