MODEL 2
REMARK VINA RESULT: -6.316030648      1.551      1.966
REMARK  0 active torsions:
REMARK  status: ('A' for Active; 'I' for Inactive)
ROOT
HETATM    1  C1  UNL     1      -6.195   4.671 -28.481  1.00  0.00     0.001 C
HETATM    2  C2  UNL     1      -5.327   5.813 -29.025  1.00  0.00     0.001 C
HETATM    3  C3  UNL     1      -5.584   5.727 -30.521  1.00  0.00     0.009 C
HETATM    4  C4  UNL     1      -6.821   4.914 -30.693  1.00  0.00    -0.040 A
HETATM    5  C5  UNL     1      -7.453   4.916 -29.329  1.00  0.00     0.009 C
HETATM    6  C6  UNL     1      -6.783   3.572 -31.363  1.00  0.00     0.010 A
HETATM    7  C7  UNL     1      -7.539   4.743 -31.930  1.00  0.00     0.010 A
ENDROOT
TORSDOF 0
ENDMDL