MODEL 5
REMARK VINA RESULT: -5.769849113      1.946      3.126
REMARK  1 active torsions:
REMARK  status: ('A' for Active; 'I' for Inactive)
REMARK    1  A    between atoms: O1_1  and  C1_3
ROOT
HETATM    1  C1  UNL     1      -5.182   5.275 -30.349  1.00  0.00     0.118 C
HETATM    2  C2  UNL     1      -5.422   5.743 -28.944  1.00  0.00     0.032 C
HETATM    3  C3  UNL     1      -6.199   4.650 -28.248  1.00  0.00     0.002 C
HETATM    4  C4  UNL     1      -7.498   4.474 -29.028  1.00  0.00     0.000 C
HETATM    5  C5  UNL     1      -7.103   3.816 -30.345  1.00  0.00     0.002 C
HETATM    6  C6  UNL     1      -6.390   4.909 -31.150  1.00  0.00     0.032 C
ENDROOT
BRANCH   1   7
HETATM    7  O1  UNL     1      -3.909   5.199 -30.844  1.00  0.00    -0.396 OA
ATOM      8  H1  UNL     1      -3.588   4.388 -31.221  1.00  0.00     0.210 HD
ENDBRANCH   1   7
TORSDOF 1
ENDMDL