MODEL 2
REMARK VINA RESULT: -6.031408411      0.624      2.124
REMARK  0 active torsions:
REMARK  status: ('A' for Active; 'I' for Inactive)
ROOT
HETATM    1  C1  UNL     1      -7.002   3.735 -30.785  1.00  0.00     0.001 C
HETATM    2  C2  UNL     1      -6.774   4.255 -29.386  1.00  0.00     0.010 C
HETATM    3  C3  UNL     1      -5.748   5.360 -29.564  1.00  0.00    -0.031 A
HETATM    4  C4  UNL     1      -6.294   6.784 -29.808  1.00  0.00     0.020 A
HETATM    5  C5  UNL     1      -5.910   5.804 -30.962  1.00  0.00    -0.031 A
HETATM    6  C6  UNL     1      -7.052   5.027 -31.579  1.00  0.00     0.010 C
HETATM    7  C7  UNL     1      -4.630   5.087 -30.616  1.00  0.00     0.020 A
ENDROOT
TORSDOF 0
ENDMDL