MODEL 3
REMARK VINA RESULT: -4.429310489      1.042      1.700
REMARK  0 active torsions:
REMARK  status: ('A' for Active; 'I' for Inactive)
ROOT
HETATM    1  C1  UNL     1      -7.227   4.883 -29.472  1.00  0.00     0.036 C
HETATM    2  C2  UNL     1      -6.569   4.098 -30.599  1.00  0.00     0.273 C
HETATM    3  N1  UNL     1      -5.755   5.060 -31.341  1.00  0.00     0.088 N
HETATM    4  C3  UNL     1      -4.461   5.090 -30.637  1.00  0.00     0.273 C
HETATM    5  C4  UNL     1      -4.888   5.488 -29.217  1.00  0.00     0.036 C
HETATM    6  C5  UNL     1      -6.249   6.051 -29.394  1.00  0.00     0.017 C
HETATM    7  C6  UNL     1      -6.247   6.380 -30.897  1.00  0.00     0.277 C
ENDROOT
TORSDOF 0
ENDMDL