MODEL 1
REMARK VINA RESULT: -5.882158188      0.000      0.000
REMARK  0 active torsions:
REMARK  status: ('A' for Active; 'I' for Inactive)
ROOT
HETATM    1  C1  UNL     1      -4.629   5.056 -30.467  1.00  0.00     0.005 C
HETATM    2  C2  UNL     1      -5.974   4.678 -31.094  1.00  0.00     0.005 C
HETATM    3  C3  UNL     1      -6.961   5.204 -30.052  1.00  0.00    -0.014 C
HETATM    4  C4  UNL     1      -6.739   4.405 -28.805  1.00  0.00     0.005 C
HETATM    5  C5  UNL     1      -5.445   4.951 -28.179  1.00  0.00     0.005 C
HETATM    6  C6  UNL     1      -4.950   5.881 -29.244  1.00  0.00    -0.014 C
HETATM    7  C7  UNL     1      -6.276   6.518 -29.696  1.00  0.00     0.009 C
ENDROOT
TORSDOF 0
ENDMDL