MODEL 1
REMARK VINA RESULT: -6.381063376      0.000      0.000
REMARK  0 active torsions:
REMARK  status: ('A' for Active; 'I' for Inactive)
ROOT
HETATM    1  C1  UNL     1      -7.203   4.160 -29.218  1.00  0.00     0.001 C
HETATM    2  C2  UNL     1      -6.983   4.374 -30.694  1.00  0.00     0.004 C
HETATM    3  C3  UNL     1      -5.942   5.411 -30.995  1.00  0.00    -0.014 C
HETATM    4  C4  UNL     1      -4.664   5.226 -30.228  1.00  0.00     0.009 C
HETATM    5  C5  UNL     1      -5.396   5.879 -29.048  1.00  0.00    -0.014 C
HETATM    6  C6  UNL     1      -6.150   4.773 -28.356  1.00  0.00     0.004 C
HETATM    7  C7  UNL     1      -6.234   6.604 -30.075  1.00  0.00     0.009 C
ENDROOT
TORSDOF 0
ENDMDL