MODEL 3
REMARK VINA RESULT: -6.587636154      0.950      2.627
REMARK  0 active torsions:
REMARK  status: ('A' for Active; 'I' for Inactive)
ROOT
HETATM    1  C1  UNL     1      -7.175   3.925 -30.068  1.00  0.00     0.000 C
HETATM    2  C2  UNL     1      -6.411   4.801 -30.993  1.00  0.00     0.000 C
HETATM    3  C3  UNL     1      -5.102   5.356 -30.403  1.00  0.00     0.005 C
HETATM    4  C4  UNL     1      -5.485   5.943 -29.118  1.00  0.00    -0.010 A
HETATM    5  C5  UNL     1      -5.066   5.765 -27.784  1.00  0.00     0.010 A
HETATM    6  C6  UNL     1      -5.795   4.660 -28.268  1.00  0.00    -0.010 A
HETATM    7  C7  UNL     1      -7.198   4.423 -28.612  1.00  0.00     0.005 C
ENDROOT
TORSDOF 0
ENDMDL