MODEL 3
REMARK VINA RESULT: -5.517256153      7.144      8.876
REMARK  7 active torsions:
REMARK  status: ('A' for Active; 'I' for Inactive)
REMARK    1  A    between atoms: O1_2  and  C2_3
REMARK    2  A    between atoms: C2_3  and  N1_5
REMARK    3  A    between atoms: N1_5  and  C3_7
REMARK    4  A    between atoms: C3_7  and  C5_9
REMARK    5  A    between atoms: C6_10  and  C7_11
REMARK    6  A    between atoms: C9_15  and  O2_16
REMARK    7  A    between atoms: O2_16  and  C10_17
ROOT
HETATM    1  C7  UNL     1     -19.846  10.863 -12.129  1.00  0.00     0.077 A
HETATM    2  C8  UNL     1     -19.549  11.864 -11.238  1.00  0.00     0.119 A
HETATM    3  N2  UNL     1     -18.824  11.550 -10.207  1.00  0.00    -0.339 N
ATOM      4  H2  UNL     1     -18.579  12.261  -9.518  1.00  0.00     0.167 HD
HETATM    5  C9  UNL     1     -18.404  10.305 -10.053  1.00  0.00     0.193 A
HETATM    6  S2  UNL     1     -19.058   9.525 -11.423  1.00  0.00    -0.036 SA
ENDROOT
BRANCH   5   7
HETATM    7  O2  UNL     1     -17.613   9.813  -8.992  1.00  0.00    -0.287 OA
BRANCH   7   8
HETATM    8  C10 UNL     1     -16.484   9.058  -9.350  1.00  0.00     0.085 A
HETATM    9  C11 UNL     1     -15.438   9.594 -10.068  1.00  0.00     0.046 A
HETATM   10  C12 UNL     1     -14.342   8.805 -10.398  1.00  0.00    -0.037 A
HETATM   11  C13 UNL     1     -13.203   9.375 -11.174  1.00  0.00     0.050 C
HETATM   12  C14 UNL     1     -14.338   7.480  -9.986  1.00  0.00     0.046 A
HETATM   13 CL1  UNL     1     -12.984   6.437 -10.372  1.00  0.00    -0.083 Cl
HETATM   14  C15 UNL     1     -15.377   6.931  -9.269  1.00  0.00    -0.031 A
HETATM   15  C16 UNL     1     -15.367   5.498  -8.825  1.00  0.00     0.050 C
HETATM   16  C17 UNL     1     -16.453   7.726  -8.950  1.00  0.00    -0.020 A
HETATM   17  C18 UNL     1     -17.591   7.162  -8.175  1.00  0.00     0.052 C
ENDBRANCH   7   8
ENDBRANCH   5   7
BRANCH   1  18
HETATM   18  C6  UNL     1     -20.632  10.947 -13.353  1.00  0.00    -0.056 C
HETATM   19  C5  UNL     1     -21.268  11.003 -14.375  1.00  0.00    -0.075 C
BRANCH  19  20
HETATM   20  C3  UNL     1     -22.062  11.079 -15.626  1.00  0.00     0.160 C
HETATM   21  C4  UNL     1     -23.501  11.373 -15.343  1.00  0.00     0.046 C
BRANCH  20  22
HETATM   22  N1  UNL     1     -21.412  12.042 -16.465  1.00  0.00    -0.347 N
ATOM     23  H1  UNL     1     -21.855  12.944 -16.635  1.00  0.00     0.163 HD
BRANCH  22  24
HETATM   24  C2  UNL     1     -20.159  11.752 -17.058  1.00  0.00     0.210 C
HETATM   25  S1  UNL     1     -19.786  10.259 -17.580  1.00  0.00    -0.033 SA
BRANCH  24  26
HETATM   26  O1  UNL     1     -19.217  12.762 -17.204  1.00  0.00    -0.332 OA
HETATM   27  C1  UNL     1     -19.630  14.043 -17.631  1.00  0.00     0.212 C
ENDBRANCH  24  26
ENDBRANCH  22  24
ENDBRANCH  20  22
ENDBRANCH  19  20
ENDBRANCH   1  18
TORSDOF 7
ENDMDL