MODEL 3
REMARK VINA RESULT: -7.726459445      0.969      1.986
REMARK  4 active torsions:
REMARK  status: ('A' for Active; 'I' for Inactive)
REMARK    1  A    between atoms: C2_2  and  C3_3
REMARK    2  A    between atoms: C6_9  and  C7_10
REMARK    3  A    between atoms: C7_10  and  C8_11
REMARK    4  A    between atoms: C13_16  and  O3_17
ROOT
HETATM    1  C8  UNL     1     -14.311   7.277  -8.730  1.00  0.00     0.023 A
HETATM    2  C9  UNL     1     -13.381   7.488  -9.688  1.00  0.00    -0.026 A
HETATM    3  C10 UNL     1     -12.539   8.675  -9.955  1.00  0.00     0.051 C
HETATM    4  C11 UNL     1     -13.337   6.336 -10.486  1.00  0.00     0.001 A
HETATM    5  C12 UNL     1     -12.593   5.994 -11.582  1.00  0.00     0.052 A
HETATM    6  C13 UNL     1     -12.770   4.761 -12.168  1.00  0.00     0.088 A
HETATM    7  C14 UNL     1     -13.694   3.859 -11.664  1.00  0.00     0.069 A
HETATM    8 CL1  UNL     1     -13.882   2.288 -12.457  1.00  0.00    -0.081 Cl
HETATM    9  C15 UNL     1     -14.430   4.207 -10.574  1.00  0.00     0.057 A
HETATM   10  C16 UNL     1     -14.257   5.441  -9.981  1.00  0.00     0.047 A
HETATM   11  N1  UNL     1     -14.829   6.048  -8.914  1.00  0.00    -0.353 N
HETATM   12  C17 UNL     1     -15.845   5.456  -8.099  1.00  0.00     0.156 C
ENDROOT
BRANCH   1  13
HETATM   13  C7  UNL     1     -14.695   8.197  -7.632  1.00  0.00     0.103 C
BRANCH  13  14
HETATM   14  C6  UNL     1     -16.110   8.621  -7.673  1.00  0.00    -0.011 C
HETATM   15  S1  UNL     1     -17.318   8.147  -6.414  1.00  0.00    -0.100 SA
HETATM   16  C5  UNL     1     -18.747   8.389  -7.535  1.00  0.00     0.207 C
HETATM   17  O2  UNL     1     -18.791   7.434  -8.564  1.00  0.00    -0.304 OA
HETATM   18  C20 UNL     1     -18.165   9.597  -8.298  1.00  0.00     0.069 C
HETATM   19  C4  UNL     1     -18.915   8.075  -9.823  1.00  0.00     0.265 C
HETATM   20  C3  UNL     1     -19.110   9.490  -9.457  1.00  0.00     0.097 C
HETATM   21  O1  UNL     1     -18.859   7.487 -10.917  1.00  0.00    -0.265 OA
HETATM   22  C18 UNL     1     -16.761   9.364  -8.561  1.00  0.00    -0.062 C
HETATM   23  C19 UNL     1     -15.991   9.914  -9.756  1.00  0.00     0.045 C
BRANCH  20  24
HETATM   24  C2  UNL     1     -19.066  10.490 -10.508  1.00  0.00     0.011 C
HETATM   25  C1  UNL     1     -18.976  11.869  -9.834  1.00  0.00     0.006 C
ENDBRANCH  20  24
ENDBRANCH  13  14
ENDBRANCH   1  13
BRANCH   6  26
HETATM   26  O3  UNL     1     -12.024   4.398 -13.281  1.00  0.00    -0.359 OA
ATOM     27  H3  UNL     1     -12.367   4.534 -14.157  1.00  0.00     0.217 HD
ENDBRANCH   6  26
TORSDOF 4
ENDMDL