MODEL 2
REMARK VINA RESULT: -6.624217945      1.573      3.007
REMARK  5 active torsions:
REMARK  status: ('A' for Active; 'I' for Inactive)
REMARK    1  A    between atoms: C2_2  and  S1_3
REMARK    2  A    between atoms: S1_3  and  C3_4
REMARK    3  A    between atoms: C8_10  and  N1_11
REMARK    4  A    between atoms: C9_12  and  O1_13
REMARK    5  A    between atoms: C10_15  and  C11_16
ROOT
HETATM    1  N1  UNL     1     -15.625   8.059  -8.880  1.00  0.00    -0.251 N
HETATM    2  C9  UNL     1     -16.476   9.023  -9.194  1.00  0.00     0.164 A
HETATM    3  C10 UNL     1     -17.783   8.854  -8.835  1.00  0.00     0.047 A
HETATM    4  S2  UNL     1     -17.763   7.336  -8.064  1.00  0.00    -0.028 SA
HETATM    5  C15 UNL     1     -16.105   6.996  -8.237  1.00  0.00     0.297 A
HETATM    6  O2  UNL     1     -15.451   5.957  -7.844  1.00  0.00    -0.259 OA
ENDROOT
BRANCH   1   7
HETATM    7  C8  UNL     1     -14.188   8.088  -9.194  1.00  0.00     0.062 A
HETATM    8  C3  UNL     1     -13.323   8.612  -8.258  1.00  0.00     0.029 A
HETATM    9  C4  UNL     1     -11.987   8.617  -8.599  1.00  0.00     0.040 A
HETATM   10  C5  UNL     1     -11.538   8.129  -9.807  1.00  0.00     0.012 A
HETATM   11 BR1  UNL     1      -9.683   8.137 -10.276  1.00  0.00    -0.051 Br
HETATM   12  C6  UNL     1     -12.419   7.619 -10.708  1.00  0.00     0.021 A
HETATM   13  C7  UNL     1     -13.765   7.593 -10.410  1.00  0.00     0.033 A
BRANCH   8  14
HETATM   14  S1  UNL     1     -13.904   9.245  -6.696  1.00  0.00    -0.128 SA
BRANCH  14  15
HETATM   15  C2  UNL     1     -14.369  10.996  -6.831  1.00  0.00     0.075 C
HETATM   16  C1  UNL     1     -15.747  11.230  -6.213  1.00  0.00     0.016 C
ENDBRANCH  14  15
ENDBRANCH   8  14
ENDBRANCH   1   7
BRANCH   2  17
HETATM   17  O1  UNL     1     -16.068  10.212  -9.886  1.00  0.00    -0.345 OA
ATOM     18  H1  UNL     1     -15.761  10.196 -10.785  1.00  0.00     0.219 HD
ENDBRANCH   2  17
BRANCH   3  19
HETATM   19  C11 UNL     1     -18.939   9.803  -9.081  1.00  0.00    -0.013 C
HETATM   20  C12 UNL     1     -20.133   9.216  -8.376  1.00  0.00     0.020 C
HETATM   21  C13 UNL     1     -18.561  11.172  -8.628  1.00  0.00     0.020 C
HETATM   22  C14 UNL     1     -19.285   9.829 -10.565  1.00  0.00     0.020 C
ENDBRANCH   3  19
TORSDOF 5
ENDMDL