MODEL 5
REMARK VINA RESULT: -8.000988610      2.704      4.389
REMARK  3 active torsions:
REMARK  status: ('A' for Active; 'I' for Inactive)
REMARK    1  A    between atoms: O1_2  and  C2_3
REMARK    2  A    between atoms: C5_7  and  C6_8
REMARK    3  A    between atoms: C18_26  and  O4_27
ROOT
HETATM    1  C6  UNL     1     -16.892   8.390  -9.164  1.00  0.00     0.066 C
HETATM    2  C7  UNL     1     -18.337   8.700  -9.470  1.00  0.00     0.177 C
HETATM    3  C8  UNL     1     -19.298   8.572  -8.400  1.00  0.00     0.073 C
HETATM    4  N1  UNL     1     -20.106   8.496  -7.536  1.00  0.00    -0.196 NA
HETATM    5  C9  UNL     1     -18.318  10.209  -9.717  1.00  0.00     0.136 C
HETATM    6  N2  UNL     1     -18.981  10.696 -10.645  1.00  0.00    -0.382 N
ATOM      7  H21 UNL     1     -18.969  11.703 -10.810  1.00  0.00     0.158 HD
ATOM      8  H22 UNL     1     -19.563  10.148 -11.280  1.00  0.00     0.158 HD
HETATM    9  O2  UNL     1     -17.531  10.949  -8.860  1.00  0.00    -0.301 OA
HETATM   10  C10 UNL     1     -16.804  10.349  -7.814  1.00  0.00     0.064 C
HETATM   11  C11 UNL     1     -16.211  11.105  -6.941  1.00  0.00     0.016 C
HETATM   12  C12 UNL     1     -15.404  10.604  -5.780  1.00  0.00    -0.021 C
HETATM   13  C13 UNL     1     -15.756  11.349  -4.517  1.00  0.00     0.019 C
HETATM   14  C14 UNL     1     -13.935  10.873  -6.092  1.00  0.00     0.019 C
HETATM   15  C15 UNL     1     -15.641   9.138  -5.543  1.00  0.00     0.092 C
HETATM   16  C16 UNL     1     -15.622   8.484  -6.927  1.00  0.00     0.139 C
HETATM   17  O3  UNL     1     -14.679   7.776  -7.102  1.00  0.00    -0.297 OA
HETATM   18  C17 UNL     1     -16.740   8.851  -7.739  1.00  0.00     0.122 C
ENDROOT
BRANCH   1  19
HETATM   19  C5  UNL     1     -16.362   7.083  -9.474  1.00  0.00     0.004 A
HETATM   20  C4  UNL     1     -15.051   6.989 -10.024  1.00  0.00     0.046 A
HETATM   21  C3  UNL     1     -14.411   5.803 -10.216  1.00  0.00     0.061 A
HETATM   22 CL1  UNL     1     -14.276   8.495 -10.556  1.00  0.00    -0.084 Cl
HETATM   23  C2  UNL     1     -15.001   4.605  -9.884  1.00  0.00     0.072 A
HETATM   24  C20 UNL     1     -16.264   4.678  -9.357  1.00  0.00     0.074 A
HETATM   25  C18 UNL     1     -16.941   5.890  -9.150  1.00  0.00     0.079 A
BRANCH  23  26
HETATM   26  O1  UNL     1     -14.342   3.401 -10.075  1.00  0.00    -0.356 OA
HETATM   27  C1  UNL     1     -14.438   2.621 -11.230  1.00  0.00     0.210 C
ENDBRANCH  23  26
BRANCH  25  28
HETATM   28  O4  UNL     1     -18.202   5.858  -8.613  1.00  0.00    -0.355 OA
HETATM   29  C19 UNL     1     -18.765   4.607  -8.269  1.00  0.00     0.210 C
ENDBRANCH  25  28
ENDBRANCH   1  19
TORSDOF 3
ENDMDL