MODEL 4
REMARK VINA RESULT: -6.578463678      4.065      6.644
REMARK  4 active torsions:
REMARK  status: ('A' for Active; 'I' for Inactive)
REMARK    1  A    between atoms: C2_2  and  N1_3
REMARK       I    between atoms: N1_3  and  C3_4
REMARK    2  A    between atoms: N1_3  and  C10_19
REMARK    3  A    between atoms: C3_4  and  C4_6
REMARK    4  A    between atoms: C10_19  and  C13_22
ROOT
HETATM    1  N1  UNL     1     -15.643   8.378  -8.141  1.00  0.00    -0.338 N
HETATM    2  C3  UNL     1     -16.309   8.324  -9.371  1.00  0.00     0.271 C
HETATM    3  O1  UNL     1     -16.000   7.348 -10.155  1.00  0.00    -0.266 OA
ENDROOT
BRANCH   1   4
HETATM    4  C2  UNL     1     -15.962   9.412  -7.181  1.00  0.00     0.122 C
HETATM    5  C1  UNL     1     -15.005  10.556  -7.128  1.00  0.00     0.026 C
ENDBRANCH   1   4
BRANCH   1   6
HETATM    6  C10 UNL     1     -14.622   7.368  -7.853  1.00  0.00     0.034 C
HETATM    7  C11 UNL     1     -14.415   7.275  -6.343  1.00  0.00     0.039 C
HETATM    8  C12 UNL     1     -15.171   5.983  -8.259  1.00  0.00     0.039 C
BRANCH   6   9
HETATM    9  C13 UNL     1     -13.348   7.510  -8.589  1.00  0.00     0.047 C
HETATM   10  C14 UNL     1     -13.286   6.879  -9.958  1.00  0.00     0.011 C
HETATM   11  C15 UNL     1     -11.911   7.024 -10.538  1.00  0.00     0.009 C
HETATM   12  C16 UNL     1     -11.273   8.355 -10.427  1.00  0.00    -0.045 C
HETATM   13  C17 UNL     1      -9.751   8.133 -10.442  1.00  0.00     0.015 C
HETATM   14  C18 UNL     1     -11.554   9.257 -11.614  1.00  0.00     0.015 C
HETATM   15  C19 UNL     1     -11.539   9.049  -9.100  1.00  0.00     0.046 C
HETATM   16  C20 UNL     1     -13.055   8.999  -8.847  1.00  0.00     0.177 C
HETATM   17  F1  UNL     1     -13.604   9.375 -10.072  1.00  0.00    -0.249 F
ENDBRANCH   6   9
ENDBRANCH   1   6
BRANCH   2  18
HETATM   18  C4  UNL     1     -17.316   9.249  -9.880  1.00  0.00     0.103 A
HETATM   19  C5  UNL     1     -18.019   8.922 -11.025  1.00  0.00     0.067 A
HETATM   20  C6  UNL     1     -19.010   9.763 -11.580  1.00  0.00     0.071 A
HETATM   21  N2  UNL     1     -19.718   9.474 -12.698  1.00  0.00    -0.310 N
HETATM   22  C7  UNL     1     -19.299  10.935 -10.989  1.00  0.00     0.089 A
HETATM   23  S1  UNL     1     -20.729  10.791 -12.893  1.00  0.00     0.068 SA
ATOM     24  H2  UNL     1     -19.649   8.644 -13.286  1.00  0.00     0.176 HD
HETATM   25  N3  UNL     1     -20.245  11.686 -11.562  1.00  0.00    -0.309 N
ATOM     26  H3  UNL     1     -20.593  12.596 -11.259  1.00  0.00     0.176 HD
HETATM   27  C8  UNL     1     -18.570  11.246  -9.826  1.00  0.00     0.035 A
HETATM   28  C9  UNL     1     -18.841  12.525  -9.125  1.00  0.00     0.070 C
HETATM   29  N4  UNL     1     -17.641  10.424  -9.331  1.00  0.00    -0.353 N
ATOM     30  H4  UNL     1     -17.150  10.711  -8.484  1.00  0.00     0.166 HD
ENDBRANCH   2  18
TORSDOF 4
ENDMDL