MODEL 1
REMARK VINA RESULT: -7.272806542      0.000      0.000
REMARK  3 active torsions:
REMARK  status: ('A' for Active; 'I' for Inactive)
REMARK    1  A    between atoms: C3_3  and  C4_4
REMARK    2  A    between atoms: C7_7  and  O1_8
REMARK    3  A    between atoms: O1_8  and  C8_9
ROOT
HETATM    1  C8  UNL     1     -14.627   8.410  -8.639  1.00  0.00     0.190 A
HETATM    2  N1  UNL     1     -13.351   8.216  -8.414  1.00  0.00    -0.316 N
ATOM      3  H1  UNL     1     -13.053   7.775  -7.544  1.00  0.00     0.170 HD
HETATM    4  C9  UNL     1     -12.460   8.581  -9.292  1.00  0.00     0.125 A
HETATM    5  N2  UNL     1     -11.092   8.448  -9.206  1.00  0.00    -0.345 N
ATOM      6  H2  UNL     1     -10.685   8.019  -8.374  1.00  0.00     0.167 HD
HETATM    7  C10 UNL     1     -10.296   8.859 -10.167  1.00  0.00     0.007 A
HETATM    8  C11 UNL     1      -8.805   8.692 -10.026  1.00  0.00     0.068 C
HETATM    9  C12 UNL     1     -10.707   9.464 -11.361  1.00  0.00     0.033 A
HETATM   10  C13 UNL     1     -12.074   9.603 -11.460  1.00  0.00    -0.039 A
HETATM   11  C14 UNL     1     -12.703  10.216 -12.641  1.00  0.00     0.050 C
HETATM   12  C15 UNL     1     -12.905   9.168 -10.445  1.00  0.00     0.059 A
HETATM   13  S1  UNL     1     -14.614   9.153 -10.178  1.00  0.00    -0.042 SA
ENDROOT
BRANCH   1  14
HETATM   14  O1  UNL     1     -15.671   8.068  -7.788  1.00  0.00    -0.296 OA
BRANCH  14  15
HETATM   15  C7  UNL     1     -15.924   6.715  -7.501  1.00  0.00     0.331 C
HETATM   16  C6  UNL     1     -15.256   5.844  -8.548  1.00  0.00     0.078 C
HETATM   17  C4  UNL     1     -16.425   5.114  -9.171  1.00  0.00     0.016 C
HETATM   18  C5  UNL     1     -17.100   5.995 -10.166  1.00  0.00     0.023 C
HETATM   19  C16 UNL     1     -17.342   5.000  -7.946  1.00  0.00     0.271 C
HETATM   20  N3  UNL     1     -17.340   6.398  -7.519  1.00  0.00    -0.034 N
HETATM   21 BR1  UNL     1     -19.081   4.369  -8.389  1.00  0.00    -0.059 Br
ATOM     22  H32 UNL     1     -17.833   6.581  -6.645  1.00  0.00     0.281 HD
ATOM     23  H31 UNL     1     -17.912   7.022  -8.088  1.00  0.00     0.281 HD
BRANCH  17  24
HETATM   24  C3  UNL     1     -16.054   3.792  -9.698  1.00  0.00    -0.019 C
HETATM   25  C2  UNL     1     -15.025   3.639 -10.521  1.00  0.00    -0.034 C
HETATM   26  C1  UNL     1     -14.617   2.335 -11.072  1.00  0.00     0.036 C
ENDBRANCH  17  24
ENDBRANCH  14  15
ENDBRANCH   1  14
TORSDOF 3
ENDMDL