MODEL 4
REMARK VINA RESULT: -7.741596984      0.902      1.611
REMARK  7 active torsions:
REMARK  status: ('A' for Active; 'I' for Inactive)
REMARK    1  A    between atoms: C6_10  and  C7_11
REMARK    2  A    between atoms: C7_11  and  C10_14
REMARK    3  A    between atoms: C14_18  and  C15_19
REMARK    4  A    between atoms: C15_19  and  O2_21
REMARK    5  A    between atoms: O2_21  and  C16_22
REMARK    6  A    between atoms: C16_22  and  C17_23
REMARK    7  A    between atoms: C17_23  and  C18_25
ROOT
HETATM    1  C1  UNL     1     -17.972   7.437  -8.910  1.00  0.00     0.051 C
HETATM    2  C2  UNL     1     -16.634   6.858  -9.242  1.00  0.00    -0.020 A
HETATM    3  C3  UNL     1     -16.474   5.508  -9.060  1.00  0.00     0.090 A
HETATM    4  C4  UNL     1     -17.537   4.681  -8.572  1.00  0.00     0.103 C
HETATM    5  N1  UNL     1     -18.399   3.994  -8.179  1.00  0.00    -0.191 NA
HETATM    6  C5  UNL     1     -15.242   4.982  -9.370  1.00  0.00     0.125 A
HETATM    7 CL1  UNL     1     -14.969   3.243  -9.156  1.00  0.00    -0.063 Cl
HETATM    8  N2  UNL     1     -14.263   5.769  -9.824  1.00  0.00    -0.347 N
ATOM      9  H2  UNL     1     -13.363   5.342 -10.042  1.00  0.00     0.167 HD
HETATM   10  C6  UNL     1     -14.401   7.105 -10.011  1.00  0.00     0.036 A
HETATM   11  C14 UNL     1     -15.602   7.680  -9.720  1.00  0.00     0.070 A
ENDROOT
BRANCH  11  12
HETATM   12  C15 UNL     1     -15.876   9.103  -9.856  1.00  0.00     0.296 C
HETATM   13  O1  UNL     1     -16.461   9.599 -10.836  1.00  0.00    -0.259 OA
BRANCH  12  14
HETATM   14  O2  UNL     1     -15.468   9.950  -8.847  1.00  0.00    -0.310 OA
BRANCH  14  15
HETATM   15  C16 UNL     1     -16.046  10.110  -7.597  1.00  0.00     0.258 C
BRANCH  15  16
HETATM   16  C17 UNL     1     -15.129  10.049  -6.442  1.00  0.00     0.158 C
HETATM   17  O3  UNL     1     -14.049  10.590  -6.436  1.00  0.00    -0.295 OA
BRANCH  16  18
HETATM   18  C18 UNL     1     -15.547   9.295  -5.235  1.00  0.00     0.012 C
HETATM   19  C19 UNL     1     -16.803   8.503  -5.502  1.00  0.00     0.022 C
HETATM   20  C20 UNL     1     -14.485   8.318  -4.785  1.00  0.00     0.022 C
HETATM   21  C21 UNL     1     -15.861  10.314  -4.154  1.00  0.00     0.022 C
ENDBRANCH  16  18
ENDBRANCH  15  16
ENDBRANCH  14  15
ENDBRANCH  12  14
ENDBRANCH  11  12
BRANCH  10  22
HETATM   22  C7  UNL     1     -13.254   7.898 -10.528  1.00  0.00     0.003 C
HETATM   23  C8  UNL     1     -12.396   7.098 -11.456  1.00  0.00     0.022 C
HETATM   24  C9  UNL     1     -13.687   9.220 -11.128  1.00  0.00     0.022 C
BRANCH  22  25
HETATM   25  C10 UNL     1     -12.352   8.279  -9.342  1.00  0.00    -0.039 C
HETATM   26  C11 UNL     1     -10.980   7.684  -9.586  1.00  0.00     0.015 C
HETATM   27  C12 UNL     1     -12.885   7.724  -8.051  1.00  0.00     0.015 C
HETATM   28  C13 UNL     1     -12.182   9.793  -9.284  1.00  0.00     0.015 C
ENDBRANCH  22  25
ENDBRANCH  10  22
TORSDOF 7
ENDMDL