MODEL 2
REMARK VINA RESULT: -8.434388760      2.740      6.765
REMARK  6 active torsions:
REMARK  status: ('A' for Active; 'I' for Inactive)
REMARK    1  A    between atoms: N1_11  and  O1_13
REMARK    2  A    between atoms: O1_13  and  C11_14
REMARK    3  A    between atoms: C11_14  and  C12_16
REMARK    4  A    between atoms: C12_16  and  C13_17
REMARK    5  A    between atoms: C17_22  and  C18_23
REMARK    6  A    between atoms: C20_26  and  O4_27
ROOT
HETATM    1  C1  UNL     1     -12.200   7.466  -8.884  1.00  0.00     0.017 C
HETATM    2  C2  UNL     1     -13.587   7.403  -9.483  1.00  0.00    -0.020 C
HETATM    3  C3  UNL     1     -13.678   6.429 -10.570  1.00  0.00     0.024 C
HETATM    4  C4  UNL     1     -12.324   6.061 -11.178  1.00  0.00     0.014 C
HETATM    5  C5  UNL     1     -12.853   4.983 -12.150  1.00  0.00     0.028 C
HETATM    6  C6  UNL     1     -13.780   4.266 -11.204  1.00  0.00    -0.023 C
HETATM    7  C7  UNL     1     -14.244   5.121 -10.299  1.00  0.00    -0.078 C
HETATM    8  C8  UNL     1     -15.197   4.592  -9.249  1.00  0.00     0.040 C
HETATM    9  C9  UNL     1     -16.378   5.537  -9.286  1.00  0.00     0.059 C
HETATM   10  C10 UNL     1     -15.928   6.848  -8.783  1.00  0.00     0.016 C
HETATM   11  N1  UNL     1     -16.867   7.729  -8.721  1.00  0.00    -0.266 N
ATOM     12  H1  UNL     1     -16.629   8.661  -8.381  1.00  0.00     0.194 HD
HETATM   13  C14 UNL     1     -14.591   7.262  -8.358  1.00  0.00     0.043 C
HETATM   14  C15 UNL     1     -14.613   8.644  -7.699  1.00  0.00     0.012 C
HETATM   15  C16 UNL     1     -14.059   9.600  -8.724  1.00  0.00     0.011 C
HETATM   16  C17 UNL     1     -13.996   8.795  -9.980  1.00  0.00     0.030 C
ENDROOT
BRANCH  11  17
HETATM   17  O1  UNL     1     -18.157   7.491  -9.081  1.00  0.00    -0.200 OA
BRANCH  17  18
HETATM   18  C11 UNL     1     -19.250   8.195  -8.614  1.00  0.00     0.282 C
HETATM   19  O2  UNL     1     -20.268   7.544  -8.274  1.00  0.00    -0.263 OA
BRANCH  18  20
HETATM   20  C12 UNL     1     -19.218   9.686  -8.522  1.00  0.00     0.128 C
BRANCH  20  21
HETATM   21  C13 UNL     1     -19.115  10.269  -9.912  1.00  0.00     0.124 C
HETATM   22 CL1  UNL     1     -18.860  12.017  -9.794  1.00  0.00    -0.130 Cl
ENDBRANCH  20  21
ENDBRANCH  18  20
ENDBRANCH  17  18
ENDBRANCH  11  17
BRANCH  16  23
HETATM   23  C18 UNL     1     -13.125   9.351 -11.003  1.00  0.00    -0.026 A
HETATM   24  C19 UNL     1     -13.488   9.720 -12.268  1.00  0.00     0.152 A
HETATM   25  O3  UNL     1     -12.427  10.185 -12.861  1.00  0.00    -0.300 OA
HETATM   26  C20 UNL     1     -11.370  10.165 -12.109  1.00  0.00     0.183 A
HETATM   27  C21 UNL     1     -11.786   9.627 -10.886  1.00  0.00     0.073 A
BRANCH  26  28
HETATM   28  O4  UNL     1     -10.127  10.600 -12.497  1.00  0.00    -0.341 OA
ATOM     29  H4  UNL     1      -9.709  11.394 -12.184  1.00  0.00     0.220 HD
ENDBRANCH  26  28
ENDBRANCH  16  23
TORSDOF 6
ENDMDL