MODEL 2
REMARK VINA RESULT: -8.026584650      1.345      2.254
REMARK  4 active torsions:
REMARK  status: ('A' for Active; 'I' for Inactive)
REMARK    1  A    between atoms: N1_6  and  C6_7
REMARK    2  A    between atoms: C6_7  and  C7_8
REMARK    3  A    between atoms: C9_13  and  O1_14
REMARK    4  A    between atoms: O1_14  and  O2_15
ROOT
HETATM    1  C7  UNL     1     -14.695   9.538 -10.083  1.00  0.00     0.108 C
HETATM    2  N2  UNL     1     -13.929   9.386  -8.873  1.00  0.00    -0.375 N
ATOM      3  H2  UNL     1     -12.943   9.635  -8.797  1.00  0.00     0.160 HD
HETATM    4  C8  UNL     1     -14.612   8.908  -7.904  1.00  0.00     0.115 C
HETATM    5 CL1  UNL     1     -13.812   8.668  -6.359  1.00  0.00    -0.066 Cl
HETATM    6  C9  UNL     1     -16.002   8.661  -8.315  1.00  0.00     0.158 C
HETATM    7  C10 UNL     1     -15.885   8.700  -9.824  1.00  0.00     0.055 C
HETATM    8  C11 UNL     1     -17.107   9.080 -10.560  1.00  0.00     0.011 C
HETATM    9  C12 UNL     1     -18.415   9.037  -9.872  1.00  0.00     0.005 C
HETATM   10  C13 UNL     1     -18.772   7.741  -9.249  1.00  0.00    -0.014 C
HETATM   11  C14 UNL     1     -18.741   6.664 -10.315  1.00  0.00     0.010 C
HETATM   12  C15 UNL     1     -18.085   7.307  -8.037  1.00  0.00    -0.003 C
HETATM   13  C16 UNL     1     -18.502   7.930  -6.741  1.00  0.00     0.006 C
HETATM   14  C17 UNL     1     -17.311   7.702  -5.805  1.00  0.00     0.005 C
HETATM   15  C18 UNL     1     -16.380   6.813  -6.600  1.00  0.00    -0.011 C
HETATM   16  C19 UNL     1     -16.908   5.367  -6.572  1.00  0.00     0.010 C
HETATM   17  C20 UNL     1     -16.588   7.344  -7.986  1.00  0.00     0.039 C
ENDROOT
BRANCH   1  18
HETATM   18  C6  UNL     1     -13.794   9.170 -11.210  1.00  0.00     0.154 C
BRANCH  18  19
HETATM   19  N1  UNL     1     -12.575   8.516 -10.920  1.00  0.00    -0.352 N
HETATM   20  C4  UNL     1     -12.449   7.182 -10.706  1.00  0.00     0.008 A
HETATM   21  C3  UNL     1     -11.128   6.871 -10.502  1.00  0.00     0.033 A
HETATM   22  C5  UNL     1     -13.549   6.157 -10.684  1.00  0.00     0.068 C
HETATM   23  C2  UNL     1     -10.419   8.034 -10.591  1.00  0.00    -0.038 A
HETATM   24  C1  UNL     1      -8.959   8.247 -10.449  1.00  0.00     0.050 C
HETATM   25  C21 UNL     1     -11.345   9.032 -10.851  1.00  0.00     0.014 A
HETATM   26  C22 UNL     1     -10.934  10.466 -11.035  1.00  0.00     0.069 C
ENDBRANCH  18  19
ENDBRANCH   1  18
BRANCH   6  27
HETATM   27  O1  UNL     1     -16.709   9.738  -7.775  1.00  0.00    -0.224 OA
BRANCH  27  28
HETATM   28  O2  UNL     1     -15.932  10.734  -7.432  1.00  0.00    -0.249 OA
ATOM     29  H2  UNL     1     -16.363  11.359  -6.861  1.00  0.00     0.253 HD
ENDBRANCH  27  28
ENDBRANCH   6  27
TORSDOF 4
ENDMDL