MODEL 3
REMARK VINA RESULT: -7.694768289      3.408      5.359
REMARK  3 active torsions:
REMARK  status: ('A' for Active; 'I' for Inactive)
REMARK    1  A    between atoms: C2_2  and  C3_3
REMARK    2  A    between atoms: C6_6  and  C7_7
REMARK    3  A    between atoms: C11_12  and  O1_13
ROOT
HETATM    1  C7  UNL     1     -15.157   6.286  -9.418  1.00  0.00    -0.001 C
HETATM    2  C8  UNL     1     -14.000   7.000  -9.870  1.00  0.00     0.025 A
HETATM    3  C9  UNL     1     -13.693   8.336  -9.588  1.00  0.00     0.027 A
HETATM    4 BR1  UNL     1     -14.872   9.370  -8.530  1.00  0.00    -0.050 Br
HETATM    5  C10 UNL     1     -12.525   8.908 -10.052  1.00  0.00     0.056 A
HETATM    6  C11 UNL     1     -11.608   8.225 -10.800  1.00  0.00     0.072 A
HETATM    7  C13 UNL     1     -11.895   6.919 -11.083  1.00  0.00     0.075 A
HETATM    8  C14 UNL     1     -13.067   6.277 -10.642  1.00  0.00     0.092 A
HETATM    9  O2  UNL     1     -13.228   4.946 -11.008  1.00  0.00    -0.296 OA
HETATM   10  C15 UNL     1     -14.400   4.318 -10.574  1.00  0.00     0.140 C
HETATM   11  N1  UNL     1     -14.516   3.079 -10.299  1.00  0.00    -0.382 N
ATOM     12  H11 UNL     1     -15.370   2.621  -9.982  1.00  0.00     0.158 HD
ATOM     13  H12 UNL     1     -13.697   2.479 -10.398  1.00  0.00     0.158 HD
HETATM   14  C16 UNL     1     -15.610   5.204 -10.428  1.00  0.00     0.202 C
HETATM   15  C17 UNL     1     -16.630   4.423  -9.743  1.00  0.00     0.077 C
HETATM   16  N2  UNL     1     -17.449   3.813  -9.200  1.00  0.00    -0.196 NA
ENDROOT
BRANCH   1  17
HETATM   17  C6  UNL     1     -16.341   6.893  -8.852  1.00  0.00     0.014 A
HETATM   18  C5  UNL     1     -16.725   6.954  -7.524  1.00  0.00     0.020 A
HETATM   19  C4  UNL     1     -17.815   7.648  -7.233  1.00  0.00     0.016 A
HETATM   20  C3  UNL     1     -18.490   8.260  -8.253  1.00  0.00    -0.017 A
HETATM   21  S1  UNL     1     -17.549   7.825  -9.608  1.00  0.00    -0.094 SA
BRANCH  20  22
HETATM   22  C2  UNL     1     -19.741   9.097  -8.169  1.00  0.00     0.041 C
HETATM   23  C1  UNL     1     -19.390  10.480  -8.623  1.00  0.00     0.010 C
ENDBRANCH  20  22
ENDBRANCH   1  17
BRANCH   6  24
HETATM   24  O1  UNL     1     -10.456   8.803 -11.252  1.00  0.00    -0.356 OA
HETATM   25  C12 UNL     1     -10.304  10.129 -11.650  1.00  0.00     0.210 C
ENDBRANCH   6  24
TORSDOF 3
ENDMDL