MODEL 4
REMARK VINA RESULT: -3.099295592      2.211      8.404
REMARK  4 active torsions:
REMARK  status: ('A' for Active; 'I' for Inactive)
REMARK    1  A    between atoms: C3_4  and  C4_5
REMARK    2  A    between atoms: C5_6  and  C6_7
REMARK    3  A    between atoms: C17_19  and  N2_20
REMARK    4  A    between atoms: N2_20  and  C18_22
ROOT
HETATM    1 CL1  UNL     1      11.917  -6.039 -25.002  1.00  0.00    -0.082 Cl
HETATM    2  C1  UNL     1      12.260  -4.496 -24.253  1.00  0.00     0.061 A
HETATM    3  C2  UNL     1      11.727  -4.207 -23.009  1.00  0.00     0.037 A
HETATM    4  C3  UNL     1      11.954  -3.007 -22.354  1.00  0.00    -0.035 A
HETATM    5  C15 UNL     1      12.760  -2.059 -22.990  1.00  0.00     0.014 A
HETATM    6  C16 UNL     1      13.297  -2.325 -24.222  1.00  0.00     0.032 A
HETATM    7  C17 UNL     1      13.051  -3.540 -24.856  1.00  0.00     0.050 A
ENDROOT
BRANCH   4   8
HETATM    8  C4  UNL     1      11.415  -2.674 -21.062  1.00  0.00     0.008 C
HETATM    9  C5  UNL     1      12.149  -2.294 -20.052  1.00  0.00    -0.019 C
BRANCH   9  10
HETATM   10  C6  UNL     1      11.683  -1.939 -18.710  1.00  0.00     0.031 C
HETATM   11  C7  UNL     1      10.327  -1.292 -18.775  1.00  0.00     0.015 C
HETATM   12  C8  UNL     1      10.399   0.147 -19.123  1.00  0.00     0.045 C
HETATM   13  C9  UNL     1      11.739   0.772 -19.179  1.00  0.00     0.058 C
HETATM   14  N1  UNL     1      12.775   0.240 -18.401  1.00  0.00    -0.388 N
HETATM   15  C10 UNL     1      13.378   1.138 -17.457  1.00  0.00     0.122 C
HETATM   16  C14 UNL     1      12.672  -1.108 -17.944  1.00  0.00     0.091 C
HETATM   17  C11 UNL     1      12.444   1.312 -16.297  1.00  0.00     0.020 C
HETATM   18  C12 UNL     1      11.771   0.049 -15.883  1.00  0.00     0.004 C
HETATM   19  C13 UNL     1      12.367  -1.204 -16.466  1.00  0.00     0.026 C
ENDBRANCH   9  10
ENDBRANCH   4   8
BRANCH   7  20
HETATM   20  N2  UNL     1      13.604  -3.810 -26.138  1.00  0.00    -0.384 N
ATOM     21  H2  UNL     1      12.980  -3.735 -26.942  1.00  0.00     0.160 HD
BRANCH  20  22
HETATM   22  C18 UNL     1      14.970  -4.179 -26.396  1.00  0.00     0.081 C
HETATM   23  C19 UNL     1      15.349  -5.270 -25.378  1.00  0.00     0.025 C
HETATM   24  C20 UNL     1      15.380  -4.617 -24.024  1.00  0.00     0.002 C
HETATM   25  C21 UNL     1      16.649  -3.788 -23.956  1.00  0.00     0.000 C
HETATM   26  C22 UNL     1      17.118  -3.410 -25.328  1.00  0.00     0.002 C
HETATM   27  C23 UNL     1      15.953  -3.044 -26.259  1.00  0.00     0.025 C
ENDBRANCH  20  22
ENDBRANCH   7  20
TORSDOF 4
ENDMDL