MODEL 2
REMARK VINA RESULT: -8.681639564      1.799      2.558
REMARK  5 active torsions:
REMARK  status: ('A' for Active; 'I' for Inactive)
REMARK    1  A    between atoms: C2_2  and  C3_3
REMARK    2  A    between atoms: C3_3  and  C4_4
REMARK    3  A    between atoms: C4_4  and  C5_5
REMARK    4  A    between atoms: C5_5  and  C7_7
REMARK    5  A    between atoms: N1_16  and  O1_18
ROOT
HETATM    1  C7  UNL     1      11.981  -4.271 -24.094  1.00  0.00    -0.002 C
HETATM    2  C8  UNL     1      11.506  -5.034 -22.874  1.00  0.00     0.011 C
HETATM    3  C9  UNL     1      11.681  -3.666 -22.193  1.00  0.00    -0.001 C
HETATM    4  C10 UNL     1      11.969  -3.642 -20.779  1.00  0.00    -0.004 C
HETATM    5  C11 UNL     1      11.635  -2.302 -20.182  1.00  0.00     0.007 C
HETATM    6  C12 UNL     1      11.839  -2.255 -18.660  1.00  0.00     0.017 C
HETATM    7  C13 UNL     1      13.254  -2.591 -18.421  1.00  0.00     0.019 C
HETATM    8  C14 UNL     1      14.244  -1.579 -18.869  1.00  0.00     0.023 C
HETATM    9  C15 UNL     1      13.699  -3.194 -17.162  1.00  0.00     0.022 C
HETATM   10  N1  UNL     1      13.450  -2.976 -15.920  1.00  0.00    -0.277 N
ATOM     11  H1  UNL     1      13.914  -3.566 -15.230  1.00  0.00     0.193 HD
HETATM   12  C16 UNL     1      14.515  -4.105 -18.026  1.00  0.00     0.082 C
HETATM   13  C17 UNL     1      13.407  -4.016 -18.950  1.00  0.00     0.058 C
HETATM   14 CL1  UNL     1      12.021  -4.955 -18.245  1.00  0.00    -0.117 Cl
HETATM   15  C18 UNL     1      13.371  -4.124 -20.371  1.00  0.00     0.015 C
HETATM   16  C19 UNL     1      14.350  -3.476 -21.251  1.00  0.00     0.008 C
HETATM   17  C20 UNL     1      14.109  -4.055 -22.663  1.00  0.00     0.010 C
HETATM   18  C21 UNL     1      12.848  -3.489 -23.170  1.00  0.00    -0.036 C
HETATM   19  C22 UNL     1      12.962  -2.065 -23.634  1.00  0.00     0.016 C
ENDROOT
BRANCH   1  20
HETATM   20  C5  UNL     1      12.486  -5.013 -25.236  1.00  0.00    -0.014 C
HETATM   21  C6  UNL     1      11.506  -5.476 -26.262  1.00  0.00     0.010 C
BRANCH  20  22
HETATM   22  C4  UNL     1      13.476  -4.130 -25.985  1.00  0.00     0.005 C
BRANCH  22  23
HETATM   23  C3  UNL     1      14.876  -4.665 -25.967  1.00  0.00     0.000 C
BRANCH  23  24
HETATM   24  C2  UNL     1      15.841  -3.857 -26.777  1.00  0.00    -0.005 C
HETATM   25  C1  UNL     1      16.671  -3.026 -25.811  1.00  0.00     0.005 C
ENDBRANCH  23  24
ENDBRANCH  22  23
ENDBRANCH  20  22
ENDBRANCH   1  20
BRANCH  10  26
HETATM   26  O1  UNL     1      12.612  -2.014 -15.468  1.00  0.00    -0.290 OA
ATOM     27  H1  UNL     1      12.796  -1.448 -14.728  1.00  0.00     0.244 HD
ENDBRANCH  10  26
TORSDOF 5
ENDMDL