MODEL 3
REMARK VINA RESULT: -7.582047149      1.990      4.237
REMARK  5 active torsions:
REMARK  status: ('A' for Active; 'I' for Inactive)
REMARK    1  A    between atoms: C2_2  and  C3_3
REMARK    2  A    between atoms: C3_3  and  C4_4
REMARK    3  A    between atoms: C12_12  and  C14_14
REMARK    4  A    between atoms: C14_14  and  O1_16
REMARK    5  A    between atoms: C14_14  and  C16_18
ROOT
HETATM    1  C4  UNL     1      17.569  -3.033 -21.043  1.00  0.00    -0.054 C
HETATM    2  C5  UNL     1      18.111  -4.271 -21.064  1.00  0.00    -0.080 C
HETATM    3  C6  UNL     1      19.601  -4.369 -20.892  1.00  0.00     0.043 C
HETATM    4  C7  UNL     1      17.418  -5.537 -21.272  1.00  0.00     0.034 C
HETATM    5  C8  UNL     1      15.910  -5.468 -21.105  1.00  0.00     0.011 C
HETATM    6  C9  UNL     1      15.660  -4.268 -20.261  1.00  0.00     0.021 C
HETATM    7  C10 UNL     1      14.370  -4.063 -19.673  1.00  0.00     0.029 C
HETATM    8  C11 UNL     1      13.609  -5.264 -19.179  1.00  0.00     0.049 C
HETATM    9  C12 UNL     1      12.311  -4.553 -18.764  1.00  0.00     0.089 C
HETATM   10  C13 UNL     1      11.192  -5.444 -19.321  1.00  0.00     0.049 C
HETATM   11  O2  UNL     1      12.327  -3.302 -19.330  1.00  0.00    -0.366 OA
HETATM   12  C18 UNL     1      13.301  -3.291 -20.359  1.00  0.00     0.062 C
HETATM   13  C19 UNL     1      12.658  -3.793 -21.574  1.00  0.00     0.046 C
HETATM   14  C20 UNL     1      13.891  -1.937 -20.614  1.00  0.00     0.040 C
HETATM   15  C21 UNL     1      15.393  -1.879 -20.527  1.00  0.00     0.034 C
HETATM   16  C22 UNL     1      16.089  -3.052 -21.133  1.00  0.00     0.065 C
HETATM   17 CL1  UNL     1      15.721  -3.373 -22.820  1.00  0.00    -0.114 Cl
ENDROOT
BRANCH   9  18
HETATM   18  C14 UNL     1      12.099  -4.552 -17.279  1.00  0.00     0.085 C
HETATM   19  C15 UNL     1      12.640  -5.816 -16.668  1.00  0.00     0.049 C
BRANCH  18  20
HETATM   20  O1  UNL     1      10.699  -4.582 -17.101  1.00  0.00    -0.387 OA
ATOM     21  H1  UNL     1      10.563  -4.519 -16.163  1.00  0.00     0.210 HD
ENDBRANCH  18  20
BRANCH  18  22
HETATM   22  C16 UNL     1      12.698  -3.401 -16.543  1.00  0.00     0.036 C
HETATM   23  C17 UNL     1      14.071  -3.831 -16.063  1.00  0.00     0.008 C
ENDBRANCH  18  22
ENDBRANCH   9  18
BRANCH   1  24
HETATM   24  C3  UNL     1      18.476  -1.920 -20.861  1.00  0.00     0.036 C
BRANCH  24  25
HETATM   25  C2  UNL     1      18.630  -1.260 -19.559  1.00  0.00    -0.000 C
HETATM   26  C1  UNL     1      19.072  -1.989 -18.364  1.00  0.00     0.005 C
ENDBRANCH  24  25
ENDBRANCH   1  24
TORSDOF 5
ENDMDL