MODEL 5
REMARK VINA RESULT: -8.061793338      3.332      6.229
REMARK  5 active torsions:
REMARK  status: ('A' for Active; 'I' for Inactive)
REMARK    1  A    between atoms: C4_4  and  C5_5
REMARK    2  A    between atoms: C9_9  and  C10_10
REMARK    3  A    between atoms: C10_10  and  C11_11
REMARK    4  A    between atoms: C11_11  and  N1_12
REMARK    5  A    between atoms: C15_17  and  O1_19
ROOT
HETATM    1  C1  UNL     1       9.505  -3.510 -23.268  1.00  0.00     0.014 C
HETATM    2  C2  UNL     1      10.555  -3.151 -22.544  1.00  0.00    -0.085 C
HETATM    3  C3  UNL     1      10.825  -1.683 -22.588  1.00  0.00     0.039 C
HETATM    4  C4  UNL     1      11.759  -1.294 -21.500  1.00  0.00    -0.005 C
HETATM    5  C7  UNL     1      13.049  -2.022 -21.460  1.00  0.00     0.014 C
HETATM    6  C8  UNL     1      13.518  -2.577 -22.764  1.00  0.00     0.016 C
HETATM    7  C9  UNL     1      13.642  -4.052 -22.572  1.00  0.00    -0.036 C
HETATM    8  C18 UNL     1      12.324  -4.776 -22.735  1.00  0.00     0.018 C
HETATM    9  C19 UNL     1      11.234  -4.261 -21.855  1.00  0.00     0.016 C
HETATM   10  C20 UNL     1      11.718  -3.902 -20.469  1.00  0.00     0.035 C
HETATM   11  C21 UNL     1      13.033  -3.194 -20.481  1.00  0.00     0.042 C
HETATM   12 CL1  UNL     1      13.496  -2.726 -18.859  1.00  0.00    -0.119 Cl
HETATM   13  C22 UNL     1      14.048  -4.155 -21.117  1.00  0.00     0.035 C
ENDROOT
BRANCH   7  14
HETATM   14  C10 UNL     1      14.631  -4.732 -23.464  1.00  0.00     0.029 C
BRANCH  14  15
HETATM   15  C11 UNL     1      15.966  -4.062 -23.558  1.00  0.00     0.120 C
BRANCH  15  16
HETATM   16  N1  UNL     1      16.865  -4.788 -22.707  1.00  0.00    -0.396 N
HETATM   17  C12 UNL     1      17.465  -4.224 -21.739  1.00  0.00    -0.015 C
HETATM   18  C13 UNL     1      18.407  -4.906 -20.817  1.00  0.00     0.055 C
HETATM   19  C17 UNL     1      17.393  -2.811 -21.292  1.00  0.00     0.089 C
HETATM   20  C14 UNL     1      19.469  -3.845 -20.607  1.00  0.00     0.043 C
HETATM   21  C15 UNL     1      18.597  -2.611 -20.389  1.00  0.00     0.059 C
HETATM   22  C16 UNL     1      18.196  -2.601 -18.938  1.00  0.00     0.046 C
ATOM     23  H1  UNL     1      17.026  -5.780 -22.882  1.00  0.00     0.159 HD
BRANCH  21  24
HETATM   24  O1  UNL     1      19.317  -1.460 -20.738  1.00  0.00    -0.390 OA
ATOM     25  H1  UNL     1      18.713  -0.751 -20.922  1.00  0.00     0.210 HD
ENDBRANCH  21  24
ENDBRANCH  15  16
ENDBRANCH  14  15
ENDBRANCH   7  14
BRANCH   4  26
HETATM   26  C5  UNL     1      11.953   0.228 -21.509  1.00  0.00     0.001 C
HETATM   27  C6  UNL     1      13.163   0.555 -20.650  1.00  0.00     0.005 C
ENDBRANCH   4  26
TORSDOF 5
ENDMDL