MODEL 5
REMARK VINA RESULT: -8.941927693      2.424      5.579
REMARK  5 active torsions:
REMARK  status: ('A' for Active; 'I' for Inactive)
REMARK    1  A    between atoms: N1_2  and  C1_4
REMARK    2  A    between atoms: C6_9  and  N2_10
REMARK    3  A    between atoms: N2_10  and  C7_12
REMARK    4  A    between atoms: C7_12  and  C8_14
REMARK    5  A    between atoms: C8_14  and  C9_15
ROOT
HETATM    1  C8  UNL     1      15.900  -3.991 -21.893  1.00  0.00     0.052 C
HETATM    2  C15 UNL     1      16.624  -5.384 -21.899  1.00  0.00     0.052 C
HETATM    3  C16 UNL     1      17.853  -5.404 -21.014  1.00  0.00    -0.029 C
HETATM    4  C17 UNL     1      18.944  -4.477 -21.154  1.00  0.00    -0.030 C
HETATM    5  C18 UNL     1      19.010  -3.160 -20.398  1.00  0.00     0.038 C
HETATM    6  C19 UNL     1      17.772  -2.251 -20.727  1.00  0.00     0.084 C
HETATM    7  C20 UNL     1      16.802  -3.089 -21.292  1.00  0.00    -0.169 C
ENDROOT
BRANCH   1   8
HETATM    8  C7  UNL     1      14.670  -4.262 -20.998  1.00  0.00     0.199 C
HETATM    9 CL1  UNL     1      15.046  -5.000 -19.475  1.00  0.00    -0.101 Cl
BRANCH   8  10
HETATM   10  N2  UNL     1      13.750  -3.169 -21.006  1.00  0.00    -0.369 N
ATOM     11  H2  UNL     1      14.058  -2.234 -20.739  1.00  0.00     0.161 HD
BRANCH  10  12
HETATM   12  C6  UNL     1      12.413  -3.398 -21.387  1.00  0.00     0.062 A
HETATM   13  C1  UNL     1      11.771  -2.611 -22.296  1.00  0.00     0.129 A
HETATM   14  C2  UNL     1      10.444  -2.918 -22.697  1.00  0.00     0.038 A
HETATM   15  C3  UNL     1       9.763  -3.987 -22.201  1.00  0.00     0.003 A
HETATM   16  C4  UNL     1      10.401  -4.780 -21.286  1.00  0.00     0.002 A
HETATM   17  C5  UNL     1      11.686  -4.490 -20.895  1.00  0.00     0.032 A
BRANCH  13  18
HETATM   18  N1  UNL     1      12.354  -1.469 -22.886  1.00  0.00    -0.113 N
HETATM   19  O1  UNL     1      12.601  -1.452 -24.133  1.00  0.00    -0.532 OA
HETATM   20  O2  UNL     1      12.682  -0.354 -22.212  1.00  0.00    -0.532 OA
ENDBRANCH  13  18
ENDBRANCH  10  12
ENDBRANCH   8  10
ENDBRANCH   1   8
BRANCH   1  21
HETATM   21  C9  UNL     1      15.492  -3.793 -23.332  1.00  0.00     0.009 C
HETATM   22  C10 UNL     1      14.450  -4.818 -23.714  1.00  0.00     0.006 C
HETATM   23  C11 UNL     1      13.810  -4.601 -25.039  1.00  0.00     0.000 C
HETATM   24  C12 UNL     1      14.747  -4.153 -26.120  1.00  0.00     0.000 C
HETATM   25  C13 UNL     1      15.834  -3.261 -25.656  1.00  0.00     0.000 C
HETATM   26  C14 UNL     1      16.525  -3.770 -24.370  1.00  0.00     0.006 C
ENDBRANCH   1  21
TORSDOF 5
ENDMDL