MODEL 1
REMARK VINA RESULT: -8.738955392      0.000      0.000
REMARK  6 active torsions:
REMARK  status: ('A' for Active; 'I' for Inactive)
REMARK       I    between atoms: C1_2  and  N1_3
REMARK    1  A    between atoms: C1_2  and  S1_11
REMARK    2  A    between atoms: N1_3  and  C2_5
REMARK    3  A    between atoms: S1_11  and  C8_12
REMARK    4  A    between atoms: C8_12  and  C17_21
REMARK    5  A    between atoms: C9_13  and  C10_14
REMARK    6  A    between atoms: C10_14  and  C11_15
ROOT
HETATM    1  C8  UNL     1      12.471  -3.671 -23.098  1.00  0.00     0.016 C
HETATM    2  C9  UNL     1      11.644  -4.677 -22.756  1.00  0.00    -0.007 C
ENDROOT
BRANCH   1   3
HETATM    3  S1  UNL     1      12.136  -2.042 -22.509  1.00  0.00    -0.029 SA
BRANCH   3   4
HETATM    4  C1  UNL     1      13.343  -1.438 -21.368  1.00  0.00     0.285 C
HETATM    5  O1  UNL     1      13.499  -0.192 -21.219  1.00  0.00    -0.260 OA
HETATM    6  N1  UNL     1      14.149  -2.341 -20.595  1.00  0.00    -0.347 N
ATOM      7  H1  UNL     1      14.024  -3.347 -20.714  1.00  0.00     0.163 HD
BRANCH   6   8
HETATM    8  C2  UNL     1      15.119  -1.866 -19.669  1.00  0.00     0.085 C
HETATM    9  C3  UNL     1      15.212  -2.672 -18.411  1.00  0.00     0.025 C
HETATM   10  C4  UNL     1      16.129  -3.845 -18.477  1.00  0.00     0.002 C
HETATM   11  C5  UNL     1      16.569  -4.255 -19.837  1.00  0.00     0.000 C
HETATM   12  C6  UNL     1      16.981  -3.133 -20.732  1.00  0.00     0.002 C
HETATM   13  C7  UNL     1      16.503  -1.788 -20.276  1.00  0.00     0.025 C
ENDBRANCH   6   8
ENDBRANCH   3   4
ENDBRANCH   1   3
BRANCH   1  14
HETATM   14  C17 UNL     1      13.551  -3.918 -24.036  1.00  0.00    -0.019 A
HETATM   15  C18 UNL     1      14.868  -3.939 -23.682  1.00  0.00     0.016 A
HETATM   16  C19 UNL     1      15.835  -4.097 -24.635  1.00  0.00     0.043 A
HETATM   17  C20 UNL     1      15.556  -4.242 -25.987  1.00  0.00     0.116 A
HETATM   18  F1  UNL     1      16.549  -4.397 -26.904  1.00  0.00    -0.206 F
HETATM   19  C21 UNL     1      14.240  -4.221 -26.337  1.00  0.00     0.043 A
HETATM   20  C22 UNL     1      13.252  -4.062 -25.390  1.00  0.00     0.016 A
ENDBRANCH   1  14
BRANCH   2  21
HETATM   21  C10 UNL     1      10.469  -4.471 -21.906  1.00  0.00     0.033 C
BRANCH  21  22
HETATM   22  C11 UNL     1      10.538  -5.198 -20.590  1.00  0.00    -0.011 C
HETATM   23  C12 UNL     1      10.293  -4.182 -19.490  1.00  0.00     0.005 C
HETATM   24  C13 UNL     1      11.606  -3.729 -18.872  1.00  0.00     0.000 C
HETATM   25  C14 UNL     1      12.138  -4.877 -18.050  1.00  0.00     0.000 C
HETATM   26  C15 UNL     1      11.996  -6.145 -18.865  1.00  0.00     0.000 C
HETATM   27  C16 UNL     1      11.871  -5.841 -20.344  1.00  0.00     0.005 C
ENDBRANCH  21  22
ENDBRANCH   2  21
TORSDOF 6
ENDMDL