MODEL 1
REMARK VINA RESULT: -8.453965198      0.000      0.000
REMARK  4 active torsions:
REMARK  status: ('A' for Active; 'I' for Inactive)
REMARK    1  A    between atoms: C2_2  and  C4_4
REMARK    2  A    between atoms: N1_7  and  C7_8
REMARK    3  A    between atoms: C10_11  and  N2_12
REMARK    4  A    between atoms: N2_12  and  C11_14
ROOT
HETATM    1  C4  UNL     1      13.532  -3.809 -21.401  1.00  0.00     0.018 A
HETATM    2  C5  UNL     1      14.912  -3.542 -21.611  1.00  0.00    -0.017 A
HETATM    3  C6  UNL     1      15.216  -3.912 -22.888  1.00  0.00     0.021 A
HETATM    4  N1  UNL     1      14.147  -4.396 -23.491  1.00  0.00    -0.331 N
HETATM    5  C10 UNL     1      13.075  -4.344 -22.597  1.00  0.00     0.115 A
HETATM    6  C15 UNL     1      16.612  -3.688 -23.457  1.00  0.00     0.058 C
HETATM    7  C16 UNL     1      17.552  -3.994 -22.317  1.00  0.00     0.013 C
HETATM    8  C17 UNL     1      17.300  -2.902 -21.303  1.00  0.00     0.017 C
HETATM    9  C18 UNL     1      15.940  -3.081 -20.650  1.00  0.00     0.027 C
HETATM   10  C19 UNL     1      16.203  -4.180 -19.594  1.00  0.00     0.010 C
HETATM   11  C20 UNL     1      16.889  -3.489 -18.461  1.00  0.00     0.002 C
HETATM   12  C21 UNL     1      18.055  -2.653 -18.903  1.00  0.00     0.026 C
HETATM   13  C22 UNL     1      18.441  -2.878 -20.345  1.00  0.00     0.037 C
HETATM   14  C23 UNL     1      19.360  -4.064 -20.396  1.00  0.00     0.033 C
HETATM   15 CL1  UNL     1      19.446  -1.444 -20.773  1.00  0.00    -0.119 Cl
ENDROOT
BRANCH   5  16
HETATM   16  N2  UNL     1      11.819  -4.767 -23.050  1.00  0.00    -0.371 N
ATOM     17  H2  UNL     1      11.863  -5.690 -23.483  1.00  0.00     0.161 HD
BRANCH  16  18
HETATM   18  C11 UNL     1      10.510  -4.248 -23.064  1.00  0.00     0.083 A
HETATM   19  C12 UNL     1      10.504  -2.687 -22.961  1.00  0.00     0.025 A
HETATM   20  C13 UNL     1       9.667  -2.778 -21.743  1.00  0.00     0.004 A
HETATM   21  C14 UNL     1       9.698  -4.255 -21.797  1.00  0.00     0.025 A
ENDBRANCH  16  18
ENDBRANCH   5  16
BRANCH   1  22
HETATM   22  C2  UNL     1      12.766  -3.375 -20.227  1.00  0.00    -0.073 C
HETATM   23  C1  UNL     1      12.476  -4.290 -19.116  1.00  0.00     0.044 C
HETATM   24  C3  UNL     1      12.728  -1.902 -19.905  1.00  0.00     0.044 C
ENDBRANCH   1  22
BRANCH   4  25
HETATM   25  C7  UNL     1      14.150  -4.918 -24.831  1.00  0.00     0.091 A
HETATM   26  C8  UNL     1      14.676  -4.165 -25.996  1.00  0.00     0.028 A
HETATM   27  C9  UNL     1      13.186  -4.212 -25.802  1.00  0.00     0.028 A
ENDBRANCH   4  25
TORSDOF 4
ENDMDL