MODEL 4
REMARK VINA RESULT: -8.395699936      1.628      2.218
REMARK  5 active torsions:
REMARK  status: ('A' for Active; 'I' for Inactive)
REMARK    1  A    between atoms: C2_2  and  C3_3
REMARK    2  A    between atoms: C2_2  and  C9_11
REMARK    3  A    between atoms: C3_3  and  C4_4
REMARK    4  A    between atoms: C4_4  and  C5_5
REMARK    5  A    between atoms: C16_18  and  O2_19
ROOT
HETATM    1  C9  UNL     1      12.506  -4.305 -22.637  1.00  0.00     0.022 C
HETATM    2  C10 UNL     1      11.212  -5.038 -22.528  1.00  0.00     0.010 C
HETATM    3  C11 UNL     1      11.041  -4.937 -20.996  1.00  0.00     0.006 C
HETATM    4  C12 UNL     1      11.449  -3.475 -20.733  1.00  0.00    -0.001 C
HETATM    5  C13 UNL     1      12.125  -3.354 -19.438  1.00  0.00    -0.005 C
HETATM    6  C14 UNL     1      12.151  -4.662 -18.628  1.00  0.00     0.008 C
HETATM    7  C15 UNL     1      12.477  -4.308 -17.189  1.00  0.00     0.032 C
HETATM    8  C16 UNL     1      13.007  -2.930 -17.014  1.00  0.00     0.118 C
HETATM    9  C17 UNL     1      13.940  -2.470 -18.085  1.00  0.00     0.036 C
HETATM   10  C18 UNL     1      13.555  -2.891 -19.463  1.00  0.00    -0.008 C
HETATM   11  C19 UNL     1      13.567  -1.657 -20.379  1.00  0.00     0.006 C
HETATM   12  C20 UNL     1      13.426  -2.249 -21.749  1.00  0.00     0.010 C
HETATM   13  C21 UNL     1      12.157  -3.003 -21.963  1.00  0.00    -0.033 C
HETATM   14  C22 UNL     1      11.238  -2.106 -22.738  1.00  0.00     0.016 C
ENDROOT
BRANCH   1  15
HETATM   15  C2  UNL     1      13.206  -4.259 -23.893  1.00  0.00    -0.084 C
HETATM   16  C1  UNL     1      12.539  -4.731 -24.970  1.00  0.00     0.015 C
BRANCH  15  17
HETATM   17  C3  UNL     1      14.567  -3.802 -24.168  1.00  0.00     0.040 C
BRANCH  17  18
HETATM   18  C4  UNL     1      15.693  -4.693 -23.791  1.00  0.00     0.069 C
BRANCH  18  19
HETATM   19  C5  UNL     1      16.324  -4.445 -22.498  1.00  0.00     0.055 A
HETATM   20  C6  UNL     1      15.954  -4.963 -21.280  1.00  0.00     0.036 A
HETATM   21  C7  UNL     1      16.833  -4.452 -20.356  1.00  0.00     0.052 A
HETATM   22  C8  UNL     1      17.711  -3.639 -21.040  1.00  0.00     0.145 A
HETATM   23 CL1  UNL     1      19.055  -2.719 -20.363  1.00  0.00    -0.057 Cl
HETATM   24  O1  UNL     1      17.354  -3.683 -22.282  1.00  0.00    -0.303 OA
ENDBRANCH  18  19
ENDBRANCH  17  18
ENDBRANCH  15  17
ENDBRANCH   1  15
BRANCH   8  25
HETATM   25  O2  UNL     1      13.739  -2.916 -15.803  1.00  0.00    -0.396 OA
ATOM     26  H2  UNL     1      13.985  -2.015 -15.636  1.00  0.00     0.210 HD
ENDBRANCH   8  25
TORSDOF 5
ENDMDL