MODEL 2
REMARK VINA RESULT: -8.919103661      3.607      6.556
REMARK  4 active torsions:
REMARK  status: ('A' for Active; 'I' for Inactive)
REMARK    1  A    between atoms: C2_2  and  C3_3
REMARK    2  A    between atoms: C4_4  and  N1_5
REMARK    3  A    between atoms: N1_5  and  C5_7
REMARK    4  A    between atoms: N2_19  and  C16_20
ROOT
HETATM    1  C3  UNL     1      13.695  -2.162 -20.805  1.00  0.00     0.007 C
HETATM    2  C4  UNL     1      12.221  -2.105 -21.164  1.00  0.00     0.131 C
HETATM    3  C12 UNL     1      11.891  -2.736 -22.486  1.00  0.00     0.011 C
HETATM    4  C13 UNL     1      12.053  -1.834 -23.678  1.00  0.00     0.012 C
HETATM    5  C14 UNL     1      12.626  -4.007 -22.746  1.00  0.00     0.026 C
HETATM    6  C15 UNL     1      13.542  -4.369 -21.621  1.00  0.00     0.123 C
HETATM    7  N2  UNL     1      14.372  -3.312 -21.137  1.00  0.00    -0.381 N
ENDROOT
BRANCH   2   8
HETATM    8  N1  UNL     1      11.343  -2.639 -20.161  1.00  0.00    -0.379 N
ATOM      9  H1  UNL     1      10.365  -2.367 -20.255  1.00  0.00     0.160 HD
BRANCH   8  10
HETATM   10  C5  UNL     1      11.623  -3.471 -19.080  1.00  0.00     0.034 A
HETATM   11  C6  UNL     1      12.395  -3.044 -18.036  1.00  0.00     0.033 A
HETATM   12  C7  UNL     1      12.621  -3.885 -16.942  1.00  0.00     0.044 A
HETATM   13  C8  UNL     1      12.080  -5.149 -16.878  1.00  0.00     0.117 A
HETATM   14  F1  UNL     1      12.291  -5.979 -15.818  1.00  0.00    -0.206 F
HETATM   15  C9  UNL     1      11.300  -5.578 -17.929  1.00  0.00     0.051 A
HETATM   16  C10 UNL     1      11.087  -4.732 -19.007  1.00  0.00    -0.033 A
HETATM   17  C11 UNL     1      10.245  -5.236 -20.121  1.00  0.00     0.050 C
ENDBRANCH   8  10
ENDBRANCH   2   8
BRANCH   1  18
HETATM   18  C2  UNL     1      14.326  -0.827 -20.769  1.00  0.00     0.050 C
HETATM   19  C1  UNL     1      13.504   0.394 -20.834  1.00  0.00     0.011 C
ENDBRANCH   1  18
BRANCH   7  20
HETATM   20  C16 UNL     1      15.722  -3.435 -21.410  1.00  0.00     0.084 C
HETATM   21  C17 UNL     1      16.179  -4.665 -22.115  1.00  0.00     0.025 C
HETATM   22  C18 UNL     1      17.310  -5.423 -21.478  1.00  0.00     0.002 C
HETATM   23  C19 UNL     1      18.617  -4.743 -21.752  1.00  0.00     0.000 C
HETATM   24  C20 UNL     1      19.217  -4.276 -20.442  1.00  0.00     0.000 C
HETATM   25  C21 UNL     1      19.068  -2.805 -20.200  1.00  0.00     0.000 C
HETATM   26  C22 UNL     1      17.778  -2.253 -20.762  1.00  0.00     0.002 C
HETATM   27  C23 UNL     1      16.627  -3.070 -20.243  1.00  0.00     0.025 C
ENDBRANCH   7  20
TORSDOF 4
ENDMDL