MODEL 2
REMARK VINA RESULT: -8.435824019      1.256      1.505
REMARK  5 active torsions:
REMARK  status: ('A' for Active; 'I' for Inactive)
REMARK    1  A    between atoms: C16_16  and  O1_17
REMARK    2  A    between atoms: C16_16  and  C17_19
REMARK    3  A    between atoms: C17_19  and  C18_20
REMARK    4  A    between atoms: C18_20  and  C19_21
REMARK    5  A    between atoms: C19_21  and  C20_22
ROOT
HETATM    1  C1  UNL     1      12.272  -5.477 -16.254  1.00  0.00     0.014 C
HETATM    2  C2  UNL     1      12.547  -5.100 -17.731  1.00  0.00     0.007 C
HETATM    3  C3  UNL     1      11.430  -5.616 -18.523  1.00  0.00    -0.023 C
HETATM    4  C4  UNL     1      11.147  -5.300 -19.817  1.00  0.00    -0.007 C
HETATM    5  C5  UNL     1      12.091  -4.364 -20.384  1.00  0.00    -0.021 C
HETATM    6  C6  UNL     1      12.024  -3.670 -21.667  1.00  0.00     0.024 C
HETATM    7  C7  UNL     1      10.876  -2.799 -21.854  1.00  0.00    -0.040 C
HETATM    8  C8  UNL     1       9.755  -3.667 -22.474  1.00  0.00     0.015 C
HETATM    9  C9  UNL     1      10.242  -2.268 -20.576  1.00  0.00     0.015 C
HETATM   10  C10 UNL     1      11.036  -1.624 -22.767  1.00  0.00     0.009 C
HETATM   11  C11 UNL     1      12.179  -1.836 -23.683  1.00  0.00     0.002 C
HETATM   12  C12 UNL     1      13.408  -2.380 -23.185  1.00  0.00     0.010 C
HETATM   13  C13 UNL     1      13.427  -3.016 -21.780  1.00  0.00    -0.033 C
HETATM   14  C14 UNL     1      13.635  -1.865 -20.869  1.00  0.00     0.016 C
HETATM   15  C15 UNL     1      14.533  -3.994 -21.748  1.00  0.00     0.051 C
HETATM   16  C16 UNL     1      15.514  -4.202 -20.697  1.00  0.00     0.076 C
HETATM   17  C21 UNL     1      15.441  -3.726 -19.341  1.00  0.00     0.007 C
HETATM   18  C22 UNL     1      14.811  -4.203 -18.277  1.00  0.00    -0.027 C
HETATM   19  C23 UNL     1      13.951  -5.404 -18.130  1.00  0.00     0.035 C
ENDROOT
BRANCH  16  20
HETATM   20  O1  UNL     1      15.725  -5.615 -20.610  1.00  0.00    -0.386 OA
ATOM     21  H1  UNL     1      14.901  -5.996 -20.332  1.00  0.00     0.211 HD
ENDBRANCH  16  20
BRANCH  16  22
HETATM   22  C17 UNL     1      16.932  -3.801 -21.183  1.00  0.00     0.042 C
BRANCH  22  23
HETATM   23  C18 UNL     1      17.975  -4.802 -20.796  1.00  0.00     0.004 C
BRANCH  23  24
HETATM   24  C19 UNL     1      19.267  -4.074 -20.469  1.00  0.00     0.015 C
BRANCH  24  25
HETATM   25  C20 UNL     1      19.054  -2.594 -20.265  1.00  0.00     0.114 C
HETATM   26 CL1  UNL     1      19.122  -2.170 -18.541  1.00  0.00    -0.130 Cl
ENDBRANCH  24  25
ENDBRANCH  23  24
ENDBRANCH  22  23
ENDBRANCH  16  22
TORSDOF 5
ENDMDL