MODEL 5
REMARK VINA RESULT: -8.286688098      1.759      3.171
REMARK  5 active torsions:
REMARK  status: ('A' for Active; 'I' for Inactive)
REMARK    1  A    between atoms: C6_8  and  C7_9
REMARK    2  A    between atoms: C7_9  and  C8_10
REMARK    3  A    between atoms: C18_20  and  C20_22
REMARK    4  A    between atoms: C20_22  and  O1_23
REMARK    5  A    between atoms: C20_22  and  O2_25
ROOT
HETATM    1  C8  UNL     1       4.101  -7.537 -18.142  1.00  0.00     0.123 C
HETATM    2  C9  UNL     1       4.340  -8.540 -19.210  1.00  0.00     0.032 C
HETATM    3  C10 UNL     1       5.495  -9.429 -18.707  1.00  0.00     0.011 C
HETATM    4  C11 UNL     1       4.908 -10.232 -17.569  1.00  0.00     0.033 C
HETATM    5  C12 UNL     1       4.075  -9.389 -16.690  1.00  0.00     0.062 C
HETATM    6  C13 UNL     1       2.591  -9.737 -16.724  1.00  0.00     0.046 C
HETATM    7  C14 UNL     1       4.431  -9.565 -15.199  1.00  0.00     0.038 C
HETATM    8  C15 UNL     1       5.893  -9.312 -15.141  1.00  0.00     0.008 C
HETATM    9  C16 UNL     1       6.555 -10.588 -15.701  1.00  0.00    -0.005 C
HETATM   10  C17 UNL     1       8.002 -10.238 -15.760  1.00  0.00     0.011 C
HETATM   11  C18 UNL     1       5.898 -11.148 -16.884  1.00  0.00     0.015 C
HETATM   12  C19 UNL     1       5.031 -12.337 -16.392  1.00  0.00     0.021 C
HETATM   13  O3  UNL     1       4.198  -8.027 -16.875  1.00  0.00    -0.375 OA
ENDROOT
BRANCH   1  14
HETATM   14  C7  UNL     1       2.866  -6.705 -18.327  1.00  0.00     0.043 C
BRANCH  14  15
HETATM   15  C6  UNL     1       2.282  -6.685 -19.685  1.00  0.00     0.068 C
HETATM   16  C5  UNL     1       2.851  -5.729 -20.666  1.00  0.00     0.248 C
HETATM   17  C4  UNL     1       2.963  -4.319 -20.145  1.00  0.00     0.084 C
HETATM   18  F1  UNL     1       4.023  -6.077 -21.261  1.00  0.00    -0.206 F
HETATM   19  F2  UNL     1       1.912  -5.647 -21.713  1.00  0.00    -0.206 F
HETATM   20  C3  UNL     1       1.783  -3.853 -19.385  1.00  0.00     0.039 C
HETATM   21  C2  UNL     1       0.840  -4.909 -18.945  1.00  0.00    -0.085 C
HETATM   22  C1  UNL     1      -0.008  -4.585 -17.988  1.00  0.00     0.014 C
HETATM   23  C22 UNL     1       0.808  -6.279 -19.522  1.00  0.00     0.019 C
HETATM   24  C23 UNL     1       0.073  -7.235 -18.624  1.00  0.00     0.015 C
ENDBRANCH  14  15
ENDBRANCH   1  14
BRANCH  11  25
HETATM   25  C20 UNL     1       6.785 -11.799 -17.893  1.00  0.00     0.265 C
BRANCH  25  26
HETATM   26  O1  UNL     1       6.804 -13.233 -17.570  1.00  0.00    -0.370 OA
ATOM     27  H1  UNL     1       6.904 -13.296 -16.627  1.00  0.00     0.212 HD
ENDBRANCH  25  26
BRANCH  25  28
HETATM   28  O2  UNL     1       6.542 -11.651 -19.205  1.00  0.00    -0.365 OA
HETATM   29  C21 UNL     1       7.675 -11.463 -19.937  1.00  0.00     0.204 C
ENDBRANCH  25  28
ENDBRANCH  11  25
TORSDOF 5
ENDMDL