MODEL 4
REMARK VINA RESULT: -8.536722069      4.172      7.675
REMARK  4 active torsions:
REMARK  status: ('A' for Active; 'I' for Inactive)
REMARK    1  A    between atoms: C2_2  and  C3_3
REMARK    2  A    between atoms: C3_3  and  N1_6
REMARK    3  A    between atoms: C6_9  and  C7_10
REMARK    4  A    between atoms: C11_14  and  C12_15
ROOT
HETATM    1  N1  UNL     1       4.712  -9.510 -15.034  1.00  0.00    -0.247 N
HETATM    2  N2  UNL     1       4.149 -10.583 -15.542  1.00  0.00    -0.297 N
ATOM      3  H2  UNL     1       3.586 -11.247 -15.010  1.00  0.00     0.187 HD
HETATM    4  C6  UNL     1       4.417 -10.691 -16.873  1.00  0.00     0.050 A
HETATM    5  C11 UNL     1       5.195  -9.618 -17.216  1.00  0.00     0.067 A
HETATM    6  C22 UNL     1       5.359  -8.896 -16.029  1.00  0.00     0.275 A
HETATM    7  O2  UNL     1       6.024  -7.828 -15.938  1.00  0.00    -0.266 OA
ENDROOT
BRANCH   5   8
HETATM    8  C12 UNL     1       5.783  -9.271 -18.515  1.00  0.00    -0.009 C
HETATM    9  C13 UNL     1       5.061  -8.532 -19.326  1.00  0.00    -0.039 C
HETATM   10  C14 UNL     1       3.699  -8.043 -18.946  1.00  0.00     0.050 C
HETATM   11  C15 UNL     1       5.471  -8.275 -20.689  1.00  0.00     0.007 A
HETATM   12  C16 UNL     1       4.750  -7.483 -21.552  1.00  0.00     0.060 A
HETATM   13  C20 UNL     1       6.669  -8.871 -21.103  1.00  0.00     0.083 A
HETATM   14  C17 UNL     1       5.198  -7.270 -22.830  1.00  0.00     0.155 A
HETATM   15  F1  UNL     1       4.504  -6.486 -23.714  1.00  0.00    -0.203 F
HETATM   16  C18 UNL     1       6.379  -7.852 -23.258  1.00  0.00     0.157 A
HETATM   17  F2  UNL     1       6.795  -7.617 -24.534  1.00  0.00    -0.203 F
HETATM   18  C19 UNL     1       7.100  -8.644 -22.390  1.00  0.00     0.083 A
HETATM   19  O1  UNL     1       7.378  -9.660 -20.224  1.00  0.00    -0.346 OA
HETATM   20  C21 UNL     1       7.189  -9.542 -18.849  1.00  0.00     0.216 C
ENDBRANCH   5   8
BRANCH   4  21
HETATM   21  C7  UNL     1       3.890 -11.806 -17.722  1.00  0.00    -0.006 C
HETATM   22  C8  UNL     1       3.472 -12.948 -16.767  1.00  0.00     0.021 C
HETATM   23  C9  UNL     1       2.676 -11.447 -18.507  1.00  0.00     0.021 C
HETATM   24  C10 UNL     1       4.973 -12.453 -18.575  1.00  0.00     0.021 C
ENDBRANCH   4  21
BRANCH   1  25
HETATM   25  C3  UNL     1       4.639  -9.076 -13.624  1.00  0.00     0.049 C
HETATM   26  C4  UNL     1       3.729  -7.882 -13.548  1.00  0.00     0.040 C
HETATM   27  C5  UNL     1       4.120 -10.217 -12.796  1.00  0.00     0.040 C
BRANCH  25  28
HETATM   28  C2  UNL     1       6.011  -8.646 -13.143  1.00  0.00     0.028 C
HETATM   29  C1  UNL     1       6.019  -8.320 -11.692  1.00  0.00     0.007 C
ENDBRANCH  25  28
ENDBRANCH   1  25
TORSDOF 4
ENDMDL