MODEL 3
REMARK VINA RESULT: -8.545322248      4.308      6.821
REMARK  3 active torsions:
REMARK  status: ('A' for Active; 'I' for Inactive)
REMARK    1  A    between atoms: C6_11  and  C7_12
REMARK    2  A    between atoms: C7_12  and  N3_13
REMARK    3  A    between atoms: N3_13  and  C8_16
ROOT
HETATM    1  C1  UNL     1       3.091 -12.616 -13.583  1.00  0.00     0.069 C
HETATM    2  C2  UNL     1       3.764 -11.711 -14.528  1.00  0.00     0.024 A
HETATM    3  N1  UNL     1       4.363 -10.615 -14.099  1.00  0.00    -0.355 N
ATOM      4  H1  UNL     1       4.355 -10.400 -13.102  1.00  0.00     0.166 HD
HETATM    5  C3  UNL     1       4.980  -9.778 -14.944  1.00  0.00     0.083 A
HETATM    6  C4  UNL     1       5.599  -8.653 -14.441  1.00  0.00     0.131 A
HETATM    7 CL1  UNL     1       5.547  -8.350 -12.707  1.00  0.00    -0.062 Cl
HETATM    8  N2  UNL     1       6.226  -7.813 -15.252  1.00  0.00    -0.354 N
ATOM      9  H2  UNL     1       6.682  -6.982 -14.874  1.00  0.00     0.166 HD
HETATM   10  C5  UNL     1       6.257  -8.053 -16.557  1.00  0.00     0.099 A
HETATM   11  C6  UNL     1       5.648  -9.182 -17.173  1.00  0.00    -0.004 A
HETATM   12  C16 UNL     1       5.007 -10.045 -16.338  1.00  0.00     0.010 A
HETATM   13  C17 UNL     1       4.397 -11.174 -16.831  1.00  0.00    -0.029 A
HETATM   14  C18 UNL     1       4.381 -11.517 -18.231  1.00  0.00     0.050 C
HETATM   15  C19 UNL     1       3.771 -11.999 -15.864  1.00  0.00     0.040 A
HETATM   16 BR1  UNL     1       2.911 -13.588 -16.525  1.00  0.00    -0.048 Br
ENDROOT
BRANCH  11  17
HETATM   17  C7  UNL     1       5.728  -9.325 -18.603  1.00  0.00     0.274 C
BRANCH  17  18
HETATM   18  N3  UNL     1       5.241  -8.089 -19.300  1.00  0.00    -0.063 N
ATOM     19  H32 UNL     1       4.256  -7.907 -19.110  1.00  0.00     0.278 HD
ATOM     20  H31 UNL     1       5.632  -7.240 -18.889  1.00  0.00     0.278 HD
BRANCH  18  21
HETATM   21  C8  UNL     1       5.514  -8.179 -20.724  1.00  0.00     0.123 C
HETATM   22  C9  UNL     1       5.193  -9.541 -21.244  1.00  0.00     0.046 C
HETATM   23  C10 UNL     1       6.878  -7.694 -21.077  1.00  0.00     0.038 C
HETATM   24  C11 UNL     1       7.121  -7.675 -22.544  1.00  0.00     0.003 C
HETATM   25  C12 UNL     1       5.904  -7.618 -23.398  1.00  0.00     0.004 C
HETATM   26  C13 UNL     1       4.814  -6.839 -22.748  1.00  0.00    -0.016 C
HETATM   27  C14 UNL     1       3.514  -6.999 -23.546  1.00  0.00     0.010 C
HETATM   28  C15 UNL     1       4.524  -7.204 -21.341  1.00  0.00     0.042 C
ENDBRANCH  18  21
ENDBRANCH  17  18
ENDBRANCH  11  17
TORSDOF 3
ENDMDL