MODEL 5
REMARK VINA RESULT: -9.607193009      3.753      5.591
REMARK  5 active torsions:
REMARK  status: ('A' for Active; 'I' for Inactive)
REMARK    1  A    between atoms: C5_5  and  C6_6
REMARK    2  A    between atoms: C6_6  and  N1_7
REMARK    3  A    between atoms: C6_6  and  C16_23
REMARK    4  A    between atoms: N1_7  and  C7_9
REMARK    5  A    between atoms: C8_12  and  C9_13
ROOT
HETATM    1  N1  UNL     1       5.137  -9.983 -16.892  1.00  0.00    -0.356 N
ATOM      2  H1  UNL     1       5.326 -10.984 -16.937  1.00  0.00     0.162 HD
ENDROOT
BRANCH   1   3
HETATM    3  C6  UNL     1       4.257  -9.518 -15.891  1.00  0.00     0.174 C
BRANCH   3   4
HETATM    4  C5  UNL     1       3.113  -8.842 -16.557  1.00  0.00    -0.029 A
HETATM    5  C4  UNL     1       2.978  -7.478 -16.446  1.00  0.00     0.010 A
HETATM    6  C3  UNL     1       1.927  -6.796 -17.049  1.00  0.00     0.007 A
HETATM    7  C2  UNL     1       1.010  -7.514 -17.768  1.00  0.00    -0.062 A
HETATM    8  C1  UNL     1      -0.141  -6.810 -18.435  1.00  0.00     0.048 C
HETATM    9  C22 UNL     1       1.111  -8.876 -17.900  1.00  0.00     0.007 A
HETATM   10  C21 UNL     1       2.176  -9.528 -17.284  1.00  0.00     0.010 A
ENDBRANCH   3   4
BRANCH   3  11
HETATM   11  C16 UNL     1       3.770 -10.745 -15.153  1.00  0.00     0.080 A
HETATM   12  C17 UNL     1       4.079 -10.959 -13.836  1.00  0.00     0.038 A
HETATM   13  C18 UNL     1       3.466 -12.171 -13.498  1.00  0.00     0.035 A
HETATM   14  C19 UNL     1       2.835 -12.591 -14.650  1.00  0.00     0.049 A
HETATM   15  C20 UNL     1       2.051 -13.861 -14.728  1.00  0.00     0.076 C
HETATM   16  O1  UNL     1       3.038 -11.714 -15.615  1.00  0.00    -0.317 OA
ENDBRANCH   3  11
ENDBRANCH   1   3
BRANCH   1  17
HETATM   17  C7  UNL     1       5.725  -9.205 -17.765  1.00  0.00     0.145 A
HETATM   18  N2  UNL     1       5.345  -8.931 -19.007  1.00  0.00    -0.336 N
HETATM   19  C8  UNL     1       6.076  -8.115 -19.741  1.00  0.00     0.054 A
ATOM     20  H2  UNL     1       4.496  -9.348 -19.390  1.00  0.00     0.168 HD
HETATM   21  C15 UNL     1       7.196  -7.596 -19.162  1.00  0.00     0.083 A
HETATM   22  S1  UNL     1       7.149  -8.305 -17.587  1.00  0.00    -0.064 SA
BRANCH  19  23
HETATM   23  C9  UNL     1       5.681  -7.733 -21.144  1.00  0.00     0.033 A
HETATM   24  C10 UNL     1       4.456  -7.135 -21.380  1.00  0.00     0.017 A
HETATM   25  C11 UNL     1       3.985  -6.779 -22.618  1.00  0.00     0.004 A
HETATM   26  C12 UNL     1       4.810  -7.046 -23.688  1.00  0.00     0.045 A
HETATM   27  C13 UNL     1       6.026  -7.634 -23.514  1.00  0.00     0.155 A
HETATM   28  F1  UNL     1       6.842  -7.900 -24.546  1.00  0.00    -0.203 F
HETATM   29  C14 UNL     1       6.465  -7.980 -22.222  1.00  0.00     0.167 A
HETATM   30  F2  UNL     1       7.669  -8.578 -22.116  1.00  0.00    -0.202 F
ENDBRANCH  19  23
ENDBRANCH   1  17
TORSDOF 5
ENDMDL