MODEL 2
REMARK VINA RESULT: -9.755050831      0.521      1.017
REMARK  4 active torsions:
REMARK  status: ('A' for Active; 'I' for Inactive)
REMARK    1  A    between atoms: C4_6  and  N2_7
REMARK    2  A    between atoms: N2_7  and  C5_9
REMARK    3  A    between atoms: N3_22  and  C16_23
REMARK    4  A    between atoms: C16_23  and  C17_24
ROOT
HETATM    1  C1  UNL     1       7.267 -10.080 -20.588  1.00  0.00     0.052 C
HETATM    2  C2  UNL     1       6.149 -10.708 -19.904  1.00  0.00    -0.019 A
HETATM    3  C3  UNL     1       6.204 -12.090 -19.683  1.00  0.00     0.099 A
HETATM    4  N1  UNL     1       5.239 -12.712 -18.996  1.00  0.00    -0.351 N
ATOM      5  H1  UNL     1       5.301 -13.719 -18.849  1.00  0.00     0.166 HD
HETATM    6  C4  UNL     1       4.190 -12.039 -18.496  1.00  0.00     0.119 A
HETATM    7  C9  UNL     1       4.127 -10.679 -18.708  1.00  0.00     0.048 A
HETATM    8  C10 UNL     1       3.210  -9.756 -18.300  1.00  0.00     0.007 A
HETATM    9  C11 UNL     1       2.046  -9.880 -17.562  1.00  0.00     0.018 A
HETATM   10  C12 UNL     1       1.273  -8.769 -17.267  1.00  0.00     0.043 A
HETATM   11  C13 UNL     1       1.690  -7.538 -17.725  1.00  0.00     0.118 A
HETATM   12  F1  UNL     1       0.966  -6.408 -17.464  1.00  0.00    -0.206 F
HETATM   13  C14 UNL     1       2.860  -7.449 -18.462  1.00  0.00     0.072 A
HETATM   14  C15 UNL     1       3.648  -8.546 -18.769  1.00  0.00     0.049 A
HETATM   15  N3  UNL     1       4.817  -8.681 -19.466  1.00  0.00    -0.341 N
HETATM   16  C23 UNL     1       5.101  -9.978 -19.418  1.00  0.00     0.057 A
ENDROOT
BRANCH  15  17
HETATM   17  C16 UNL     1       5.497  -7.568 -20.051  1.00  0.00     0.168 C
BRANCH  17  18
HETATM   18  C17 UNL     1       5.018  -7.242 -21.451  1.00  0.00    -0.040 A
HETATM   19  C18 UNL     1       3.824  -6.639 -21.728  1.00  0.00     0.012 A
HETATM   20  C19 UNL     1       3.450  -6.400 -23.020  1.00  0.00     0.043 A
HETATM   21  C20 UNL     1       4.238  -6.744 -24.094  1.00  0.00     0.116 A
HETATM   22  F2  UNL     1       3.870  -6.508 -25.378  1.00  0.00    -0.206 F
HETATM   23  C21 UNL     1       5.446  -7.353 -23.842  1.00  0.00     0.043 A
HETATM   24  C22 UNL     1       5.812  -7.589 -22.545  1.00  0.00     0.012 A
ENDBRANCH  17  18
ENDBRANCH  15  17
BRANCH   6  25
HETATM   25  N2  UNL     1       3.311 -12.696 -17.852  1.00  0.00    -0.341 N
ATOM     26  H2  UNL     1       2.539 -13.130 -18.356  1.00  0.00     0.167 HD
BRANCH  25  27
HETATM   27  C5  UNL     1       3.394 -12.838 -16.403  1.00  0.00     0.040 A
HETATM   28  C6  UNL     1       2.537 -13.566 -15.674  1.00  0.00     0.037 A
HETATM   29  C7  UNL     1       2.735 -13.610 -14.318  1.00  0.00     0.052 A
HETATM   30  S1  UNL     1       4.113 -12.632 -14.107  1.00  0.00    -0.111 SA
HETATM   31  C8  UNL     1       4.400 -12.196 -15.730  1.00  0.00     0.079 A
ENDBRANCH  25  27
ENDBRANCH   6  25
TORSDOF 4
ENDMDL