MODEL 2
REMARK VINA RESULT: -8.950640662      2.745      4.491
REMARK  4 active torsions:
REMARK  status: ('A' for Active; 'I' for Inactive)
REMARK    1  A    between atoms: C8_9  and  C9_10
REMARK    2  A    between atoms: C9_10  and  O2_12
REMARK    3  A    between atoms: O2_12  and  C10_13
REMARK    4  A    between atoms: C10_13  and  C12_15
ROOT
HETATM    1  C1  UNL     1       5.215 -12.534 -19.096  1.00  0.00     0.015 C
HETATM    2  C2  UNL     1       5.510 -11.366 -19.161  1.00  0.00    -0.073 C
HETATM    3  C3  UNL     1       5.873  -9.925 -19.217  1.00  0.00     0.175 C
HETATM    4  F1  UNL     1       5.049  -9.410 -20.208  1.00  0.00    -0.228 F
HETATM    5  C4  UNL     1       7.318  -9.818 -19.583  1.00  0.00     0.039 C
HETATM    6  C5  UNL     1       7.417  -8.625 -20.546  1.00  0.00     0.009 C
HETATM    7  C6  UNL     1       7.397  -7.361 -19.761  1.00  0.00     0.002 C
HETATM    8  C7  UNL     1       6.203  -7.113 -18.929  1.00  0.00     0.020 C
HETATM    9  C8  UNL     1       6.028  -7.934 -17.690  1.00  0.00     0.058 C
HETATM   10  C17 UNL     1       7.318  -8.000 -16.940  1.00  0.00     0.031 C
HETATM   11  C18 UNL     1       7.792  -9.407 -17.137  1.00  0.00    -0.025 C
HETATM   12  C19 UNL     1       8.776  -9.774 -16.063  1.00  0.00     0.016 C
HETATM   13  C20 UNL     1       8.293  -9.749 -18.489  1.00  0.00     0.019 C
HETATM   14  C21 UNL     1       6.492 -10.174 -16.924  1.00  0.00     0.100 C
HETATM   15 CL1  UNL     1       5.977 -10.238 -15.275  1.00  0.00    -0.124 Cl
HETATM   16  C22 UNL     1       5.591  -9.340 -17.852  1.00  0.00     0.076 C
ENDROOT
BRANCH   9  17
HETATM   17  C9  UNL     1       5.064  -7.141 -16.840  1.00  0.00     0.269 C
HETATM   18  O1  UNL     1       5.399  -6.070 -16.286  1.00  0.00    -0.264 OA
BRANCH  17  19
HETATM   19  O2  UNL     1       3.762  -7.558 -16.632  1.00  0.00    -0.309 OA
BRANCH  19  20
HETATM   20  C10 UNL     1       2.848  -7.911 -17.660  1.00  0.00     0.179 C
HETATM   21  C11 UNL     1       2.143  -9.201 -17.179  1.00  0.00     0.047 C
BRANCH  20  22
HETATM   22  C12 UNL     1       1.854  -6.866 -17.918  1.00  0.00     0.062 A
HETATM   23  N1  UNL     1       0.657  -6.634 -17.351  1.00  0.00    -0.302 N
HETATM   24  N2  UNL     1       0.081  -5.569 -17.879  1.00  0.00    -0.304 N
ATOM     25  H1  UNL     1       0.248  -7.205 -16.611  1.00  0.00     0.186 HD
HETATM   26  C13 UNL     1       0.874  -5.037 -18.830  1.00  0.00     0.030 A
ATOM     27  H2  UNL     1      -0.831  -5.202 -17.607  1.00  0.00     0.186 HD
HETATM   28  C14 UNL     1       0.606  -3.830 -19.673  1.00  0.00     0.070 C
HETATM   29  C15 UNL     1       2.001  -5.865 -18.851  1.00  0.00    -0.012 A
HETATM   30  C16 UNL     1       3.160  -5.673 -19.756  1.00  0.00     0.052 C
ENDBRANCH  20  22
ENDBRANCH  19  20
ENDBRANCH  17  19
ENDBRANCH   9  17
TORSDOF 4
ENDMDL