MODEL 3
REMARK VINA RESULT: -8.511517974      1.133      1.251
REMARK  5 active torsions:
REMARK  status: ('A' for Active; 'I' for Inactive)
REMARK    1  A    between atoms: C3_3  and  O1_4
REMARK    2  A    between atoms: C8_11  and  C9_12
REMARK    3  A    between atoms: C15_19  and  O2_20
REMARK    4  A    between atoms: O2_20  and  C16_21
REMARK    5  A    between atoms: C16_21  and  C17_23
ROOT
HETATM    1  C1  UNL     1       2.667 -10.529 -17.076  1.00  0.00     0.019 C
HETATM    2  C2  UNL     1       3.802  -9.893 -16.797  1.00  0.00    -0.030 C
HETATM    3  C3  UNL     1       3.677  -8.572 -16.117  1.00  0.00     0.150 C
HETATM    4  C4  UNL     1       2.768  -7.622 -16.805  1.00  0.00     0.056 C
HETATM    5  C5  UNL     1       2.846  -7.573 -18.291  1.00  0.00     0.085 C
HETATM    6 CL1  UNL     1       1.218  -7.018 -18.846  1.00  0.00    -0.125 Cl
HETATM    7  C6  UNL     1       3.834  -6.522 -18.749  1.00  0.00     0.025 C
HETATM    8  C7  UNL     1       4.178  -6.587 -20.170  1.00  0.00     0.040 C
HETATM    9  C8  UNL     1       5.269  -7.442 -20.662  1.00  0.00    -0.062 C
HETATM   10  C12 UNL     1       6.025  -8.306 -20.078  1.00  0.00    -0.018 C
HETATM   11  C13 UNL     1       6.141  -8.813 -18.705  1.00  0.00     0.051 C
HETATM   12  C14 UNL     1       5.543 -10.229 -18.560  1.00  0.00     0.119 C
HETATM   13 CL2  UNL     1       6.699 -11.459 -19.100  1.00  0.00    -0.122 Cl
HETATM   14  C15 UNL     1       5.124 -10.485 -17.143  1.00  0.00     0.181 C
ENDROOT
BRANCH  14  15
HETATM   15  O2  UNL     1       5.052 -11.908 -16.974  1.00  0.00    -0.310 OA
BRANCH  15  16
HETATM   16  C16 UNL     1       5.584 -12.525 -15.852  1.00  0.00     0.263 C
HETATM   17  O3  UNL     1       6.795 -12.463 -15.632  1.00  0.00    -0.265 OA
BRANCH  16  18
HETATM   18  C17 UNL     1       4.700 -13.256 -14.918  1.00  0.00     0.085 C
HETATM   19  C18 UNL     1       4.037 -12.271 -13.984  1.00  0.00     0.014 C
HETATM   20  C19 UNL     1       2.725 -12.938 -13.639  1.00  0.00     0.001 C
HETATM   21  C20 UNL     1       2.286 -13.454 -15.004  1.00  0.00     0.001 C
HETATM   22  C21 UNL     1       3.566 -13.964 -15.630  1.00  0.00     0.014 C
ENDBRANCH  16  18
ENDBRANCH  15  16
ENDBRANCH  14  15
BRANCH   3  23
HETATM   23  O1  UNL     1       3.083  -8.877 -14.865  1.00  0.00    -0.391 OA
ATOM     24  H1  UNL     1       2.564  -9.654 -15.034  1.00  0.00     0.210 HD
ENDBRANCH   3  23
BRANCH   9  25
HETATM   25  C9  UNL     1       5.492  -7.216 -22.134  1.00  0.00     0.002 C
HETATM   26  C10 UNL     1       6.397  -7.857 -22.825  1.00  0.00    -0.030 C
HETATM   27  C11 UNL     1       6.500  -7.522 -24.286  1.00  0.00     0.036 C
ENDBRANCH   9  25
TORSDOF 5
ENDMDL