MODEL 3
REMARK VINA RESULT: -9.492919197      1.748      2.165
REMARK  7 active torsions:
REMARK  status: ('A' for Active; 'I' for Inactive)
REMARK    1  A    between atoms: C2_2  and  C4_4
REMARK    2  A    between atoms: C4_4  and  C5_5
REMARK    3  A    between atoms: C4_4  and  C18_23
REMARK    4  A    between atoms: C5_5  and  C6_6
REMARK    5  A    between atoms: C7_7  and  C8_8
REMARK    6  A    between atoms: C14_16  and  C15_17
REMARK    7  A    between atoms: C19_28  and  C20_29
ROOT
HETATM    1  C5  UNL     1       3.299  -7.060 -15.332  1.00  0.00     0.107 C
ENDROOT
BRANCH   1   2
HETATM    2  C4  UNL     1       3.408  -8.451 -14.827  1.00  0.00     0.069 C
BRANCH   2   3
HETATM    3  C2  UNL     1       3.839  -9.489 -15.818  1.00  0.00    -0.011 C
HETATM    4  C1  UNL     1       4.569 -10.648 -15.193  1.00  0.00     0.010 C
HETATM    5  C3  UNL     1       2.595  -9.974 -16.550  1.00  0.00     0.010 C
ENDBRANCH   2   3
BRANCH   2   6
HETATM    6  C18 UNL     1       4.449  -8.400 -13.722  1.00  0.00     0.102 A
HETATM    7  N2  UNL     1       5.705  -7.914 -13.912  1.00  0.00    -0.287 N
HETATM    8  N3  UNL     1       6.347  -7.985 -12.780  1.00  0.00    -0.287 N
ATOM      9  H2  UNL     1       6.080  -7.555 -14.791  1.00  0.00     0.188 HD
HETATM   10  C19 UNL     1       5.536  -8.517 -11.826  1.00  0.00     0.105 A
ATOM     11  H3  UNL     1       7.312  -7.687 -12.631  1.00  0.00     0.188 HD
HETATM   12  N4  UNL     1       4.354  -8.765 -12.459  1.00  0.00    -0.333 N
ATOM     13  H4  UNL     1       3.526  -9.169 -12.023  1.00  0.00     0.168 HD
BRANCH  10  14
HETATM   14  C20 UNL     1       5.852  -8.769 -10.421  1.00  0.00     0.009 C
HETATM   15  C21 UNL     1       5.157  -7.745  -9.508  1.00  0.00     0.023 C
HETATM   16  C22 UNL     1       5.353 -10.180 -10.071  1.00  0.00     0.023 C
HETATM   17  C23 UNL     1       7.327  -8.709 -10.095  1.00  0.00     0.023 C
ENDBRANCH  10  14
ENDBRANCH   2   6
ENDBRANCH   1   2
BRANCH   1  18
HETATM   18  C6  UNL     1       3.465  -6.866 -16.729  1.00  0.00    -0.100 C
HETATM   19  C7  UNL     1       3.584  -6.800 -17.922  1.00  0.00    -0.067 C
BRANCH  19  20
HETATM   20  C8  UNL     1       3.729  -6.827 -19.366  1.00  0.00     0.018 A
HETATM   21  C9  UNL     1       2.879  -6.252 -20.256  1.00  0.00     0.023 A
HETATM   22  C10 UNL     1       3.162  -6.270 -21.631  1.00  0.00     0.032 A
HETATM   23  C11 UNL     1       4.301  -6.864 -22.131  1.00  0.00     0.043 A
HETATM   24  N1  UNL     1       4.585  -6.850 -23.472  1.00  0.00    -0.365 N
HETATM   25  C16 UNL     1       5.169  -7.453 -21.243  1.00  0.00     0.007 A
HETATM   26  C12 UNL     1       5.708  -7.398 -23.947  1.00  0.00     0.089 A
ATOM     27  H1  UNL     1       3.927  -6.414 -24.118  1.00  0.00     0.165 HD
HETATM   28  C13 UNL     1       6.619  -7.999 -23.123  1.00  0.00     0.034 A
HETATM   29  C14 UNL     1       6.331  -8.022 -21.739  1.00  0.00     0.061 A
HETATM   30  C17 UNL     1       4.882  -7.433 -19.894  1.00  0.00     0.035 A
BRANCH  29  31
HETATM   31  C15 UNL     1       7.274  -8.655 -20.812  1.00  0.00     0.418 C
HETATM   32  F1  UNL     1       8.203  -9.371 -21.594  1.00  0.00    -0.166 F
HETATM   33  F2  UNL     1       6.666  -9.640 -20.039  1.00  0.00    -0.166 F
HETATM   34  F3  UNL     1       8.045  -7.782 -20.077  1.00  0.00    -0.166 F
ENDBRANCH  29  31
ENDBRANCH  19  20
ENDBRANCH   1  18
TORSDOF 7
ENDMDL