MODEL 1
REMARK VINA RESULT: -9.500465566      0.000      0.000
REMARK  3 active torsions:
REMARK  status: ('A' for Active; 'I' for Inactive)
REMARK    1  A    between atoms: C6_11  and  C7_12
REMARK    2  A    between atoms: C16_22  and  C17_23
REMARK    3  A    between atoms: C20_26  and  C21_27
ROOT
HETATM    1  N1  UNL     1       6.822 -12.983 -16.549  1.00  0.00    -0.196 NA
HETATM    2  C1  UNL     1       6.685 -11.859 -16.315  1.00  0.00     0.073 C
HETATM    3  C2  UNL     1       6.519 -10.400 -16.028  1.00  0.00     0.180 A
HETATM    4  C3  UNL     1       6.935  -9.682 -17.222  1.00  0.00     0.136 A
HETATM    5  N2  UNL     1       8.115  -9.967 -17.737  1.00  0.00    -0.382 N
ATOM      6  H21 UNL     1       8.406  -9.463 -18.575  1.00  0.00     0.158 HD
ATOM      7  H22 UNL     1       8.692 -10.678 -17.286  1.00  0.00     0.158 HD
HETATM    8  O1  UNL     1       6.166  -8.736 -17.824  1.00  0.00    -0.296 OA
HETATM    9  C4  UNL     1       4.920  -8.430 -17.319  1.00  0.00     0.085 A
HETATM   10  C5  UNL     1       4.168  -7.447 -17.980  1.00  0.00     0.050 A
HETATM   11  C6  UNL     1       2.921  -7.089 -17.538  1.00  0.00    -0.023 A
HETATM   12  C13 UNL     1       2.428  -7.727 -16.421  1.00  0.00     0.013 A
HETATM   13  C14 UNL     1       3.166  -8.693 -15.773  1.00  0.00     0.011 A
HETATM   14  C15 UNL     1       4.443  -9.075 -16.205  1.00  0.00    -0.014 A
HETATM   15  C16 UNL     1       5.179 -10.111 -15.462  1.00  0.00     0.080 A
ENDROOT
BRANCH  15  16
HETATM   16  C17 UNL     1       5.238  -9.805 -13.994  1.00  0.00    -0.048 A
HETATM   17  C18 UNL     1       5.931  -8.711 -13.524  1.00  0.00     0.008 A
HETATM   18  C19 UNL     1       6.002  -8.406 -12.177  1.00  0.00     0.009 A
HETATM   19  C20 UNL     1       5.377  -9.193 -11.235  1.00  0.00    -0.044 A
HETATM   20  C22 UNL     1       4.681 -10.291 -11.693  1.00  0.00     0.009 A
HETATM   21  C23 UNL     1       4.614 -10.592 -13.052  1.00  0.00     0.008 A
BRANCH  19  22
HETATM   22  C21 UNL     1       5.448  -8.872  -9.771  1.00  0.00     0.153 C
HETATM   23 CL1  UNL     1       6.312  -7.358  -9.480  1.00  0.00    -0.126 Cl
ENDBRANCH  19  22
ENDBRANCH  15  16
BRANCH  11  24
HETATM   24  C7  UNL     1       2.127  -6.056 -18.231  1.00  0.00    -0.026 A
HETATM   25  C8  UNL     1       0.786  -5.866 -17.973  1.00  0.00     0.015 A
HETATM   26  C9  UNL     1       0.081  -4.876 -18.655  1.00  0.00     0.043 A
HETATM   27  C10 UNL     1       0.690  -4.067 -19.591  1.00  0.00     0.116 A
HETATM   28  F1  UNL     1      -0.020  -3.111 -20.238  1.00  0.00    -0.206 F
HETATM   29  C11 UNL     1       2.025  -4.249 -19.852  1.00  0.00     0.043 A
HETATM   30  C12 UNL     1       2.725  -5.241 -19.168  1.00  0.00     0.015 A
ENDBRANCH  11  24
TORSDOF 3
ENDMDL