MODEL 2
REMARK VINA RESULT: -6.667104912      3.687      5.114
REMARK  5 active torsions:
REMARK  status: ('A' for Active; 'I' for Inactive)
REMARK    1  A    between atoms: C4_5  and  C6_7
REMARK    2  A    between atoms: C9_10  and  O1_11
REMARK    3  A    between atoms: O1_11  and  C10_12
REMARK    4  A    between atoms: C15_17  and  C17_19
REMARK    5  A    between atoms: C19_23  and  O2_24
ROOT
HETATM    1  C6  UNL     1       4.060 -11.400 -16.932  1.00  0.00     0.027 A
HETATM    2  C7  UNL     1       5.322 -11.453 -17.462  1.00  0.00     0.016 A
HETATM    3  C8  UNL     1       5.780 -10.426 -18.278  1.00  0.00     0.041 A
HETATM    4  C9  UNL     1       5.013  -9.328 -18.589  1.00  0.00     0.110 A
HETATM    5  C18 UNL     1       3.723  -9.284 -18.040  1.00  0.00     0.183 A
HETATM    6  F1  UNL     1       2.924  -8.217 -18.321  1.00  0.00    -0.200 F
HETATM    7  C19 UNL     1       3.273 -10.316 -17.225  1.00  0.00     0.117 A
ENDROOT
BRANCH   4   8
HETATM    8  O1  UNL     1       5.390  -8.275 -19.383  1.00  0.00    -0.342 OA
BRANCH   8   9
HETATM    9  C10 UNL     1       5.584  -8.262 -20.750  1.00  0.00     0.138 C
HETATM   10  C11 UNL     1       4.963  -7.039 -21.421  1.00  0.00     0.033 C
HETATM   11  C12 UNL     1       4.800  -7.368 -22.875  1.00  0.00     0.002 C
HETATM   12  C13 UNL     1       6.128  -7.847 -23.406  1.00  0.00     0.001 C
HETATM   13  C14 UNL     1       7.264  -7.542 -22.456  1.00  0.00     0.013 C
HETATM   14  C15 UNL     1       7.065  -8.177 -21.109  1.00  0.00    -0.005 C
HETATM   15  C16 UNL     1       7.698  -7.247 -20.072  1.00  0.00     0.019 C
BRANCH  14  16
HETATM   16  C17 UNL     1       7.770  -9.492 -21.062  1.00  0.00     0.126 C
HETATM   17 CL1  UNL     1       8.879  -9.647 -19.689  1.00  0.00    -0.130 Cl
ENDBRANCH  14  16
ENDBRANCH   8   9
ENDBRANCH   4   8
BRANCH   7  18
HETATM   18  O2  UNL     1       2.001 -10.291 -16.673  1.00  0.00    -0.357 OA
ATOM     19  H2  UNL     1       1.797  -9.571 -16.088  1.00  0.00     0.217 HD
ENDBRANCH   7  18
BRANCH   1  20
HETATM   20  C4  UNL     1       3.575 -12.472 -16.079  1.00  0.00     0.234 C
HETATM   21  S1  UNL     1       4.990 -13.435 -15.397  1.00  0.00    -0.121 SA
HETATM   22  C3  UNL     1       4.714 -12.960 -13.661  1.00  0.00     0.112 C
HETATM   23  C2  UNL     1       3.742 -11.842 -13.827  1.00  0.00     0.230 C
HETATM   24  C1  UNL     1       4.452 -10.534 -13.859  1.00  0.00     0.043 C
HETATM   25  N1  UNL     1       2.867 -12.080 -14.920  1.00  0.00     0.113 N
HETATM   26  C20 UNL     1       1.762 -12.886 -14.522  1.00  0.00     0.312 C
HETATM   27  C5  UNL     1       2.838 -13.471 -16.961  1.00  0.00     0.067 C
ENDBRANCH   1  20
TORSDOF 5
ENDMDL