MODEL 2
REMARK VINA RESULT: -8.426428319      2.148      2.720
REMARK  3 active torsions:
REMARK  status: ('A' for Active; 'I' for Inactive)
REMARK    1  A    between atoms: C2_2  and  C3_3
REMARK    2  A    between atoms: C5_5  and  O1_6
REMARK    3  A    between atoms: N1_16  and  C12_17
ROOT
HETATM    1  C3  UNL     1     -13.383  48.268 -39.484  1.00  0.00     0.120 C
HETATM    2  C4  UNL     1     -12.225  48.926 -38.798  1.00  0.00     0.012 A
HETATM    3  C5  UNL     1     -11.431  48.194 -37.954  1.00  0.00     0.077 A
HETATM    4  C6  UNL     1     -10.368  48.813 -37.320  1.00  0.00     0.079 A
HETATM    5  C7  UNL     1     -10.064  50.149 -37.500  1.00  0.00     0.120 A
HETATM    6  F1  UNL     1      -9.013  50.738 -36.866  1.00  0.00    -0.206 F
HETATM    7  C8  UNL     1     -10.874  50.868 -38.352  1.00  0.00     0.058 A
HETATM    8  C9  UNL     1     -11.937  50.257 -38.988  1.00  0.00     0.029 A
HETATM    9  C10 UNL     1     -12.822  50.967 -39.898  1.00  0.00     0.198 C
HETATM   10  O2  UNL     1     -12.918  52.210 -39.808  1.00  0.00    -0.286 OA
HETATM   11  C11 UNL     1     -13.580  50.232 -40.897  1.00  0.00     0.142 C
HETATM   12  N1  UNL     1     -13.721  48.843 -40.708  1.00  0.00    -0.373 N
ENDROOT
BRANCH  12  13
HETATM   13  C12 UNL     1     -14.193  48.062 -41.750  1.00  0.00     0.084 C
HETATM   14  C13 UNL     1     -13.653  48.418 -43.117  1.00  0.00     0.025 C
HETATM   15  C14 UNL     1     -12.353  47.624 -43.279  1.00  0.00     0.002 C
HETATM   16  C15 UNL     1     -12.768  46.252 -43.748  1.00  0.00     0.000 C
HETATM   17  C16 UNL     1     -14.021  45.883 -42.957  1.00  0.00     0.002 C
HETATM   18  C17 UNL     1     -14.004  46.564 -41.595  1.00  0.00     0.025 C
ENDBRANCH  12  13
BRANCH   1  19
HETATM   19  C2  UNL     1     -14.488  48.215 -38.443  1.00  0.00     0.026 C
HETATM   20  C1  UNL     1     -15.004  46.845 -38.182  1.00  0.00     0.007 C
ENDBRANCH   1  19
BRANCH   3  21
HETATM   21  O1  UNL     1     -11.656  46.835 -37.706  1.00  0.00    -0.360 OA
ATOM     22  H1  UNL     1     -10.990  46.271 -37.332  1.00  0.00     0.217 HD
ENDBRANCH   3  21
TORSDOF 3
ENDMDL