MODEL 3
REMARK VINA RESULT: -7.826820122      3.868      5.800
REMARK  3 active torsions:
REMARK  status: ('A' for Active; 'I' for Inactive)
REMARK    1  A    between atoms: C2_2  and  C3_3
REMARK    2  A    between atoms: C3_3  and  C4_5
REMARK    3  A    between atoms: C12_14  and  O2_15
ROOT
HETATM    1  C4  UNL     1     -13.914  47.321 -43.562  1.00  0.00     0.014 C
HETATM    2  C5  UNL     1     -12.759  46.900 -43.119  1.00  0.00     0.023 C
HETATM    3 CL1  UNL     1     -11.532  45.946 -43.959  1.00  0.00    -0.088 Cl
HETATM    4  C6  UNL     1     -12.574  47.328 -41.729  1.00  0.00     0.057 C
HETATM    5  C7  UNL     1     -13.694  48.304 -41.482  1.00  0.00     0.004 C
HETATM    6  C8  UNL     1     -13.177  49.656 -41.211  1.00  0.00     0.011 C
HETATM    7  C9  UNL     1     -13.585  50.743 -42.138  1.00  0.00    -0.010 C
HETATM    8  C10 UNL     1     -13.393  52.088 -41.474  1.00  0.00     0.007 C
HETATM    9  C11 UNL     1     -14.211  52.279 -40.254  1.00  0.00     0.032 C
HETATM   10  C12 UNL     1     -15.625  51.834 -40.341  1.00  0.00     0.118 C
HETATM   11  C13 UNL     1     -15.875  50.650 -41.209  1.00  0.00     0.036 C
HETATM   12  C14 UNL     1     -15.046  50.593 -42.435  1.00  0.00    -0.007 C
HETATM   13  C15 UNL     1     -15.213  49.330 -43.212  1.00  0.00     0.019 C
HETATM   14  C16 UNL     1     -14.675  48.107 -42.561  1.00  0.00    -0.008 C
HETATM   15  C17 UNL     1     -15.830  47.208 -42.127  1.00  0.00     0.021 C
ENDROOT
BRANCH   1  16
HETATM   16  C3  UNL     1     -14.399  47.040 -44.932  1.00  0.00     0.157 C
HETATM   17  O1  UNL     1     -14.432  47.992 -45.751  1.00  0.00    -0.293 OA
BRANCH  16  18
HETATM   18  C2  UNL     1     -14.844  45.709 -45.387  1.00  0.00     0.079 C
HETATM   19  C1  UNL     1     -16.374  45.669 -45.254  1.00  0.00     0.013 C
ENDBRANCH  16  18
ENDBRANCH   1  16
BRANCH  10  20
HETATM   20  O2  UNL     1     -16.473  52.918 -40.657  1.00  0.00    -0.396 OA
ATOM     21  H2  UNL     1     -17.125  52.660 -41.299  1.00  0.00     0.210 HD
ENDBRANCH  10  20
TORSDOF 3
ENDMDL