MODEL 4
REMARK VINA RESULT: -6.989593175      3.503      6.262
REMARK  3 active torsions:
REMARK  status: ('A' for Active; 'I' for Inactive)
REMARK    1  A    between atoms: C2_2  and  C4_4
REMARK    2  A    between atoms: C7_8  and  N1_9
REMARK    3  A    between atoms: C14_16  and  O1_17
ROOT
HETATM    1  C4  UNL     1     -14.521  48.729 -43.124  1.00  0.00     0.004 A
HETATM    2  C5  UNL     1     -15.167  49.778 -42.454  1.00  0.00     0.036 A
HETATM    3  C6  UNL     1     -14.514  50.859 -41.915  1.00  0.00     0.038 A
HETATM    4 BR1  UNL     1     -15.482  52.253 -41.006  1.00  0.00    -0.049 Br
HETATM    5  C7  UNL     1     -13.146  50.936 -42.028  1.00  0.00     0.050 A
HETATM    6  C13 UNL     1     -12.484  49.938 -42.671  1.00  0.00     0.068 A
HETATM    7  C14 UNL     1     -13.159  48.828 -43.225  1.00  0.00     0.078 A
ENDROOT
BRANCH   5   8
HETATM    8  N1  UNL     1     -12.479  52.072 -41.465  1.00  0.00    -0.380 N
HETATM    9  C8  UNL     1     -11.689  51.899 -40.293  1.00  0.00     0.123 C
HETATM   10  C9  UNL     1     -12.049  52.894 -39.202  1.00  0.00     0.020 C
HETATM   11  C10 UNL     1     -12.368  54.252 -39.787  1.00  0.00     0.003 C
HETATM   12  C11 UNL     1     -11.787  54.335 -41.203  1.00  0.00     0.020 C
HETATM   13  C12 UNL     1     -12.586  53.390 -42.046  1.00  0.00     0.123 C
ENDBRANCH   5   8
BRANCH   7  14
HETATM   14  O1  UNL     1     -12.359  47.912 -43.842  1.00  0.00    -0.360 OA
ATOM     15  H1  UNL     1     -11.925  47.190 -43.403  1.00  0.00     0.217 HD
ENDBRANCH   7  14
BRANCH   1  16
HETATM   16  C2  UNL     1     -15.332  47.639 -43.670  1.00  0.00    -0.058 C
HETATM   17  C1  UNL     1     -15.754  46.729 -42.793  1.00  0.00     0.019 C
HETATM   18  C3  UNL     1     -15.652  47.471 -45.086  1.00  0.00     0.048 C
ENDBRANCH   1  16
TORSDOF 3
ENDMDL