MODEL 1
REMARK VINA RESULT: -8.696132182      0.000      0.000
REMARK  2 active torsions:
REMARK  status: ('A' for Active; 'I' for Inactive)
REMARK    1  A    between atoms: C6_8  and  N2_9
REMARK    2  A    between atoms: C11_14  and  C12_15
ROOT
HETATM    1  N2  UNL     1     -14.085  50.002 -40.521  1.00  0.00    -0.376 N
HETATM    2  C7  UNL     1     -14.825  49.068 -41.334  1.00  0.00     0.123 C
HETATM    3  C8  UNL     1     -14.050  48.358 -42.394  1.00  0.00     0.020 C
HETATM    4  C9  UNL     1     -13.406  49.376 -43.295  1.00  0.00     0.007 C
HETATM    5  C10 UNL     1     -12.529  50.244 -42.388  1.00  0.00     0.053 C
HETATM    6  C11 UNL     1     -13.383  50.881 -41.324  1.00  0.00    -0.011 C
ENDROOT
BRANCH   1   7
HETATM    7  C6  UNL     1     -13.810  49.495 -39.291  1.00  0.00     0.138 C
HETATM    8  C4  UNL     1     -12.457  49.550 -38.685  1.00  0.00     0.010 A
HETATM    9  C3  UNL     1     -11.910  48.256 -38.630  1.00  0.00     0.109 A
HETATM   10  C5  UNL     1     -11.668  50.537 -38.171  1.00  0.00     0.014 A
HETATM   11  N1  UNL     1     -10.698  48.020 -38.109  1.00  0.00    -0.352 N
HETATM   12  N3  UNL     1     -12.879  47.350 -39.194  1.00  0.00    -0.373 N
HETATM   13  C2  UNL     1      -9.917  48.992 -37.602  1.00  0.00     0.089 A
ATOM     14  H1  UNL     1     -10.352  47.060 -38.095  1.00  0.00     0.166 HD
HETATM   15  C1  UNL     1     -10.423  50.280 -37.638  1.00  0.00     0.018 A
HETATM   16  C18 UNL     1     -14.143  48.061 -38.942  1.00  0.00     0.151 C
ATOM     17  H3  UNL     1     -12.728  46.450 -39.648  1.00  0.00     0.161 HD
ENDBRANCH   1   7
BRANCH   6  18
HETATM   18  C12 UNL     1     -12.817  52.164 -40.879  1.00  0.00     0.031 C
HETATM   19  C13 UNL     1     -12.354  53.045 -42.065  1.00  0.00     0.010 C
HETATM   20  C14 UNL     1     -11.944  54.376 -41.485  1.00  0.00     0.001 C
HETATM   21  C15 UNL     1     -11.814  54.386 -39.998  1.00  0.00     0.000 C
HETATM   22  C16 UNL     1     -13.169  54.105 -39.425  1.00  0.00     0.001 C
HETATM   23  C17 UNL     1     -13.884  53.070 -40.245  1.00  0.00     0.010 C
ENDBRANCH   6  18
TORSDOF 2
ENDMDL