MODEL 2
REMARK VINA RESULT: -9.372432358      2.365      4.956
REMARK  2 active torsions:
REMARK  status: ('A' for Active; 'I' for Inactive)
REMARK    1  A    between atoms: C8_9  and  N1_10
REMARK    2  A    between atoms: N1_10  and  C9_12
ROOT
HETATM    1  C9  UNL     1     -11.981  53.267 -39.404  1.00  0.00     0.244 C
HETATM    2  C10 UNL     1     -11.959  54.237 -40.473  1.00  0.00     0.078 C
HETATM    3  N2  UNL     1     -11.928  55.025 -41.320  1.00  0.00    -0.196 NA
ENDROOT
BRANCH   1   4
HETATM    4  N1  UNL     1     -11.603  51.930 -39.866  1.00  0.00    -0.377 N
ATOM      5  H1  UNL     1     -11.389  51.779 -40.852  1.00  0.00     0.160 HD
BRANCH   4   6
HETATM    6  C8  UNL     1     -11.531  50.855 -38.968  1.00  0.00     0.038 A
HETATM    7  C7  UNL     1     -12.524  49.919 -38.845  1.00  0.00     0.015 A
HETATM    8  C6  UNL     1     -13.686  49.930 -39.719  1.00  0.00     0.141 C
HETATM    9  C14 UNL     1     -12.328  48.950 -37.855  1.00  0.00    -0.038 A
HETATM   10  C2  UNL     1     -14.629  48.775 -39.515  1.00  0.00     0.002 C
HETATM   11  C5  UNL     1     -13.409  49.889 -41.198  1.00  0.00     0.050 C
HETATM   12  F1  UNL     1     -14.447  51.077 -39.441  1.00  0.00    -0.237 F
HETATM   13  C1  UNL     1     -16.028  49.224 -39.874  1.00  0.00     0.019 C
HETATM   14  C3  UNL     1     -14.184  47.797 -40.584  1.00  0.00     0.013 C
HETATM   15  C19 UNL     1     -14.660  48.192 -38.155  1.00  0.00     0.013 C
HETATM   16  C4  UNL     1     -14.239  48.731 -41.777  1.00  0.00     0.004 C
HETATM   17  C15 UNL     1     -13.313  47.910 -37.573  1.00  0.00     0.046 C
HETATM   18  C18 UNL     1     -15.296  46.818 -38.172  1.00  0.00     0.033 C
HETATM   19  C16 UNL     1     -12.991  46.562 -38.044  1.00  0.00    -0.021 C
HETATM   20  C17 UNL     1     -14.115  45.936 -38.387  1.00  0.00    -0.029 C
HETATM   21  C13 UNL     1     -11.187  48.940 -37.049  1.00  0.00     0.009 A
HETATM   22  C12 UNL     1     -10.222  49.873 -37.194  1.00  0.00     0.003 A
HETATM   23  C11 UNL     1     -10.390  50.836 -38.153  1.00  0.00     0.030 A
ENDBRANCH   4   6
ENDBRANCH   1   4
TORSDOF 2
ENDMDL