MODEL 5
REMARK VINA RESULT: -7.948592874      2.153      4.088
REMARK  2 active torsions:
REMARK  status: ('A' for Active; 'I' for Inactive)
REMARK    1  A    between atoms: C3_3  and  O1_4
REMARK    2  A    between atoms: O1_4  and  N1_5
ROOT
HETATM    1  C1  UNL     1     -14.671  46.777 -46.473  1.00  0.00     0.014 C
HETATM    2  C2  UNL     1     -15.210  46.405 -45.446  1.00  0.00    -0.089 C
HETATM    3  C3  UNL     1     -15.868  45.951 -44.221  1.00  0.00     0.294 C
ENDROOT
BRANCH   3   4
HETATM    4  O1  UNL     1     -15.978  47.053 -43.347  1.00  0.00    -0.269 OA
BRANCH   4   5
HETATM    5  N1  UNL     1     -15.508  47.073 -42.076  1.00  0.00    -0.274 N
HETATM    6  C4  UNL     1     -14.818  48.047 -41.606  1.00  0.00     0.010 C
HETATM    7  C5  UNL     1     -14.532  49.190 -42.503  1.00  0.00     0.054 C
HETATM    8  C17 UNL     1     -14.340  47.997 -40.211  1.00  0.00     0.059 C
HETATM    9  C6  UNL     1     -15.570  50.297 -42.369  1.00  0.00     0.006 C
HETATM   10  C7  UNL     1     -14.911  51.655 -42.573  1.00  0.00     0.000 C
HETATM   11  C8  UNL     1     -14.221  51.996 -41.276  1.00  0.00     0.000 C
HETATM   12  C9  UNL     1     -13.227  53.101 -41.389  1.00  0.00     0.000 C
HETATM   13  C10 UNL     1     -11.924  52.727 -40.693  1.00  0.00     0.000 C
HETATM   14  C11 UNL     1     -12.162  52.082 -39.352  1.00  0.00     0.000 C
HETATM   15  C12 UNL     1     -11.506  50.723 -39.236  1.00  0.00     0.004 C
HETATM   16  C13 UNL     1     -12.360  49.804 -38.396  1.00  0.00     0.035 C
HETATM   17  C14 UNL     1     -12.307  48.403 -38.824  1.00  0.00    -0.069 C
HETATM   18  C15 UNL     1     -11.763  47.506 -38.007  1.00  0.00     0.087 C
HETATM   19  C16 UNL     1     -12.829  47.910 -40.128  1.00  0.00     0.040 C
HETATM   20 CL1  UNL     1     -11.111  47.974 -36.437  1.00  0.00    -0.097 Cl
ATOM     21  H1  UNL     1     -15.710  46.280 -41.468  1.00  0.00     0.193 HD
ENDBRANCH   4   5
ENDBRANCH   3   4
TORSDOF 2
ENDMDL