MODEL 5
REMARK VINA RESULT: -7.989261130      1.885      4.484
REMARK  3 active torsions:
REMARK  status: ('A' for Active; 'I' for Inactive)
REMARK    1  A    between atoms: C4_4  and  C5_5
REMARK    2  A    between atoms: C7_7  and  C8_9
REMARK    3  A    between atoms: C8_9  and  O1_11
ROOT
HETATM    1  C5  UNL     1     -12.742  50.281 -38.961  1.00  0.00     0.028 C
HETATM    2  C6  UNL     1     -11.700  51.127 -39.578  1.00  0.00     0.056 C
HETATM    3  C7  UNL     1     -12.502  51.893 -40.642  1.00  0.00     0.137 C
HETATM    4  F1  UNL     1     -11.766  51.868 -41.842  1.00  0.00    -0.239 F
HETATM    5  C10 UNL     1     -13.786  51.138 -40.841  1.00  0.00     0.006 C
HETATM    6  C11 UNL     1     -14.083  51.033 -42.309  1.00  0.00     0.019 C
HETATM    7  C12 UNL     1     -15.000  51.833 -40.255  1.00  0.00     0.019 C
HETATM    8  C13 UNL     1     -13.543  49.838 -40.149  1.00  0.00     0.037 C
HETATM    9  C14 UNL     1     -12.822  48.830 -41.000  1.00  0.00     0.019 C
HETATM   10  C15 UNL     1     -13.154  47.398 -40.629  1.00  0.00     0.002 C
HETATM   11  C16 UNL     1     -14.598  47.084 -40.910  1.00  0.00     0.007 C
HETATM   12  C17 UNL     1     -15.503  48.171 -40.433  1.00  0.00     0.079 C
HETATM   13  C18 UNL     1     -14.791  49.207 -39.648  1.00  0.00     0.137 C
HETATM   14  O2  UNL     1     -15.300  49.508 -38.558  1.00  0.00    -0.297 OA
ENDROOT
BRANCH   1  15
HETATM   15  C4  UNL     1     -12.370  49.262 -37.999  1.00  0.00    -0.019 C
HETATM   16  C2  UNL     1     -11.271  49.046 -37.327  1.00  0.00    -0.091 C
HETATM   17  C1  UNL     1     -11.245  47.854 -36.392  1.00  0.00     0.042 C
HETATM   18  C3  UNL     1     -10.017  49.833 -37.361  1.00  0.00     0.042 C
ENDBRANCH   1  15
BRANCH   3  19
HETATM   19  C8  UNL     1     -12.659  53.338 -40.306  1.00  0.00     0.154 C
HETATM   20  C9  UNL     1     -12.074  54.230 -41.398  1.00  0.00     0.042 C
BRANCH  19  21
HETATM   21  O1  UNL     1     -12.013  53.715 -39.129  1.00  0.00    -0.393 OA
ATOM     22  H1  UNL     1     -12.602  53.853 -38.397  1.00  0.00     0.210 HD
ENDBRANCH  19  21
ENDBRANCH   3  19
TORSDOF 3
ENDMDL