MODEL 4
REMARK VINA RESULT: -8.285642299      2.731      6.624
REMARK  2 active torsions:
REMARK  status: ('A' for Active; 'I' for Inactive)
REMARK    1  A    between atoms: C3_3  and  N1_4
REMARK    2  A    between atoms: N1_4  and  C4_6
ROOT
HETATM    1  C1  UNL     1     -12.701  49.477 -39.331  1.00  0.00     0.052 C
HETATM    2  C2  UNL     1     -13.096  50.522 -40.316  1.00  0.00    -0.012 A
HETATM    3  C3  UNL     1     -14.041  50.249 -41.317  1.00  0.00     0.036 A
HETATM    4  C14 UNL     1     -14.317  51.296 -42.162  1.00  0.00     0.031 A
HETATM    5  C15 UNL     1     -13.714  52.557 -42.054  1.00  0.00     0.027 A
HETATM    6  C16 UNL     1     -12.786  52.773 -41.047  1.00  0.00     0.067 A
HETATM    7  C17 UNL     1     -12.156  54.056 -40.918  1.00  0.00     0.101 C
HETATM    8  N2  UNL     1     -11.641  55.088 -40.806  1.00  0.00    -0.191 NA
HETATM    9  C18 UNL     1     -12.482  51.747 -40.181  1.00  0.00     0.062 A
HETATM   10 CL1  UNL     1     -11.309  52.049 -38.921  1.00  0.00    -0.082 Cl
ENDROOT
BRANCH   3  11
HETATM   11  N1  UNL     1     -14.613  48.968 -41.392  1.00  0.00    -0.380 N
ATOM     12  H1  UNL     1     -15.395  48.811 -40.756  1.00  0.00     0.160 HD
BRANCH  11  13
HETATM   13  C4  UNL     1     -14.275  47.848 -42.215  1.00  0.00     0.031 C
HETATM   14  C5  UNL     1     -15.318  47.472 -43.206  1.00  0.00     0.035 C
HETATM   15  C6  UNL     1     -14.983  46.144 -43.869  1.00  0.00    -0.012 C
HETATM   16  C7  UNL     1     -14.898  45.012 -42.898  1.00  0.00     0.009 C
HETATM   17  C11 UNL     1     -13.675  46.273 -44.596  1.00  0.00     0.009 C
HETATM   18  C8  UNL     1     -13.818  45.374 -41.899  1.00  0.00    -0.012 C
HETATM   19  C9  UNL     1     -12.488  45.478 -42.574  1.00  0.00     0.009 C
HETATM   20  C13 UNL     1     -14.176  46.646 -41.234  1.00  0.00     0.035 C
HETATM   21  C10 UNL     1     -12.614  46.626 -43.580  1.00  0.00    -0.012 C
HETATM   22  C12 UNL     1     -12.929  47.919 -42.857  1.00  0.00     0.035 C
ENDBRANCH  11  13
ENDBRANCH   3  11
TORSDOF 2
ENDMDL