MODEL 2
REMARK VINA RESULT: -7.768669441      2.616      5.648
REMARK  3 active torsions:
REMARK  status: ('A' for Active; 'I' for Inactive)
REMARK    1  A    between atoms: C2_2  and  C4_4
REMARK    2  A    between atoms: C6_6  and  O1_7
REMARK    3  A    between atoms: C6_6  and  C7_9
ROOT
HETATM    1  C4  UNL     1     -15.253  47.493 -44.075  1.00  0.00     0.087 C
HETATM    2  C5  UNL     1     -13.839  48.041 -44.234  1.00  0.00     0.056 C
HETATM    3  C6  UNL     1     -13.372  48.744 -42.948  1.00  0.00     0.077 C
HETATM    4  C8  UNL     1     -14.297  49.833 -42.610  1.00  0.00     0.044 C
HETATM    5  C9  UNL     1     -13.913  50.685 -41.436  1.00  0.00    -0.040 C
HETATM    6  C10 UNL     1     -14.411  52.134 -41.597  1.00  0.00     0.015 C
HETATM    7  C11 UNL     1     -12.422  50.858 -41.259  1.00  0.00     0.015 C
HETATM    8  C12 UNL     1     -14.463  50.193 -40.126  1.00  0.00     0.009 C
HETATM    9  C13 UNL     1     -15.792  49.550 -40.178  1.00  0.00     0.002 C
HETATM   10  C14 UNL     1     -16.145  48.760 -41.386  1.00  0.00     0.017 C
HETATM   11  C15 UNL     1     -15.756  49.483 -42.627  1.00  0.00     0.025 C
HETATM   12  C16 UNL     1     -16.697  50.661 -42.747  1.00  0.00     0.024 C
HETATM   13  C17 UNL     1     -16.053  48.689 -43.882  1.00  0.00     0.143 C
HETATM   14  O2  UNL     1     -16.893  49.016 -44.672  1.00  0.00    -0.296 OA
ENDROOT
BRANCH   3  15
HETATM   15  O1  UNL     1     -12.159  49.351 -43.398  1.00  0.00    -0.388 OA
ATOM     16  H1  UNL     1     -12.221  49.201 -44.334  1.00  0.00     0.210 HD
ENDBRANCH   3  15
BRANCH   3  17
HETATM   17  C7  UNL     1     -12.998  47.680 -42.025  1.00  0.00     0.152 C
HETATM   18 CL1  UNL     1     -12.151  46.398 -43.000  1.00  0.00    -0.127 Cl
ENDBRANCH   3  17
BRANCH   1  19
HETATM   19  C2  UNL     1     -15.510  46.571 -45.143  1.00  0.00    -0.082 C
HETATM   20  C1  UNL     1     -16.359  45.594 -45.178  1.00  0.00     0.015 C
HETATM   21  C3  UNL     1     -14.671  46.775 -46.401  1.00  0.00     0.043 C
ENDBRANCH   1  19
TORSDOF 3
ENDMDL