MODEL 1
REMARK VINA RESULT: -7.042442956      0.000      0.000
REMARK  2 active torsions:
REMARK  status: ('A' for Active; 'I' for Inactive)
REMARK    1  A    between atoms: C5_6  and  N1_7
REMARK    2  A    between atoms: N1_7  and  C6_9
ROOT
HETATM    1  N1  UNL     1     -13.909  50.439 -39.673  1.00  0.00    -0.384 N
ATOM      2  H1  UNL     1     -14.815  50.567 -40.123  1.00  0.00     0.160 HD
ENDROOT
BRANCH   1   3
HETATM    3  C5  UNL     1     -13.681  49.251 -38.925  1.00  0.00     0.029 A
HETATM    4  C4  UNL     1     -14.469  48.131 -39.091  1.00  0.00     0.029 A
HETATM    5  C3  UNL     1     -14.279  46.967 -38.375  1.00  0.00     0.004 A
HETATM    6  C2  UNL     1     -13.268  46.876 -37.442  1.00  0.00     0.019 A
HETATM    7  C1  UNL     1     -12.465  47.981 -37.255  1.00  0.00     0.013 A
HETATM    8 BR1  UNL     1     -11.066  47.854 -35.962  1.00  0.00    -0.051 Br
HETATM    9  C13 UNL     1     -12.671  49.152 -37.988  1.00  0.00     0.048 A
ENDBRANCH   1   3
BRANCH   1  10
HETATM   10  C6  UNL     1     -12.901  51.478 -39.823  1.00  0.00     0.096 C
HETATM   11  C7  UNL     1     -11.934  51.259 -40.900  1.00  0.00     0.041 C
HETATM   12  C8  UNL     1     -12.282  52.030 -42.147  1.00  0.00     0.049 C
HETATM   13  C9  UNL     1     -11.461  53.304 -42.102  1.00  0.00     0.015 C
HETATM   14  S1  UNL     1     -14.012  52.566 -41.804  1.00  0.00    -0.157 SA
HETATM   15  C10 UNL     1     -12.152  54.366 -41.310  1.00  0.00     0.002 C
HETATM   16  C11 UNL     1     -12.625  53.908 -39.955  1.00  0.00     0.017 C
HETATM   17  C12 UNL     1     -13.623  52.794 -40.015  1.00  0.00     0.070 C
ENDBRANCH   1  10
TORSDOF 2
ENDMDL