MODEL 5
REMARK VINA RESULT: -7.692021755      1.983      3.412
REMARK  7 active torsions:
REMARK  status: ('A' for Active; 'I' for Inactive)
REMARK    1  A    between atoms: N1_6  and  C6_7
REMARK    2  A    between atoms: C6_7  and  O1_8
REMARK    3  A    between atoms: C6_7  and  C7_10
REMARK       I    between atoms: N2_14  and  C11_15
REMARK    4  A    between atoms: C11_15  and  C12_17
REMARK    5  A    between atoms: C12_17  and  C13_18
REMARK    6  A    between atoms: C13_18  and  C14_19
REMARK    7  A    between atoms: C14_19  and  C15_20
ROOT
HETATM    1  C7  UNL     1      -4.353  17.490   6.715  1.00  0.00     0.161 C
HETATM    2  C8  UNL     1      -2.866  17.774   6.900  1.00  0.00     0.035 C
HETATM    3  C9  UNL     1      -2.787  19.266   6.673  1.00  0.00     0.022 C
HETATM    4  C10 UNL     1      -4.108  19.725   7.295  1.00  0.00     0.127 C
HETATM    5  N2  UNL     1      -5.006  18.750   6.678  1.00  0.00    -0.340 N
HETATM    6  C11 UNL     1      -6.267  19.045   6.128  1.00  0.00     0.220 C
HETATM    7  O2  UNL     1      -6.946  18.118   5.578  1.00  0.00    -0.273 OA
ENDROOT
BRANCH   1   8
HETATM    8  C6  UNL     1      -4.838  16.484   7.650  1.00  0.00     0.137 C
BRANCH   8   9
HETATM    9  N1  UNL     1      -4.709  15.096   7.632  1.00  0.00    -0.359 N
HETATM   10  C2  UNL     1      -4.561  14.358   6.348  1.00  0.00     0.082 C
HETATM   11  C1  UNL     1      -5.825  13.667   5.955  1.00  0.00     0.032 C
HETATM   12  C3  UNL     1      -3.440  13.417   6.713  1.00  0.00     0.026 C
HETATM   13  C4  UNL     1      -3.940  12.881   8.029  1.00  0.00     0.022 C
HETATM   14  C5  UNL     1      -4.671  14.066   8.634  1.00  0.00     0.125 C
ENDBRANCH   8   9
BRANCH   8  15
HETATM   15  O1  UNL     1      -5.500  16.963   8.673  1.00  0.00    -0.348 OA
ATOM     16  H1  UNL     1      -5.723  16.325   9.340  1.00  0.00     0.219 HD
ENDBRANCH   8  15
ENDBRANCH   1   8
BRANCH   6  17
HETATM   17  C12 UNL     1      -6.858  20.408   6.154  1.00  0.00     0.103 C
BRANCH  17  18
HETATM   18  C13 UNL     1      -8.136  20.397   6.931  1.00  0.00     0.010 C
BRANCH  18  19
HETATM   19  C14 UNL     1      -9.239  21.025   6.110  1.00  0.00     0.005 C
BRANCH  19  20
HETATM   20  C15 UNL     1     -10.532  20.261   6.224  1.00  0.00    -0.014 C
HETATM   21  C16 UNL     1     -11.120  20.019   4.846  1.00  0.00     0.004 C
HETATM   22  C17 UNL     1     -12.344  19.166   4.936  1.00  0.00     0.000 C
HETATM   23  C18 UNL     1     -12.113  17.885   5.674  1.00  0.00     0.000 C
HETATM   24  C19 UNL     1     -10.637  17.755   6.065  1.00  0.00     0.000 C
HETATM   25  C20 UNL     1     -10.282  18.956   6.917  1.00  0.00     0.004 C
ENDBRANCH  19  20
ENDBRANCH  18  19
ENDBRANCH  17  18
ENDBRANCH   6  17
TORSDOF 7
ENDMDL