MODEL 4
REMARK VINA RESULT: -7.719489250      2.596      7.424
REMARK  5 active torsions:
REMARK  status: ('A' for Active; 'I' for Inactive)
REMARK    1  A    between atoms: N1_2  and  C2_3
REMARK    2  A    between atoms: N1_2  and  C14_18
REMARK    3  A    between atoms: C2_3  and  C3_4
REMARK       I    between atoms: C3_4  and  N2_6
REMARK    4  A    between atoms: N2_6  and  C4_8
REMARK    5  A    between atoms: C14_18  and  C15_19
ROOT
HETATM    1  C15 UNL     1      -4.462  17.039   7.167  1.00  0.00     0.065 C
HETATM    2  C16 UNL     1      -3.343  16.123   6.921  1.00  0.00     0.071 C
HETATM    3  N3  UNL     1      -2.464  15.386   6.741  1.00  0.00    -0.196 NA
HETATM    4  C17 UNL     1      -5.274  16.437   8.297  1.00  0.00     0.026 C
HETATM    5  C18 UNL     1      -6.702  16.323   7.814  1.00  0.00     0.002 C
HETATM    6  C19 UNL     1      -6.477  16.003   6.330  1.00  0.00     0.002 C
HETATM    7  C20 UNL     1      -5.429  17.054   6.006  1.00  0.00     0.026 C
ENDROOT
BRANCH   1   8
HETATM    8  C14 UNL     1      -3.984  18.371   7.595  1.00  0.00     0.146 C
BRANCH   8   9
HETATM    9  N1  UNL     1      -3.913  19.403   6.630  1.00  0.00    -0.388 N
HETATM   10  C1  UNL     1      -2.667  19.651   6.031  1.00  0.00     0.149 C
BRANCH   9  11
HETATM   11  C2  UNL     1      -4.789  20.492   6.784  1.00  0.00     0.160 C
BRANCH  11  12
HETATM   12  C3  UNL     1      -6.125  20.356   6.164  1.00  0.00     0.257 C
HETATM   13  O1  UNL     1      -6.249  20.514   4.944  1.00  0.00    -0.267 OA
HETATM   14  N2  UNL     1      -7.228  20.050   6.979  1.00  0.00    -0.347 N
ATOM     15  H2  UNL     1      -7.034  19.936   7.974  1.00  0.00     0.163 HD
BRANCH  14  16
HETATM   16  C4  UNL     1      -8.590  19.880   6.580  1.00  0.00     0.034 C
HETATM   17  C5  UNL     1      -9.116  21.158   6.013  1.00  0.00     0.035 C
HETATM   18  C6  UNL     1     -10.539  20.969   5.529  1.00  0.00    -0.012 C
HETATM   19  C7  UNL     1     -11.383  20.598   6.727  1.00  0.00     0.009 C
HETATM   20  C11 UNL     1     -10.630  19.866   4.521  1.00  0.00     0.009 C
HETATM   21  C8  UNL     1     -10.877  19.324   7.327  1.00  0.00    -0.012 C
HETATM   22  C9  UNL     1     -11.000  18.216   6.293  1.00  0.00     0.009 C
HETATM   23  C13 UNL     1      -9.443  19.381   7.737  1.00  0.00     0.035 C
HETATM   24  C10 UNL     1     -10.128  18.570   5.133  1.00  0.00    -0.012 C
HETATM   25  C12 UNL     1      -8.682  18.805   5.514  1.00  0.00     0.035 C
ENDBRANCH  14  16
ENDBRANCH  11  12
ENDBRANCH   9  11
ENDBRANCH   8   9
ENDBRANCH   1   8
TORSDOF 5
ENDMDL