MODEL 4
REMARK VINA RESULT: -6.836326148      0.768      1.228
REMARK  7 active torsions:
REMARK  status: ('A' for Active; 'I' for Inactive)
REMARK    1  A    between atoms: O1_2  and  C2_3
REMARK    2  A    between atoms: C2_3  and  C3_4
REMARK    3  A    between atoms: C4_5  and  C5_6
REMARK    4  A    between atoms: N1_13  and  C13_15
REMARK    5  A    between atoms: C13_15  and  C14_16
REMARK       I    between atoms: C14_16  and  N2_18
REMARK    6  A    between atoms: N2_18  and  C15_20
REMARK    7  A    between atoms: C15_20  and  C16_21
ROOT
HETATM    1  C2  UNL     1      -3.889  13.716   7.343  1.00  0.00     0.125 C
HETATM    2  C9  UNL     1      -2.891  14.781   7.078  1.00  0.00     0.053 C
HETATM    3  C10 UNL     1      -3.435  15.951   6.298  1.00  0.00     0.032 C
HETATM    4  C11 UNL     1      -4.342  16.721   7.182  1.00  0.00     0.237 C
HETATM    5  N1  UNL     1      -5.757  16.414   7.047  1.00  0.00    -0.062 N
HETATM    6  C12 UNL     1      -6.460  17.072   8.136  1.00  0.00     0.273 C
HETATM    7  C19 UNL     1      -6.035  15.016   7.096  1.00  0.00     0.241 C
HETATM    8  C20 UNL     1      -5.133  14.247   8.035  1.00  0.00     0.079 C
ENDROOT
BRANCH   5   9
HETATM    9  C13 UNL     1      -6.193  16.989   5.810  1.00  0.00     0.339 C
BRANCH   9  10
HETATM   10  C14 UNL     1      -7.257  18.003   5.909  1.00  0.00     0.243 C
HETATM   11  O2  UNL     1      -6.956  19.212   5.947  1.00  0.00    -0.272 OA
HETATM   12  N2  UNL     1      -8.634  17.617   5.960  1.00  0.00    -0.359 N
ATOM     13  H2  UNL     1      -8.890  16.630   5.930  1.00  0.00     0.162 HD
BRANCH  12  14
HETATM   14  C15 UNL     1      -9.661  18.629   6.057  1.00  0.00     0.126 C
BRANCH  14  15
HETATM   15  C16 UNL     1     -10.778  18.395   5.099  1.00  0.00    -0.005 C
HETATM   16  C17 UNL     1     -11.847  17.521   5.709  1.00  0.00     0.011 C
HETATM   17  C18 UNL     1     -11.325  19.651   4.500  1.00  0.00     0.011 C
ENDBRANCH  14  15
ENDBRANCH  12  14
ENDBRANCH   9  10
ENDBRANCH   5   9
BRANCH   1  18
HETATM   18  O1  UNL     1      -4.245  13.038   6.204  1.00  0.00    -0.372 OA
HETATM   19  C1  UNL     1      -3.240  12.462   5.487  1.00  0.00     0.204 C
ENDBRANCH   1  18
BRANCH   1  20
HETATM   20  C3  UNL     1      -3.278  12.794   8.333  1.00  0.00    -0.063 C
HETATM   21  C4  UNL     1      -2.775  12.060   9.156  1.00  0.00    -0.075 C
BRANCH  21  22
HETATM   22  C5  UNL     1      -2.187  11.200  10.156  1.00  0.00     0.066 C
HETATM   23  C6  UNL     1      -0.886  10.975  10.107  1.00  0.00    -0.080 C
HETATM   24  C7  UNL     1      -0.263  10.085  11.140  1.00  0.00     0.043 C
HETATM   25  C8  UNL     1      -0.010  11.560   9.079  1.00  0.00     0.043 C
ENDBRANCH  21  22
ENDBRANCH   1  20
TORSDOF 7
ENDMDL