MODEL 3
REMARK VINA RESULT: -8.439265263      3.358      7.500
REMARK  5 active torsions:
REMARK  status: ('A' for Active; 'I' for Inactive)
REMARK       I    between atoms: C1_2  and  N1_3
REMARK    1  A    between atoms: C1_2  and  C18_23
REMARK    2  A    between atoms: N1_3  and  C2_5
REMARK    3  A    between atoms: C2_5  and  C3_6
REMARK    4  A    between atoms: C3_6  and  C4_7
REMARK       I    between atoms: N2_13  and  C10_14
REMARK    5  A    between atoms: C10_14  and  C11_16
ROOT
HETATM    1  C4  UNL     1      -5.683  16.049   5.559  1.00  0.00     0.012 C
HETATM    2  C5  UNL     1      -4.912  17.109   6.324  1.00  0.00     0.032 C
HETATM    3  C6  UNL     1      -5.833  17.514   7.467  1.00  0.00     0.088 C
HETATM    4  C7  UNL     1      -5.712  16.410   8.498  1.00  0.00     0.027 C
HETATM    5  C8  UNL     1      -6.417  15.251   7.797  1.00  0.00     0.028 C
HETATM    6  C9  UNL     1      -6.875  15.823   6.460  1.00  0.00     0.091 C
HETATM    7  N2  UNL     1      -7.108  17.186   6.885  1.00  0.00    -0.342 N
HETATM    8  C10 UNL     1      -8.245  17.982   6.767  1.00  0.00     0.225 C
HETATM    9  O2  UNL     1      -9.285  17.483   6.208  1.00  0.00    -0.273 OA
ENDROOT
BRANCH   1  10
HETATM   10  C3  UNL     1      -4.868  14.826   5.294  1.00  0.00     0.026 C
BRANCH  10  11
HETATM   11  C2  UNL     1      -3.416  15.004   5.668  1.00  0.00     0.123 C
BRANCH  11  12
HETATM   12  N1  UNL     1      -3.174  14.283   6.918  1.00  0.00    -0.361 N
HETATM   13  C1  UNL     1      -2.960  12.887   6.943  1.00  0.00     0.221 C
HETATM   14  O1  UNL     1      -2.973  12.219   5.885  1.00  0.00    -0.273 OA
ATOM     15  H1  UNL     1      -3.159  14.802   7.795  1.00  0.00     0.162 HD
BRANCH  13  16
HETATM   16  C18 UNL     1      -2.721  12.205   8.230  1.00  0.00     0.078 C
HETATM   17  C19 UNL     1      -3.237  10.794   8.315  1.00  0.00     0.014 C
HETATM   18  C20 UNL     1      -3.757  11.127   9.705  1.00  0.00     0.002 C
HETATM   19  C21 UNL     1      -3.795  12.590   9.253  1.00  0.00     0.014 C
ENDBRANCH  13  16
ENDBRANCH  11  12
ENDBRANCH  10  11
ENDBRANCH   1  10
BRANCH   8  20
HETATM   20  C11 UNL     1      -8.339  19.367   7.243  1.00  0.00     0.082 C
HETATM   21  C12 UNL     1      -9.723  19.747   7.746  1.00  0.00     0.019 C
HETATM   22  C13 UNL     1     -10.226  20.840   6.828  1.00  0.00    -0.013 C
HETATM   23  C14 UNL     1      -9.488  22.097   7.135  1.00  0.00     0.005 C
HETATM   24  C17 UNL     1      -9.527  20.411   5.524  1.00  0.00     0.010 C
HETATM   25  C15 UNL     1      -8.052  21.731   6.767  1.00  0.00     0.006 C
HETATM   26  C16 UNL     1      -8.118  20.357   6.139  1.00  0.00    -0.001 C
ENDBRANCH   8  20
TORSDOF 5
ENDMDL