MODEL 3
REMARK VINA RESULT: -8.670309636      1.736      2.981
REMARK  5 active torsions:
REMARK  status: ('A' for Active; 'I' for Inactive)
REMARK    1  A    between atoms: C2_2  and  C3_3
REMARK       I    between atoms: N1_6  and  C6_7
REMARK    2  A    between atoms: C6_7  and  C7_9
REMARK    3  A    between atoms: C7_9  and  C8_10
REMARK    4  A    between atoms: C8_10  and  C9_11
REMARK       I    between atoms: C9_11  and  N2_13
REMARK    5  A    between atoms: N2_13  and  C10_15
ROOT
HETATM    1  C9  UNL     1      -4.368  19.175   7.083  1.00  0.00     0.218 C
HETATM    2  O2  UNL     1      -3.194  19.100   7.493  1.00  0.00    -0.274 OA
HETATM    3  N2  UNL     1      -5.137  18.006   6.970  1.00  0.00    -0.356 N
ATOM      4  H2  UNL     1      -6.094  18.101   6.631  1.00  0.00     0.162 HD
ENDROOT
BRANCH   1   5
HETATM    5  C8  UNL     1      -4.938  20.479   6.720  1.00  0.00     0.112 C
BRANCH   5   6
HETATM    6  C7  UNL     1      -6.092  20.370   5.764  1.00  0.00     0.112 C
BRANCH   6   7
HETATM    7  C6  UNL     1      -7.246  21.139   6.308  1.00  0.00     0.220 C
HETATM    8  N1  UNL     1      -8.569  20.657   6.273  1.00  0.00    -0.352 N
HETATM    9  C5  UNL     1      -9.647  21.439   6.812  1.00  0.00     0.126 C
HETATM   10  C20 UNL     1      -8.849  19.370   5.695  1.00  0.00     0.126 C
HETATM   11  C4  UNL     1     -10.854  20.508   6.986  1.00  0.00     0.024 C
HETATM   12  C3  UNL     1     -11.252  20.053   5.613  1.00  0.00    -0.012 C
HETATM   13  C21 UNL     1     -10.124  19.361   4.914  1.00  0.00     0.024 C
HETATM   14  O1  UNL     1      -7.029  22.271   6.821  1.00  0.00    -0.273 OA
BRANCH  12  15
HETATM   15  C2  UNL     1     -12.474  19.160   5.641  1.00  0.00     0.000 C
HETATM   16  C1  UNL     1     -12.122  17.707   5.686  1.00  0.00     0.005 C
ENDBRANCH  12  15
ENDBRANCH   6   7
ENDBRANCH   5   6
ENDBRANCH   1   5
BRANCH   3  17
HETATM   17  C10 UNL     1      -4.670  16.679   7.301  1.00  0.00     0.092 C
HETATM   18  C11 UNL     1      -5.706  15.844   8.001  1.00  0.00     0.009 C
HETATM   19  C12 UNL     1      -4.955  14.652   8.588  1.00  0.00     0.011 C
HETATM   20  C16 UNL     1      -6.754  15.294   7.086  1.00  0.00     0.011 C
HETATM   21  C13 UNL     1      -4.232  13.892   7.503  1.00  0.00    -0.013 C
HETATM   22  C14 UNL     1      -5.314  13.299   6.599  1.00  0.00     0.009 C
HETATM   23  C19 UNL     1      -3.314  14.763   6.696  1.00  0.00     0.011 C
HETATM   24  C15 UNL     1      -6.106  14.441   6.024  1.00  0.00    -0.013 C
HETATM   25  C17 UNL     1      -5.173  15.341   5.239  1.00  0.00     0.011 C
HETATM   26  C18 UNL     1      -4.111  15.938   6.129  1.00  0.00     0.009 C
ENDBRANCH   3  17
TORSDOF 5
ENDMDL