MODEL 5
REMARK VINA RESULT: -8.035606812      1.805      2.520
REMARK  5 active torsions:
REMARK  status: ('A' for Active; 'I' for Inactive)
REMARK       I    between atoms: C1_2  and  N1_3
REMARK       I    between atoms: C1_2  and  N2_13
REMARK    1  A    between atoms: N1_3  and  C2_5
REMARK    2  A    between atoms: C2_5  and  C3_6
REMARK    3  A    between atoms: C3_6  and  C4_7
REMARK    4  A    between atoms: C4_7  and  C5_8
REMARK    5  A    between atoms: C13_17  and  C14_18
REMARK       I    between atoms: C14_18  and  N3_20
ROOT
HETATM    1  O1  UNL     1      -7.976  17.068   6.936  1.00  0.00    -0.247 OA
HETATM    2  C1  UNL     1      -7.573  18.262   6.719  1.00  0.00     0.318 C
HETATM    3  N1  UNL     1      -6.195  18.443   6.452  1.00  0.00    -0.343 N
ATOM      4  H1  UNL     1      -5.859  19.388   6.270  1.00  0.00     0.164 HD
HETATM    5  N2  UNL     1      -8.484  19.343   6.749  1.00  0.00    -0.333 N
HETATM    6  C10 UNL     1      -8.078  20.707   6.512  1.00  0.00     0.127 C
HETATM    7  C11 UNL     1      -9.305  21.601   6.622  1.00  0.00     0.021 C
HETATM    8  C12 UNL     1     -10.410  21.150   5.725  1.00  0.00     0.017 C
HETATM    9  C13 UNL     1     -10.628  19.673   5.816  1.00  0.00     0.096 C
HETATM   10  C19 UNL     1      -9.882  19.132   7.024  1.00  0.00     0.141 C
ENDROOT
BRANCH   3  11
HETATM   11  C2  UNL     1      -5.240  17.361   6.425  1.00  0.00     0.124 C
BRANCH  11  12
HETATM   12  C3  UNL     1      -4.208  17.463   7.477  1.00  0.00     0.020 C
BRANCH  12  13
HETATM   13  C4  UNL     1      -3.255  18.588   7.450  1.00  0.00     0.006 C
BRANCH  13  14
HETATM   14  C5  UNL     1      -1.921  18.411   6.830  1.00  0.00    -0.014 C
HETATM   15  C6  UNL     1      -1.681  19.006   5.497  1.00  0.00     0.004 C
HETATM   16  C7  UNL     1      -0.899  17.983   4.682  1.00  0.00     0.000 C
HETATM   17  C8  UNL     1      -1.572  16.697   5.138  1.00  0.00     0.000 C
HETATM   18  C9  UNL     1      -1.636  16.928   6.624  1.00  0.00     0.004 C
ENDBRANCH  13  14
ENDBRANCH  12  13
ENDBRANCH  11  12
ENDBRANCH   3  11
BRANCH   9  19
HETATM   19  C14 UNL     1     -12.020  19.234   5.763  1.00  0.00     0.225 C
HETATM   20  O2  UNL     1     -12.921  20.125   5.958  1.00  0.00    -0.273 OA
HETATM   21  N3  UNL     1     -12.478  17.936   5.518  1.00  0.00    -0.352 N
HETATM   22  C15 UNL     1     -11.680  16.764   5.267  1.00  0.00     0.126 C
HETATM   23  C18 UNL     1     -13.893  17.534   5.463  1.00  0.00     0.126 C
HETATM   24  C16 UNL     1     -12.496  15.672   5.966  1.00  0.00     0.021 C
HETATM   25  C17 UNL     1     -13.886  16.043   5.498  1.00  0.00     0.021 C
ENDBRANCH   9  19
TORSDOF 5
ENDMDL