MODEL 5
REMARK VINA RESULT: -7.465167870      2.177      8.474
REMARK  6 active torsions:
REMARK  status: ('A' for Active; 'I' for Inactive)
REMARK    1  A    between atoms: O1_2  and  C2_3
REMARK    2  A    between atoms: C4_5  and  C5_6
REMARK    3  A    between atoms: N1_14  and  C13_15
REMARK    4  A    between atoms: C13_15  and  C14_16
REMARK    5  A    between atoms: C14_16  and  N2_17
REMARK       I    between atoms: N2_17  and  C15_19
REMARK    6  A    between atoms: C15_19  and  C16_21
ROOT
HETATM    1  C2  UNL     1      -9.699  21.518   5.960  1.00  0.00     0.147 C
HETATM    2  C3  UNL     1     -10.889  20.644   6.282  1.00  0.00     0.045 C
HETATM    3  C4  UNL     1     -10.683  19.211   5.951  1.00  0.00    -0.009 C
HETATM    4  C11 UNL     1     -10.304  18.497   7.234  1.00  0.00     0.039 C
HETATM    5  C12 UNL     1      -8.858  18.865   7.381  1.00  0.00     0.238 C
HETATM    6  N1  UNL     1      -8.412  19.433   6.128  1.00  0.00    -0.062 N
HETATM    7  C19 UNL     1      -8.386  20.854   6.259  1.00  0.00     0.269 C
HETATM    8  C20 UNL     1      -9.430  19.083   5.139  1.00  0.00     0.247 C
ENDROOT
BRANCH   6   9
HETATM    9  C13 UNL     1      -7.133  18.842   5.812  1.00  0.00     0.257 C
BRANCH   9  10
HETATM   10  C14 UNL     1      -6.764  17.706   6.701  1.00  0.00     0.150 C
BRANCH  10  11
HETATM   11  N2  UNL     1      -6.490  16.524   5.942  1.00  0.00    -0.359 N
HETATM   12  C15 UNL     1      -5.207  15.973   5.699  1.00  0.00     0.221 C
HETATM   13  O2  UNL     1      -4.147  16.483   6.141  1.00  0.00    -0.273 OA
ATOM     14  H2  UNL     1      -7.290  16.035   5.540  1.00  0.00     0.162 HD
BRANCH  12  15
HETATM   15  C16 UNL     1      -5.068  14.736   4.888  1.00  0.00     0.070 C
HETATM   16  C17 UNL     1      -5.959  13.627   5.407  1.00  0.00     0.019 C
HETATM   17  C18 UNL     1      -3.649  14.241   4.877  1.00  0.00     0.019 C
ENDBRANCH  12  15
ENDBRANCH  10  11
ENDBRANCH   9  10
ENDBRANCH   6   9
BRANCH   1  18
HETATM   18  O1  UNL     1      -9.824  22.678   6.725  1.00  0.00    -0.389 OA
HETATM   19  C1  UNL     1      -8.614  23.036   7.312  1.00  0.00     0.202 C
ENDBRANCH   1  18
BRANCH   3  20
HETATM   20  C5  UNL     1     -11.874  18.518   5.380  1.00  0.00    -0.004 C
HETATM   21  C6  UNL     1     -12.292  17.277   6.155  1.00  0.00     0.005 C
HETATM   22  C7  UNL     1     -13.292  16.554   5.268  1.00  0.00     0.000 C
HETATM   23  C8  UNL     1     -14.540  17.357   5.130  1.00  0.00     0.000 C
HETATM   24  C9  UNL     1     -14.340  18.697   5.770  1.00  0.00     0.000 C
HETATM   25  C10 UNL     1     -13.085  19.374   5.244  1.00  0.00     0.005 C
ENDBRANCH   3  20
TORSDOF 6
ENDMDL