MODEL 3
REMARK VINA RESULT: -6.669825931      2.768      7.073
REMARK  7 active torsions:
REMARK  status: ('A' for Active; 'I' for Inactive)
REMARK    1  A    between atoms: N1_4  and  C4_5
REMARK    2  A    between atoms: C4_5  and  N2_7
REMARK    3  A    between atoms: N2_7  and  C5_9
REMARK    4  A    between atoms: N3_17  and  C14_19
REMARK    5  A    between atoms: C14_19  and  C15_20
REMARK    6  A    between atoms: C15_20  and  C16_21
REMARK    7  A    between atoms: C16_21  and  C17_22
ROOT
HETATM    1  C17 UNL     1     -11.678  16.989   5.997  1.00  0.00     0.124 C
HETATM    2  C18 UNL     1     -12.051  15.673   5.546  1.00  0.00     0.059 C
HETATM    3  N4  UNL     1     -12.356  14.611   5.203  1.00  0.00    -0.197 NA
ENDROOT
BRANCH   1   4
HETATM    4  C16 UNL     1     -12.694  18.042   5.634  1.00  0.00     0.016 C
BRANCH   4   5
HETATM    5  C15 UNL     1     -12.052  19.331   5.187  1.00  0.00     0.029 C
BRANCH   5   6
HETATM    6  C14 UNL     1     -11.493  20.005   6.414  1.00  0.00     0.237 C
BRANCH   6   7
HETATM    7  N3  UNL     1     -10.154  20.526   6.226  1.00  0.00    -0.064 N
HETATM    8  C2  UNL     1      -9.406  20.388   7.452  1.00  0.00     0.204 C
HETATM    9  C1  UNL     1      -9.390  19.021   8.038  1.00  0.00     0.042 C
HETATM   10  C3  UNL     1      -7.966  20.856   7.189  1.00  0.00     0.158 C
HETATM   11  N1  UNL     1      -7.391  19.862   6.306  1.00  0.00    -0.355 N
HETATM   12  C11 UNL     1      -8.224  19.311   5.282  1.00  0.00     0.153 C
HETATM   13  C12 UNL     1      -9.573  19.869   5.111  1.00  0.00     0.257 C
HETATM   14  C13 UNL     1     -10.276  21.960   5.972  1.00  0.00     0.273 C
BRANCH  11  15
HETATM   15  C4  UNL     1      -6.056  19.417   6.401  1.00  0.00     0.170 C
HETATM   16  S1  UNL     1      -4.854  20.501   6.500  1.00  0.00    -0.041 SA
BRANCH  15  17
HETATM   17  N2  UNL     1      -5.731  18.040   6.412  1.00  0.00    -0.363 N
ATOM     18  H2  UNL     1      -5.203  17.654   5.630  1.00  0.00     0.162 HD
BRANCH  17  19
HETATM   19  C5  UNL     1      -6.125  17.156   7.497  1.00  0.00     0.083 C
HETATM   20  C6  UNL     1      -7.036  16.056   7.015  1.00  0.00     0.025 C
HETATM   21  C7  UNL     1      -6.255  14.997   6.290  1.00  0.00     0.002 C
HETATM   22  C8  UNL     1      -5.252  14.385   7.211  1.00  0.00     0.000 C
HETATM   23  C9  UNL     1      -5.199  15.141   8.533  1.00  0.00     0.002 C
HETATM   24  C10 UNL     1      -4.973  16.612   8.275  1.00  0.00     0.025 C
ENDBRANCH  17  19
ENDBRANCH  15  17
ENDBRANCH  11  15
ENDBRANCH   6   7
ENDBRANCH   5   6
ENDBRANCH   4   5
ENDBRANCH   1   4
TORSDOF 7
ENDMDL