MODEL 4
REMARK VINA RESULT: -7.599495041      1.118      1.417
REMARK  6 active torsions:
REMARK  status: ('A' for Active; 'I' for Inactive)
REMARK    1  A    between atoms: O1_2  and  C2_3
REMARK    2  A    between atoms: C2_3  and  C3_5
REMARK    3  A    between atoms: C3_5  and  N1_6
REMARK    4  A    between atoms: C7_10  and  N2_11
REMARK       I    between atoms: N2_11  and  C8_13
REMARK    5  A    between atoms: C8_13  and  C9_15
REMARK    6  A    between atoms: C15_21  and  C16_22
ROOT
HETATM    1  N2  UNL     1      -8.318  18.430   5.999  1.00  0.00    -0.332 N
ATOM      2  H2  UNL     1      -8.829  17.636   6.384  1.00  0.00     0.164 HD
HETATM    3  C8  UNL     1      -6.900  18.392   6.057  1.00  0.00     0.228 C
HETATM    4  O3  UNL     1      -6.307  19.414   5.561  1.00  0.00    -0.273 OA
ENDROOT
BRANCH   3   5
HETATM    5  C9  UNL     1      -6.125  17.348   6.603  1.00  0.00     0.046 C
HETATM    6  C10 UNL     1      -4.669  17.739   6.951  1.00  0.00     0.025 C
HETATM    7  C11 UNL     1      -4.392  16.392   7.659  1.00  0.00    -0.004 C
HETATM    8  C12 UNL     1      -5.441  16.649   8.769  1.00  0.00     0.011 C
HETATM    9  C15 UNL     1      -5.005  15.416   6.730  1.00  0.00    -0.032 C
HETATM   10  C13 UNL     1      -6.618  16.575   7.768  1.00  0.00     0.004 C
HETATM   11  C14 UNL     1      -6.340  15.087   7.433  1.00  0.00     0.016 C
HETATM   12  C19 UNL     1      -5.692  16.239   5.614  1.00  0.00     0.030 C
BRANCH   9  13
HETATM   13  C16 UNL     1      -4.245  14.288   6.278  1.00  0.00    -0.014 C
HETATM   14  C17 UNL     1      -4.896  13.391   5.268  1.00  0.00     0.010 C
HETATM   15  C18 UNL     1      -3.864  13.408   7.467  1.00  0.00     0.010 C
ENDBRANCH   9  13
ENDBRANCH   3   5
BRANCH   1  16
HETATM   16  C7  UNL     1      -9.075  19.496   5.442  1.00  0.00     0.292 C
HETATM   17  N1  UNL     1     -10.433  19.684   5.863  1.00  0.00    -0.041 N
HETATM   18  C4  UNL     1     -10.830  19.245   7.154  1.00  0.00     0.275 C
HETATM   19  C5  UNL     1     -10.183  21.115   5.833  1.00  0.00     0.244 C
HETATM   20  C6  UNL     1      -8.708  20.820   6.030  1.00  0.00     0.083 C
BRANCH  17  21
HETATM   21  C3  UNL     1     -11.420  19.372   4.833  1.00  0.00     0.350 C
BRANCH  21  22
HETATM   22  C2  UNL     1     -12.701  19.015   5.497  1.00  0.00     0.284 C
HETATM   23  O2  UNL     1     -13.458  19.895   5.942  1.00  0.00    -0.263 OA
BRANCH  22  24
HETATM   24  O1  UNL     1     -13.108  17.691   5.650  1.00  0.00    -0.325 OA
HETATM   25  C1  UNL     1     -12.210  16.620   5.635  1.00  0.00     0.213 C
ENDBRANCH  22  24
ENDBRANCH  21  22
ENDBRANCH  17  21
ENDBRANCH   1  16
TORSDOF 6
ENDMDL