MODEL 1
REMARK VINA RESULT: -7.334714522      0.000      0.000
REMARK  6 active torsions:
REMARK  status: ('A' for Active; 'I' for Inactive)
REMARK       I    between atoms: N1_2  and  C2_4
REMARK    1  A    between atoms: C2_4  and  C3_6
REMARK    2  A    between atoms: C3_6  and  C4_7
REMARK    3  A    between atoms: C4_7  and  C5_8
REMARK    4  A    between atoms: N2_11  and  C8_13
REMARK    5  A    between atoms: C8_13  and  C14_22
REMARK       I    between atoms: N3_14  and  C9_16
REMARK    6  A    between atoms: C9_16  and  C10_18
ROOT
HETATM    1  C8  UNL     1      -6.366  18.134   6.824  1.00  0.00     0.088 C
HETATM    2  N3  UNL     1      -7.435  18.725   6.757  1.00  0.00    -0.316 N
ATOM      3  H3  UNL     1      -7.174  19.693   6.568  1.00  0.00     0.170 HD
HETATM    4  C9  UNL     1      -8.780  18.750   6.805  1.00  0.00     0.227 C
HETATM    5  O2  UNL     1      -9.330  18.961   7.961  1.00  0.00    -0.273 OA
ENDROOT
BRANCH   1   6
HETATM    6  N2  UNL     1      -5.150  18.798   6.652  1.00  0.00    -0.344 N
HETATM    7  C3  UNL     1      -4.622  19.892   6.599  1.00  0.00     0.079 C
ATOM      8  H2  UNL     1      -4.424  18.094   6.523  1.00  0.00     0.167 HD
BRANCH   7   9
HETATM    9  C2  UNL     1      -5.228  21.185   6.725  1.00  0.00     0.263 C
HETATM   10  N1  UNL     1      -4.795  22.295   7.473  1.00  0.00    -0.360 N
HETATM   11  C1  UNL     1      -5.507  23.558   7.524  1.00  0.00     0.149 C
ATOM     12  H1  UNL     1      -3.932  22.207   8.010  1.00  0.00     0.162 HD
HETATM   13  O1  UNL     1      -6.326  21.393   6.075  1.00  0.00    -0.266 OA
ENDBRANCH   7   9
BRANCH   7  14
HETATM   14  C4  UNL     1      -3.112  19.883   6.379  1.00  0.00     0.067 C
BRANCH  14  15
HETATM   15  C5  UNL     1      -2.444  18.697   6.971  1.00  0.00    -0.017 C
HETATM   16  C6  UNL     1      -1.211  19.237   7.718  1.00  0.00     0.010 C
HETATM   17  C7  UNL     1      -1.888  17.751   5.926  1.00  0.00     0.010 C
ENDBRANCH  14  15
ENDBRANCH   7  14
ENDBRANCH   1   6
BRANCH   1  18
HETATM   18  C14 UNL     1      -6.300  16.643   7.070  1.00  0.00     0.053 C
HETATM   19  C15 UNL     1      -5.332  16.267   8.138  1.00  0.00     0.012 C
HETATM   20  C16 UNL     1      -5.346  14.743   8.292  1.00  0.00     0.001 C
HETATM   21  C17 UNL     1      -4.877  14.142   7.011  1.00  0.00     0.000 C
HETATM   22  C18 UNL     1      -5.831  14.488   5.886  1.00  0.00     0.001 C
HETATM   23  C19 UNL     1      -6.013  15.982   5.756  1.00  0.00     0.012 C
ENDBRANCH   1  18
BRANCH   4  24
HETATM   24  C10 UNL     1      -9.713  18.561   5.649  1.00  0.00     0.082 A
HETATM   25  C11 UNL     1     -11.194  18.663   5.883  1.00  0.00     0.019 A
HETATM   26  C12 UNL     1     -10.418  19.683   5.037  1.00  0.00    -0.005 A
HETATM   27  C13 UNL     1     -10.436  21.064   5.590  1.00  0.00     0.011 C
ENDBRANCH   4  24
TORSDOF 6
ENDMDL