MODEL 2
REMARK VINA RESULT: -7.054326026      2.388      6.000
REMARK  3 active torsions:
REMARK  status: ('A' for Active; 'I' for Inactive)
REMARK    1  A    between atoms: O1_2  and  C2_3
REMARK    2  A    between atoms: C4_7  and  C5_8
REMARK    3  A    between atoms: C10_13  and  C11_14
ROOT
HETATM    1  C2  UNL     1       2.731  -8.242  -6.541  1.00  0.00     0.076 C
HETATM    2  C3  UNL     1       4.218  -8.261  -6.459  1.00  0.00     0.152 C
HETATM    3  N1  UNL     1       4.728  -9.065  -5.394  1.00  0.00    -0.409 N
ATOM      4  H1  UNL     1       5.289  -9.900  -5.564  1.00  0.00     0.154 HD
HETATM    5  C4  UNL     1       4.404  -8.627  -4.086  1.00  0.00     0.030 C
HETATM    6  C12 UNL     1       3.287  -9.489  -3.558  1.00  0.00     0.036 C
HETATM    7  C13 UNL     1       2.085  -8.889  -4.302  1.00  0.00    -0.005 C
HETATM    8  C14 UNL     1       2.068  -9.347  -5.742  1.00  0.00     0.045 C
HETATM    9  C15 UNL     1       2.343  -7.414  -4.381  1.00  0.00    -0.005 C
HETATM   10  C16 UNL     1       2.175  -7.006  -5.830  1.00  0.00     0.045 C
HETATM   11  C17 UNL     1       3.783  -7.251  -4.022  1.00  0.00     0.036 C
ENDROOT
BRANCH   5  12
HETATM   12  C5  UNL     1       5.639  -8.670  -3.224  1.00  0.00     0.027 C
HETATM   13  C6  UNL     1       5.305  -8.917  -1.770  1.00  0.00     0.008 C
HETATM   14  C7  UNL     1       5.163  -7.664  -0.964  1.00  0.00     0.001 C
HETATM   15  C8  UNL     1       6.365  -6.764  -1.043  1.00  0.00     0.001 C
HETATM   16  C9  UNL     1       7.292  -7.300  -2.083  1.00  0.00     0.016 C
HETATM   17  C10 UNL     1       6.554  -7.505  -3.413  1.00  0.00     0.093 C
BRANCH  17  18
HETATM   18  C11 UNL     1       7.597  -7.814  -4.414  1.00  0.00     0.177 C
HETATM   19  O2  UNL     1       7.429  -7.535  -5.618  1.00  0.00    -0.648 OA
HETATM   20  O3  UNL     1       8.766  -8.417  -4.006  1.00  0.00    -0.648 OA
ENDBRANCH  17  18
ENDBRANCH   5  12
BRANCH   1  21
HETATM   21  O1  UNL     1       2.284  -8.239  -7.857  1.00  0.00    -0.383 OA
HETATM   22  C1  UNL     1       3.300  -7.783  -8.672  1.00  0.00     0.202 C
ENDBRANCH   1  21
TORSDOF 3
ENDMDL