MODEL 2
REMARK VINA RESULT: -7.439104860      0.649      1.461
REMARK  3 active torsions:
REMARK  status: ('A' for Active; 'I' for Inactive)
REMARK    1  A    between atoms: C5_6  and  C6_7
REMARK    2  A    between atoms: C6_7  and  N1_8
REMARK    3  A    between atoms: N2_11  and  C9_12
ROOT
HETATM    1  N1  UNL     1       7.067  -8.179  -1.665  1.00  0.00     0.093 N
HETATM    2  C7  UNL     1       7.221  -8.021  -3.050  1.00  0.00     0.291 C
HETATM    3  C8  UNL     1       6.081  -8.389  -3.928  1.00  0.00     0.147 C
HETATM    4  N2  UNL     1       4.809  -8.403  -3.291  1.00  0.00    -0.405 N
HETATM    5  C16 UNL     1       4.844  -7.518  -2.171  1.00  0.00     0.147 C
HETATM    6  C17 UNL     1       5.740  -8.239  -1.153  1.00  0.00     0.291 C
ENDROOT
BRANCH   1   7
HETATM    7  C6  UNL     1       7.811  -7.231  -0.861  1.00  0.00     0.297 C
BRANCH   7   8
HETATM    8  C5  UNL     1       7.780  -7.576   0.614  1.00  0.00     0.112 C
HETATM    9  C4  UNL     1       7.823  -6.342   1.451  1.00  0.00     0.027 C
HETATM   10  C3  UNL     1       8.311  -6.517   2.847  1.00  0.00     0.011 C
HETATM   11  C2  UNL     1       8.474  -7.945   3.289  1.00  0.00     0.103 C
HETATM   12  C1  UNL     1       9.272  -8.640   2.252  1.00  0.00     0.217 C
HETATM   13  O1  UNL     1      10.276  -9.322   2.543  1.00  0.00    -0.274 OA
HETATM   14  N3  UNL     1       8.855  -8.504   0.905  1.00  0.00    -0.355 N
ATOM     15  H3  UNL     1       9.299  -9.043   0.162  1.00  0.00     0.162 HD
ENDBRANCH   7   8
ENDBRANCH   1   7
BRANCH   4  16
HETATM   16  C9  UNL     1       3.666  -8.394  -4.105  1.00  0.00     0.079 C
HETATM   17  C10 UNL     1       4.071  -8.782  -5.514  1.00  0.00     0.025 C
HETATM   18  C11 UNL     1       3.311  -8.011  -6.569  1.00  0.00     0.002 C
HETATM   19  C12 UNL     1       1.947  -8.627  -6.820  1.00  0.00     0.000 C
HETATM   20  C13 UNL     1       1.138  -8.394  -5.558  1.00  0.00     0.000 C
HETATM   21  C14 UNL     1       1.451  -9.490  -4.592  1.00  0.00     0.002 C
HETATM   22  C15 UNL     1       2.500  -9.172  -3.587  1.00  0.00     0.025 C
ENDBRANCH   4  16
TORSDOF 3
ENDMDL