MODEL 1
REMARK VINA RESULT: -7.458782748      0.000      0.000
REMARK  4 active torsions:
REMARK  status: ('A' for Active; 'I' for Inactive)
REMARK    1  A    between atoms: N2_5  and  C4_6
REMARK    2  A    between atoms: N3_7  and  C5_9
REMARK    3  A    between atoms: C5_9  and  N4_11
REMARK    4  A    between atoms: N4_11  and  N5_13
ROOT
HETATM    1  C5  UNL     1       5.109  -7.851  -1.210  1.00  0.00     0.191 C
HETATM    2  S1  UNL     1       5.865  -6.466  -1.566  1.00  0.00    -0.039 SA
ENDROOT
BRANCH   1   3
HETATM    3  N3  UNL     1       4.792  -8.137   0.139  1.00  0.00    -0.328 N
HETATM    4  C4  UNL     1       5.667  -8.409   1.042  1.00  0.00     0.180 C
ATOM      5  H3  UNL     1       3.809  -8.126   0.412  1.00  0.00     0.169 HD
BRANCH   4   6
HETATM    6  N2  UNL     1       7.043  -8.435   0.711  1.00  0.00    -0.374 N
HETATM    7  C3  UNL     1       7.889  -7.332   1.117  1.00  0.00     0.154 C
HETATM    8  C2  UNL     1       9.317  -7.781   1.030  1.00  0.00     0.291 C
HETATM    9  N1  UNL     1       9.638  -8.128  -0.316  1.00  0.00     0.087 N
HETATM   10  C1  UNL     1      11.008  -8.485  -0.516  1.00  0.00     0.310 C
HETATM   11  C14 UNL     1       8.698  -8.986  -0.957  1.00  0.00     0.291 C
HETATM   12  C13 UNL     1       7.640  -9.528  -0.024  1.00  0.00     0.154 C
ENDBRANCH   4   6
ENDBRANCH   1   3
BRANCH   1  13
HETATM   13  N4  UNL     1       4.749  -8.794  -2.206  1.00  0.00    -0.276 N
ATOM     14  H4  UNL     1       5.476  -9.382  -2.613  1.00  0.00     0.189 HD
BRANCH  13  15
HETATM   15  N5  UNL     1       3.449  -8.944  -2.644  1.00  0.00    -0.307 N
HETATM   16  C6  UNL     1       3.102  -9.315  -3.829  1.00  0.00     0.004 C
HETATM   17  C7  UNL     1       4.134  -9.612  -4.827  1.00  0.00     0.054 C
HETATM   18  C12 UNL     1       1.630  -9.386  -4.005  1.00  0.00     0.054 C
HETATM   19  C8  UNL     1       4.428  -8.437  -5.733  1.00  0.00     0.006 C
HETATM   20  C9  UNL     1       3.196  -7.821  -6.319  1.00  0.00     0.000 C
HETATM   21  C10 UNL     1       2.026  -8.756  -6.401  1.00  0.00     0.000 C
HETATM   22  C11 UNL     1       1.136  -8.611  -5.187  1.00  0.00     0.006 C
ATOM     23  H5  UNL     1       2.704  -8.745  -1.977  1.00  0.00     0.186 HD
ENDBRANCH  13  15
ENDBRANCH   1  13
TORSDOF 4
ENDMDL