MODEL 5
REMARK VINA RESULT: -6.142471189      3.527      5.930
REMARK  4 active torsions:
REMARK  status: ('A' for Active; 'I' for Inactive)
REMARK    1  A    between atoms: C10_11  and  O1_12
REMARK    2  A    between atoms: C14_17  and  N2_18
REMARK    3  A    between atoms: N2_18  and  N3_20
REMARK    4  A    between atoms: N3_20  and  N4_21
ROOT
HETATM    1  C1  UNL     1       6.290  -5.908  -1.639  1.00  0.00     0.018 C
HETATM    2  C2  UNL     1       6.692  -7.265  -1.018  1.00  0.00    -0.016 C
HETATM    3  C3  UNL     1       7.347  -8.111  -2.055  1.00  0.00     0.012 C
HETATM    4  C4  UNL     1       8.793  -8.359  -1.885  1.00  0.00     0.008 C
HETATM    5  C5  UNL     1       9.317  -8.538  -0.521  1.00  0.00     0.025 C
HETATM    6  C6  UNL     1       8.510  -7.966   0.589  1.00  0.00     0.229 C
HETATM    7  C7  UNL     1       7.594  -6.890   0.129  1.00  0.00     0.048 C
HETATM    8  N1  UNL     1       7.914  -9.024   1.326  1.00  0.00     0.103 N
HETATM    9  C8  UNL     1       6.748  -9.628   0.756  1.00  0.00     0.276 C
HETATM   10  C9  UNL     1       5.552  -8.787   0.656  1.00  0.00     0.062 C
HETATM   11  C10 UNL     1       5.434  -7.819  -0.451  1.00  0.00     0.128 C
HETATM   12  C11 UNL     1       8.964 -10.033   1.333  1.00  0.00     0.162 C
HETATM   13  C12 UNL     1       8.453 -11.407   1.597  1.00  0.00     0.049 C
HETATM   14  C13 UNL     1      10.105  -9.709   2.224  1.00  0.00     0.069 C
HETATM   15  C14 UNL     1      11.347 -10.060   1.429  1.00  0.00     0.117 C
HETATM   16  C15 UNL     1      10.901 -10.416   0.041  1.00  0.00     0.035 C
HETATM   17  C16 UNL     1       9.471  -9.994  -0.099  1.00  0.00     0.032 C
ENDROOT
BRANCH  15  18
HETATM   18  N2  UNL     1      12.049 -11.205   2.009  1.00  0.00    -0.248 N
ATOM     19  H2  UNL     1      12.789 -11.021   2.688  1.00  0.00     0.197 HD
BRANCH  18  20
HETATM   20  N3  UNL     1      11.803 -12.358   1.732  1.00  0.00    -0.248 NA
BRANCH  20  21
HETATM   21  N4  UNL     1      11.472 -13.544   1.675  1.00  0.00    -0.261 N
ATOM     22  H42 UNL     1      10.578 -13.312   2.107  1.00  0.00     0.193 HD
ATOM     23  H41 UNL     1      11.378 -14.552   1.546  1.00  0.00     0.193 HD
ENDBRANCH  20  21
ENDBRANCH  18  20
ENDBRANCH  15  18
BRANCH  11  24
HETATM   24  O1  UNL     1       4.570  -8.267  -1.478  1.00  0.00    -0.395 OA
ATOM     25  H1  UNL     1       4.196  -9.114  -1.263  1.00  0.00     0.210 HD
ENDBRANCH  11  24
TORSDOF 4
ENDMDL