MODEL 2
REMARK VINA RESULT: -7.274463923      3.751      5.867
REMARK  3 active torsions:
REMARK  status: ('A' for Active; 'I' for Inactive)
REMARK    1  A    between atoms: C4_4  and  N1_5
REMARK    2  A    between atoms: N1_5  and  C5_8
REMARK    3  A    between atoms: N2_22  and  O2_23
ROOT
HETATM    1  C5  UNL     1       6.569  -6.852   1.199  1.00  0.00     0.217 C
HETATM    2  C6  UNL     1       6.721  -8.278   1.719  1.00  0.00     0.002 C
HETATM    3  C7  UNL     1       6.205  -9.417   1.007  1.00  0.00    -0.028 C
HETATM    4  C8  UNL     1       6.335  -9.711  -0.434  1.00  0.00     0.031 C
HETATM    5  C9  UNL     1       5.600  -8.838  -1.383  1.00  0.00    -0.010 C
HETATM    6  C10 UNL     1       6.253  -8.247  -2.547  1.00  0.00     0.009 C
HETATM    7  C11 UNL     1       7.049  -7.012  -2.431  1.00  0.00    -0.013 C
HETATM    8  C12 UNL     1       8.373  -7.536  -1.872  1.00  0.00     0.005 C
HETATM    9  C13 UNL     1       7.993  -7.491  -0.424  1.00  0.00     0.012 C
HETATM   10  C14 UNL     1       6.626  -7.046  -0.233  1.00  0.00    -0.008 C
HETATM   11  C15 UNL     1       5.346  -7.641  -0.528  1.00  0.00     0.016 C
HETATM   12  C16 UNL     1       6.709  -6.036  -1.301  1.00  0.00     0.016 C
ENDROOT
BRANCH   1  13
HETATM   13  N1  UNL     1       7.589  -6.012   1.774  1.00  0.00    -0.059 N
ATOM     14  H12 UNL     1       7.359  -5.027   1.638  1.00  0.00     0.278 HD
ATOM     15  H11 UNL     1       8.448  -6.066   1.226  1.00  0.00     0.278 HD
BRANCH  13  16
HETATM   16  C4  UNL     1       7.856  -6.279   3.158  1.00  0.00     0.238 C
HETATM   17  C2  UNL     1       9.335  -6.022   3.430  1.00  0.00     0.089 C
HETATM   18  C1  UNL     1       9.674  -6.117   4.892  1.00  0.00     0.039 C
HETATM   19  C3  UNL     1      10.241  -6.799   2.539  1.00  0.00     0.039 C
HETATM   20  N2  UNL     1       9.316  -4.591   3.120  1.00  0.00    -0.060 NA
HETATM   21  O1  UNL     1       8.268  -4.098   3.792  1.00  0.00    -0.276 OA
HETATM   22  C17 UNL     1       7.321  -5.088   3.947  1.00  0.00     0.231 C
BRANCH  20  23
HETATM   23  O2  UNL     1      10.492  -4.035   3.440  1.00  0.00    -0.288 OA
ATOM     24  H2  UNL     1      10.812  -3.511   2.716  1.00  0.00     0.239 HD
ENDBRANCH  20  23
ENDBRANCH  13  16
ENDBRANCH   1  13
TORSDOF 3
ENDMDL