MODEL 5
REMARK VINA RESULT: -6.525877974      4.183      7.196
REMARK  2 active torsions:
REMARK  status: ('A' for Active; 'I' for Inactive)
REMARK       I    between atoms: N2_7  and  C6_8
REMARK       I    between atoms: C6_8  and  N3_10
REMARK    1  A    between atoms: N3_10  and  C7_12
REMARK    2  A    between atoms: C12_17  and  N4_18
ROOT
HETATM    1  N1  UNL     1       5.797  -8.071 -12.220  1.00  0.00    -0.195 NA
HETATM    2  C1  UNL     1       5.241  -7.419 -11.450  1.00  0.00     0.085 C
HETATM    3  C2  UNL     1       4.542  -6.620 -10.475  1.00  0.00     0.196 C
HETATM    4  C3  UNL     1       3.263  -6.015 -11.065  1.00  0.00     0.042 C
HETATM    5  C4  UNL     1       2.331  -7.209 -11.036  1.00  0.00     0.023 C
HETATM    6  C5  UNL     1       2.902  -8.156  -9.990  1.00  0.00     0.129 C
HETATM    7  N2  UNL     1       3.990  -7.388  -9.379  1.00  0.00    -0.317 N
HETATM    8  C6  UNL     1       4.436  -7.362  -8.058  1.00  0.00     0.319 C
HETATM    9  O1  UNL     1       5.398  -6.619  -7.748  1.00  0.00    -0.247 OA
HETATM   10  N3  UNL     1       3.867  -8.134  -6.999  1.00  0.00    -0.336 N
ATOM     11  H3  UNL     1       3.082  -8.746  -7.223  1.00  0.00     0.164 HD
ENDROOT
BRANCH  10  12
HETATM   12  C7  UNL     1       4.324  -8.105  -5.655  1.00  0.00     0.119 C
HETATM   13  C8  UNL     1       5.407  -9.137  -5.454  1.00  0.00     0.027 C
HETATM   14  C9  UNL     1       6.103  -8.801  -4.125  1.00  0.00     0.002 C
HETATM   15  C10 UNL     1       5.043  -9.003  -3.063  1.00  0.00     0.002 C
HETATM   16  C11 UNL     1       4.017  -7.879  -3.266  1.00  0.00     0.038 C
HETATM   17  C12 UNL     1       3.293  -8.115  -4.583  1.00  0.00     0.245 C
BRANCH  17  18
HETATM   18  N4  UNL     1       2.512  -9.293  -4.431  1.00  0.00     0.095 N
HETATM   19  C13 UNL     1       1.828  -9.163  -3.136  1.00  0.00     0.273 C
HETATM   20  C14 UNL     1       0.498  -9.822  -3.256  1.00  0.00     0.032 C
HETATM   21  C15 UNL     1       0.277 -10.093  -4.701  1.00  0.00     0.032 C
HETATM   22  C16 UNL     1       1.494  -9.522  -5.401  1.00  0.00     0.273 C
ENDBRANCH  17  18
ENDBRANCH  10  12
TORSDOF 2
ENDMDL