MODEL 3
REMARK VINA RESULT: -6.872372221      1.300      1.529
REMARK  2 active torsions:
REMARK  status: ('A' for Active; 'I' for Inactive)
REMARK    1  A    between atoms: C6_7  and  C7_8
REMARK    2  A    between atoms: C7_8  and  N1_9
REMARK       I    between atoms: N1_9  and  C8_11
REMARK       I    between atoms: C8_11  and  N2_13
ROOT
HETATM    1  C1  UNL     1      10.764  -7.421   2.111  1.00  0.00     0.016 C
HETATM    2  C2  UNL     1       9.502  -8.051   1.560  1.00  0.00    -0.034 C
HETATM    3  C3  UNL     1       8.962  -9.101   2.512  1.00  0.00     0.083 C
HETATM    4  S1  UNL     1       7.899 -10.043   1.335  1.00  0.00    -0.163 SA
HETATM    5  C4  UNL     1       8.526  -9.291  -0.200  1.00  0.00     0.058 C
HETATM    6  C5  UNL     1       9.829  -8.753   0.262  1.00  0.00     0.026 C
HETATM    7  C6  UNL     1       7.507  -8.267  -0.628  1.00  0.00    -0.008 C
HETATM    8  C12 UNL     1       7.902  -7.052  -1.330  1.00  0.00     0.013 C
HETATM    9  C13 UNL     1       6.929  -6.275  -0.404  1.00  0.00     0.006 C
HETATM   10  C14 UNL     1       7.259  -7.355   0.607  1.00  0.00    -0.003 C
HETATM   11  C15 UNL     1       8.507  -6.980   1.322  1.00  0.00     0.015 C
ENDROOT
BRANCH   7  12
HETATM   12  C7  UNL     1       6.221  -8.958  -0.933  1.00  0.00     0.135 C
BRANCH  12  13
HETATM   13  N1  UNL     1       5.814  -8.881  -2.287  1.00  0.00    -0.342 N
HETATM   14  C8  UNL     1       4.543  -8.854  -2.882  1.00  0.00     0.320 C
HETATM   15  O1  UNL     1       3.436  -8.898  -2.300  1.00  0.00    -0.247 OA
HETATM   16  N2  UNL     1       4.469  -8.765  -4.311  1.00  0.00    -0.311 N
HETATM   17  C9  UNL     1       3.264  -8.724  -5.109  1.00  0.00     0.156 C
HETATM   18  C11 UNL     1       5.576  -8.699  -5.232  1.00  0.00     0.297 C
HETATM   19  C10 UNL     1       3.780  -8.149  -6.411  1.00  0.00     0.190 C
HETATM   20  O2  UNL     1       5.035  -8.789  -6.486  1.00  0.00    -0.370 OA
ATOM     21  H1  UNL     1       6.585  -8.838  -2.953  1.00  0.00     0.164 HD
ENDBRANCH  12  13
ENDBRANCH   7  12
TORSDOF 2
ENDMDL