MODEL 3
REMARK VINA RESULT: -7.211251944      2.127      5.705
REMARK  2 active torsions:
REMARK  status: ('A' for Active; 'I' for Inactive)
REMARK    1  A    between atoms: N2_12  and  C9_13
REMARK    2  A    between atoms: C9_13  and  C10_14
ROOT
HETATM    1  C1  UNL     1       5.559  -6.962  -1.270  1.00  0.00     0.008 C
HETATM    2  C2  UNL     1       6.643  -6.568  -1.924  1.00  0.00    -0.017 C
HETATM    3  C3  UNL     1       7.288  -7.747  -2.598  1.00  0.00    -0.008 C
HETATM    4  C4  UNL     1       7.801  -7.262  -3.911  1.00  0.00     0.042 C
HETATM    5  C5  UNL     1       8.734  -8.203  -4.600  1.00  0.00     0.233 C
HETATM    6  N1  UNL     1       9.675  -8.841  -3.730  1.00  0.00    -0.075 N
ATOM      7  H11 UNL     1      10.580  -8.991  -4.175  1.00  0.00     0.277 HD
ATOM      8  H12 UNL     1       9.443  -9.817  -3.551  1.00  0.00     0.277 HD
HETATM    9  C6  UNL     1       9.773  -8.066  -2.524  1.00  0.00     0.239 C
HETATM   10  C7  UNL     1       8.447  -8.268  -1.780  1.00  0.00     0.041 C
HETATM   11  C8  UNL     1       8.506  -7.715  -0.397  1.00  0.00     0.124 C
HETATM   12  N2  UNL     1       7.919  -8.557   0.605  1.00  0.00    -0.411 N
HETATM   13  C13 UNL     1       6.517  -8.456   0.786  1.00  0.00     0.120 C
HETATM   14  C14 UNL     1       5.699  -9.215  -0.235  1.00  0.00     0.062 C
HETATM   15  C15 UNL     1       5.366  -8.419  -1.438  1.00  0.00     0.084 C
HETATM   16  O1  UNL     1       4.046  -8.589  -1.886  1.00  0.00    -0.376 OA
HETATM   17  C16 UNL     1       4.062  -8.145  -3.217  1.00  0.00     0.169 C
HETATM   18  C17 UNL     1       5.298  -8.806  -3.764  1.00  0.00     0.035 C
HETATM   19  C18 UNL     1       6.239  -8.770  -2.642  1.00  0.00     0.039 C
ENDROOT
BRANCH  12  20
HETATM   20  C9  UNL     1       8.703  -8.625   1.794  1.00  0.00     0.121 C
BRANCH  20  21
HETATM   21  C10 UNL     1       8.911 -10.063   2.195  1.00  0.00     0.003 A
HETATM   22  C11 UNL     1      10.239 -10.706   1.916  1.00  0.00     0.007 A
HETATM   23  C12 UNL     1       9.017 -11.155   1.211  1.00  0.00     0.007 A
ENDBRANCH  20  21
ENDBRANCH  12  20
TORSDOF 2
ENDMDL