MODEL 1
REMARK VINA RESULT: -7.636882859      0.000      0.000
REMARK  3 active torsions:
REMARK  status: ('A' for Active; 'I' for Inactive)
REMARK    1  A    between atoms: O1_1  and  C1_3
REMARK    2  A    between atoms: C7_9  and  N1_10
REMARK    3  A    between atoms: N2_13  and  C10_14
ROOT
HETATM    1  C1  UNL     1       7.087  -6.844   0.530  1.00  0.00     0.059 C
HETATM    2  C2  UNL     1       8.347  -7.561   0.925  1.00  0.00     0.042 C
HETATM    3  C3  UNL     1       8.611  -8.665  -0.094  1.00  0.00    -0.011 C
HETATM    4  C4  UNL     1       8.826  -7.989  -1.416  1.00  0.00     0.011 C
HETATM    5  C5  UNL     1       7.521  -7.315  -1.881  1.00  0.00     0.012 C
HETATM    6  C6  UNL     1       7.263  -6.246  -0.862  1.00  0.00     0.044 C
HETATM    7  C7  UNL     1       6.501  -8.413  -1.934  1.00  0.00     0.087 C
HETATM    8  C16 UNL     1       6.175  -8.872  -0.551  1.00  0.00     0.012 C
HETATM    9  C17 UNL     1       7.439  -9.590  -0.043  1.00  0.00     0.011 C
HETATM   10  C18 UNL     1       5.934  -7.789   0.449  1.00  0.00     0.044 C
ENDROOT
BRANCH   7  11
HETATM   11  N1  UNL     1       5.432  -8.225  -2.823  1.00  0.00    -0.404 N
HETATM   12  C8  UNL     1       4.161  -8.750  -2.579  1.00  0.00     0.147 C
HETATM   13  C9  UNL     1       3.259  -8.308  -3.752  1.00  0.00     0.292 C
HETATM   14  N2  UNL     1       3.542  -9.172  -4.845  1.00  0.00     0.096 N
HETATM   15  C14 UNL     1       4.934  -9.474  -4.879  1.00  0.00     0.292 C
HETATM   16  C15 UNL     1       5.803  -8.449  -4.198  1.00  0.00     0.147 C
BRANCH  14  17
HETATM   17  C10 UNL     1       2.998  -8.754  -6.104  1.00  0.00     0.223 C
HETATM   18  C11 UNL     1       3.923  -8.068  -7.047  1.00  0.00     0.036 C
HETATM   19  C12 UNL     1       2.810  -7.046  -7.301  1.00  0.00     0.004 C
HETATM   20  C13 UNL     1       2.281  -7.408  -5.922  1.00  0.00     0.036 C
ENDBRANCH  14  17
ENDBRANCH   7  11
BRANCH   1  21
HETATM   21  O1  UNL     1       6.778  -5.847   1.434  1.00  0.00    -0.390 OA
ATOM     22  H1  UNL     1       6.997  -4.990   1.086  1.00  0.00     0.210 HD
ENDBRANCH   1  21
TORSDOF 3
ENDMDL