MODEL 2
REMARK VINA RESULT: -6.362252866      0.846      1.245
REMARK  14 active torsions:
REMARK  status: ('A' for Active; 'I' for Inactive)
REMARK    1  A    between atoms: C2_2  and  C3_3
REMARK    2  A    between atoms: C3_3  and  C4_5
REMARK    3  A    between atoms: C4_5  and  O3_7
REMARK    4  A    between atoms: O3_7  and  C5_8
REMARK    5  A    between atoms: C6_9  and  O4_10
REMARK    6  A    between atoms: C12_16  and  O5_17
REMARK    7  A    between atoms: C15_20  and  O6_21
REMARK    8  A    between atoms: C18_26  and  O8_27
REMARK    9  A    between atoms: O8_27  and  C19_28
REMARK   10  A    between atoms: C19_28  and  O9_30
REMARK   11  A    between atoms: C19_28  and  C21_32
REMARK   12  A    between atoms: C21_32  and  O10_33
REMARK   13  A    between atoms: C21_32  and  O11_35
REMARK   14  A    between atoms: C21_32  and  C22_37
ROOT
HETATM    1  C5  UNL     1     -34.120  10.394 -23.573  1.00  0.00     0.196 C
HETATM    2  C6  UNL     1     -33.459  10.824 -24.914  1.00  0.00     0.158 C
HETATM    3  C8  UNL     1     -33.010   9.664 -25.734  1.00  0.00     0.029 C
HETATM    4  C9  UNL     1     -33.977   8.654 -26.161  1.00  0.00     0.001 C
HETATM    5  C10 UNL     1     -35.313   8.803 -25.607  1.00  0.00     0.009 C
HETATM    6  C11 UNL     1     -35.173   8.331 -24.138  1.00  0.00     0.042 C
HETATM    7  C12 UNL     1     -34.039   8.911 -23.387  1.00  0.00     0.096 C
HETATM    8  C14 UNL     1     -32.645   8.537 -23.648  1.00  0.00     0.062 C
HETATM    9  C15 UNL     1     -32.144   7.165 -23.909  1.00  0.00     0.160 C
HETATM   10  C16 UNL     1     -31.598   7.612 -25.282  1.00  0.00     0.091 C
HETATM   11  C17 UNL     1     -30.062   7.460 -25.225  1.00  0.00     0.049 C
HETATM   12  O7  UNL     1     -32.051   7.040 -26.387  1.00  0.00    -0.347 OA
HETATM   13  C18 UNL     1     -32.255   7.783 -27.557  1.00  0.00     0.269 C
HETATM   14  C25 UNL     1     -33.682   8.376 -27.602  1.00  0.00     0.042 C
HETATM   15  C26 UNL     1     -33.778   9.573 -28.489  1.00  0.00     0.015 C
HETATM   16  C27 UNL     1     -31.970   8.969 -24.900  1.00  0.00     0.039 C
ENDROOT
BRANCH  13  17
HETATM   17  O8  UNL     1     -32.231   6.951 -28.645  1.00  0.00    -0.320 OA
BRANCH  17  18
HETATM   18  C19 UNL     1     -31.144   6.863 -29.433  1.00  0.00     0.218 C
HETATM   19  C20 UNL     1     -31.311   7.004 -30.904  1.00  0.00     0.085 C
BRANCH  18  20
HETATM   20  O9  UNL     1     -30.196   7.788 -28.929  1.00  0.00    -0.361 OA
ATOM     21  H9  UNL     1     -29.545   7.912 -29.608  1.00  0.00     0.213 HD
ENDBRANCH  18  20
BRANCH  18  22
HETATM   22  C21 UNL     1     -30.507   5.506 -29.089  1.00  0.00     0.220 C
BRANCH  22  23
HETATM   23  O10 UNL     1     -30.543   4.684 -30.220  1.00  0.00    -0.361 OA
ATOM     24  H10 UNL     1     -30.715   5.217 -30.987  1.00  0.00     0.213 HD
ENDBRANCH  22  23
BRANCH  22  25
HETATM   25  O11 UNL     1     -31.289   4.848 -28.132  1.00  0.00    -0.361 OA
ATOM     26  H11 UNL     1     -31.841   4.204 -28.560  1.00  0.00     0.213 HD
ENDBRANCH  22  25
BRANCH  22  27
HETATM   27  C22 UNL     1     -29.121   5.586 -28.617  1.00  0.00     0.045 C
HETATM   28  C23 UNL     1     -28.242   5.060 -29.769  1.00  0.00     0.015 C
HETATM   29  C24 UNL     1     -28.748   4.801 -27.415  1.00  0.00     0.015 C
ENDBRANCH  22  27
ENDBRANCH  18  22
ENDBRANCH  17  18
ENDBRANCH  13  17
BRANCH   9  30
HETATM   30  O6  UNL     1     -31.165   6.675 -23.040  1.00  0.00    -0.392 OA
ATOM     31  H6  UNL     1     -31.333   6.770 -22.110  1.00  0.00     0.210 HD
ENDBRANCH   9  30
BRANCH   2  32
HETATM   32  O4  UNL     1     -34.245  11.738 -25.578  1.00  0.00    -0.388 OA
HETATM   33  C7  UNL     1     -33.524  12.653 -26.329  1.00  0.00     0.202 C
ENDBRANCH   2  32
BRANCH   7  34
HETATM   34  O5  UNL     1     -34.237   8.596 -22.068  1.00  0.00    -0.382 OA
HETATM   35  C13 UNL     1     -33.518   8.962 -21.046  1.00  0.00     0.202 C
ENDBRANCH   7  34
BRANCH   1  36
HETATM   36  O3  UNL     1     -35.445  10.915 -23.596  1.00  0.00    -0.304 OA
BRANCH  36  37
HETATM   37  C4  UNL     1     -36.060  11.459 -22.489  1.00  0.00     0.329 C
HETATM   38  O2  UNL     1     -37.159  10.905 -22.140  1.00  0.00    -0.256 OA
BRANCH  37  39
HETATM   39  C3  UNL     1     -35.535  12.583 -21.738  1.00  0.00     0.223 C
HETATM   40  O1  UNL     1     -35.157  12.412 -20.563  1.00  0.00    -0.287 OA
BRANCH  39  41
HETATM   41  C2  UNL     1     -35.458  13.911 -22.375  1.00  0.00     0.085 C
HETATM   42  C1  UNL     1     -34.086  14.171 -22.992  1.00  0.00     0.013 C
ENDBRANCH  39  41
ENDBRANCH  37  39
ENDBRANCH  36  37
ENDBRANCH   1  36
TORSDOF 14
ENDMDL