MODEL 2
REMARK VINA RESULT: -6.975714938      1.571      2.951
REMARK  15 active torsions:
REMARK  status: ('A' for Active; 'I' for Inactive)
REMARK    1  A    between atoms: C3_3  and  C5_5
REMARK    2  A    between atoms: C5_5  and  O2_7
REMARK    3  A    between atoms: O2_7  and  C6_8
REMARK    4  A    between atoms: C8_10  and  O3_11
REMARK    5  A    between atoms: C8_10  and  C9_13
REMARK    6  A    between atoms: C9_13  and  O4_14
REMARK    7  A    between atoms: O4_14  and  C10_15
REMARK    8  A    between atoms: C10_15  and  C11_17
REMARK    9  A    between atoms: C11_17  and  N1_18
REMARK   10  A    between atoms: C11_17  and  C14_23
REMARK       I    between atoms: N1_18  and  C12_20
REMARK   11  A    between atoms: C16_26  and  N2_27
REMARK   12  A    between atoms: C18_33  and  O7_34
REMARK   13  A    between atoms: O7_34  and  C19_35
REMARK   14  A    between atoms: C21_38  and  O9_39
REMARK   15  A    between atoms: O9_39  and  C22_40
ROOT
HETATM    1  C6  UNL     1     -32.063   8.420 -26.317  1.00  0.00     0.167 C
HETATM    2  C7  UNL     1     -32.781   8.045 -25.056  1.00  0.00     0.075 C
HETATM    3  C8  UNL     1     -32.011   7.121 -24.169  1.00  0.00     0.085 C
HETATM    4  C17 UNL     1     -30.557   7.025 -24.454  1.00  0.00     0.075 C
HETATM    5  C18 UNL     1     -30.115   7.071 -25.866  1.00  0.00     0.166 C
HETATM    6  C21 UNL     1     -31.285   7.231 -26.781  1.00  0.00     0.191 C
ENDROOT
BRANCH   3   7
HETATM    7  O3  UNL     1     -32.597   5.847 -24.188  1.00  0.00    -0.387 OA
ATOM      8  H3  UNL     1     -33.334   5.842 -24.788  1.00  0.00     0.210 HD
ENDBRANCH   3   7
BRANCH   3   9
HETATM    9  C9  UNL     1     -32.150   7.631 -22.748  1.00  0.00     0.216 C
BRANCH   9  10
HETATM   10  O4  UNL     1     -32.973   8.778 -22.681  1.00  0.00    -0.317 OA
BRANCH  10  11
HETATM   11  C10 UNL     1     -33.900   8.978 -21.683  1.00  0.00     0.287 C
HETATM   12  O5  UNL     1     -33.464   8.968 -20.495  1.00  0.00    -0.262 OA
BRANCH  11  13
HETATM   13  C11 UNL     1     -35.346   9.195 -21.947  1.00  0.00     0.235 C
BRANCH  13  14
HETATM   14  N1  UNL     1     -35.578   9.628 -23.301  1.00  0.00    -0.343 N
HETATM   15  C12 UNL     1     -36.257   8.819 -24.264  1.00  0.00     0.214 C
HETATM   16  C13 UNL     1     -36.473   9.306 -25.649  1.00  0.00     0.117 C
HETATM   17  O6  UNL     1     -36.696   7.674 -23.985  1.00  0.00    -0.274 OA
ATOM     18  H1  UNL     1     -35.243  10.549 -23.584  1.00  0.00     0.163 HD
ENDBRANCH  13  14
BRANCH  13  19
HETATM   19  C14 UNL     1     -35.903  10.225 -20.969  1.00  0.00     0.050 A
HETATM   20  C15 UNL     1     -36.983   9.938 -20.178  1.00  0.00     0.081 A
HETATM   21  S1  UNL     1     -37.186  11.386 -19.304  1.00  0.00    -0.064 SA
HETATM   22  C16 UNL     1     -35.901  12.268 -19.986  1.00  0.00     0.142 A
HETATM   23  N3  UNL     1     -35.365  11.418 -20.857  1.00  0.00    -0.338 N
ATOM     24  H3  UNL     1     -34.559  11.684 -21.422  1.00  0.00     0.168 HD
BRANCH  22  25
HETATM   25  N2  UNL     1     -35.503  13.497 -19.736  1.00  0.00    -0.380 N
ATOM     26  H22 UNL     1     -36.017  14.215 -19.224  1.00  0.00     0.158 HD
ATOM     27  H21 UNL     1     -34.633  13.963 -19.995  1.00  0.00     0.158 HD
ENDBRANCH  22  25
ENDBRANCH  13  19
ENDBRANCH  11  13
ENDBRANCH  10  11
ENDBRANCH   9  10
ENDBRANCH   3   9
BRANCH   1  28
HETATM   28  O2  UNL     1     -31.178   9.498 -25.966  1.00  0.00    -0.309 OA
BRANCH  28  29
HETATM   29  C5  UNL     1     -31.237  10.703 -26.656  1.00  0.00     0.289 C
HETATM   30  O1  UNL     1     -30.205  11.425 -26.628  1.00  0.00    -0.260 OA
BRANCH  29  31
HETATM   31  C3  UNL     1     -32.411  11.136 -27.381  1.00  0.00     0.009 C
HETATM   32  C2  UNL     1     -33.472  11.672 -26.846  1.00  0.00    -0.018 C
HETATM   33  C1  UNL     1     -33.674  11.930 -25.419  1.00  0.00     0.036 C
HETATM   34  C4  UNL     1     -32.394  10.951 -28.878  1.00  0.00     0.054 C
ENDBRANCH  29  31
ENDBRANCH  28  29
ENDBRANCH   1  28
BRANCH   5  35
HETATM   35  O7  UNL     1     -29.315   5.946 -26.204  1.00  0.00    -0.314 OA
BRANCH  35  36
HETATM   36  C19 UNL     1     -29.813   4.672 -26.056  1.00  0.00     0.255 C
HETATM   37  C20 UNL     1     -30.078   3.740 -27.182  1.00  0.00     0.126 C
HETATM   38  O8  UNL     1     -30.068   4.252 -24.892  1.00  0.00    -0.266 OA
ENDBRANCH  35  36
ENDBRANCH   5  35
BRANCH   6  39
HETATM   39  O9  UNL     1     -30.974   7.233 -28.137  1.00  0.00    -0.311 OA
BRANCH  39  40
HETATM   40  C22 UNL     1     -31.558   6.410 -29.055  1.00  0.00     0.255 C
HETATM   41  C23 UNL     1     -30.743   5.883 -30.178  1.00  0.00     0.126 C
HETATM   42  O10 UNL     1     -32.775   6.148 -28.882  1.00  0.00    -0.266 OA
ENDBRANCH  39  40
ENDBRANCH   6  39
TORSDOF 15
ENDMDL