MODEL 1
REMARK VINA RESULT: -6.763820706      0.000      0.000
REMARK  14 active torsions:
REMARK  status: ('A' for Active; 'I' for Inactive)
REMARK    1  A    between atoms: C2_2  and  C3_3
REMARK    2  A    between atoms: C3_3  and  O2_5
REMARK    3  A    between atoms: O2_5  and  C4_6
REMARK    4  A    between atoms: C4_6  and  C5_8
REMARK    5  A    between atoms: C5_8  and  O4_9
REMARK    6  A    between atoms: O4_9  and  C6_10
REMARK    7  A    between atoms: C6_10  and  C7_12
REMARK    8  A    between atoms: C7_12  and  C8_13
REMARK    9  A    between atoms: C8_13  and  C9_14
REMARK   10  A    between atoms: C14_20  and  O7_22
REMARK   11  A    between atoms: C16_24  and  O8_25
REMARK   12  A    between atoms: C21_33  and  C22_34
REMARK   13  A    between atoms: C22_34  and  O11_35
REMARK   14  A    between atoms: C25_39  and  O12_40
ROOT
HETATM    1  C5  UNL     1     -31.261   7.814 -27.377  1.00  0.00     0.185 C
HETATM    2  C12 UNL     1     -30.481   8.881 -28.046  1.00  0.00     0.140 C
HETATM    3  C13 UNL     1     -30.586   8.506 -29.532  1.00  0.00     0.174 C
HETATM    4  O6  UNL     1     -29.562   8.331 -30.162  1.00  0.00    -0.294 OA
HETATM    5  C14 UNL     1     -31.929   8.365 -30.162  1.00  0.00     0.150 C
HETATM    6  C15 UNL     1     -32.059   7.184 -31.094  1.00  0.00     0.058 C
HETATM    7  C16 UNL     1     -32.979   8.465 -29.091  1.00  0.00     0.127 C
HETATM    8  C17 UNL     1     -33.924   7.332 -29.060  1.00  0.00     0.019 C
HETATM    9  C18 UNL     1     -35.221   7.376 -28.846  1.00  0.00     0.051 C
HETATM   10  C19 UNL     1     -36.084   8.488 -28.581  1.00  0.00     0.172 C
HETATM   11  O9  UNL     1     -36.896   8.831 -29.529  1.00  0.00    -0.291 OA
HETATM   12  C20 UNL     1     -36.169   9.309 -27.334  1.00  0.00     0.251 C
HETATM   13  O10 UNL     1     -35.255  10.287 -27.187  1.00  0.00    -0.370 OA
HETATM   14  C21 UNL     1     -34.140  10.134 -26.461  1.00  0.00     0.083 C
HETATM   15  C23 UNL     1     -33.169  11.264 -26.765  1.00  0.00     0.043 C
HETATM   16  C24 UNL     1     -31.700  10.772 -26.654  1.00  0.00     0.043 C
HETATM   17  C25 UNL     1     -31.489   9.901 -27.764  1.00  0.00     0.086 C
HETATM   18  C26 UNL     1     -32.450   8.704 -27.710  1.00  0.00     0.074 C
HETATM   19  C27 UNL     1     -33.421   8.818 -26.618  1.00  0.00     0.060 C
ENDROOT
BRANCH   1  20
HETATM   20  C4  UNL     1     -30.922   7.507 -26.006  1.00  0.00     0.304 C
HETATM   21  O3  UNL     1     -29.899   7.916 -25.445  1.00  0.00    -0.261 OA
BRANCH  20  22
HETATM   22  O2  UNL     1     -31.726   6.710 -25.157  1.00  0.00    -0.243 OA
BRANCH  22  23
HETATM   23  C3  UNL     1     -31.309   6.296 -23.909  1.00  0.00     0.265 C
HETATM   24  O1  UNL     1     -30.686   5.214 -23.823  1.00  0.00    -0.265 OA
BRANCH  23  25
HETATM   25  C2  UNL     1     -31.592   7.116 -22.678  1.00  0.00     0.107 C
HETATM   26  C1  UNL     1     -32.597   8.174 -22.985  1.00  0.00     0.015 C
ENDBRANCH  23  25
ENDBRANCH  22  23
ENDBRANCH  20  22
ENDBRANCH   1  20
BRANCH   1  27
HETATM   27  O4  UNL     1     -31.360   6.523 -28.010  1.00  0.00    -0.297 OA
BRANCH  27  28
HETATM   28  C6  UNL     1     -30.369   5.614 -27.705  1.00  0.00     0.260 C
HETATM   29  O5  UNL     1     -30.753   4.561 -27.086  1.00  0.00    -0.265 OA
BRANCH  28  30
HETATM   30  C7  UNL     1     -28.966   5.823 -28.066  1.00  0.00     0.111 C
BRANCH  30  31
HETATM   31  C8  UNL     1     -28.506   4.836 -29.069  1.00  0.00     0.013 C
BRANCH  31  32
HETATM   32  C9  UNL     1     -28.173   5.436 -30.422  1.00  0.00    -0.022 C
HETATM   33  C10 UNL     1     -26.769   5.221 -30.860  1.00  0.00     0.009 C
HETATM   34  C11 UNL     1     -29.131   4.803 -31.407  1.00  0.00     0.009 C
ENDBRANCH  31  32
ENDBRANCH  30  31
ENDBRANCH  28  30
ENDBRANCH  27  28
ENDBRANCH   1  27
BRANCH  17  35
HETATM   35  O12 UNL     1     -31.708  10.734 -28.914  1.00  0.00    -0.388 OA
ATOM     36  H12 UNL     1     -32.041  10.223 -29.643  1.00  0.00     0.210 HD
ENDBRANCH  17  35
BRANCH   7  37
HETATM   37  O8  UNL     1     -33.761   9.574 -29.497  1.00  0.00    -0.381 OA
ATOM     38  H8  UNL     1     -34.612   9.398 -29.114  1.00  0.00     0.211 HD
ENDBRANCH   7  37
BRANCH   5  39
HETATM   39  O7  UNL     1     -31.999   9.439 -31.106  1.00  0.00    -0.379 OA
ATOM     40  H7  UNL     1     -32.732   9.217 -31.669  1.00  0.00     0.211 HD
ENDBRANCH   5  39
BRANCH  14  41
HETATM   41  C22 UNL     1     -34.464  10.303 -24.982  1.00  0.00     0.202 C
BRANCH  41  42
HETATM   42  O11 UNL     1     -34.326  11.572 -24.492  1.00  0.00    -0.398 OA
ATOM     43  H11 UNL     1     -34.542  11.681 -23.573  1.00  0.00     0.209 HD
ENDBRANCH  41  42
ENDBRANCH  14  41
TORSDOF 14
ENDMDL