MODEL 2
REMARK VINA RESULT: -6.580488812      1.637      6.468
REMARK  13 active torsions:
REMARK  status: ('A' for Active; 'I' for Inactive)
REMARK    1  A    between atoms: C2_2  and  C3_3
REMARK    2  A    between atoms: C3_3  and  O2_5
REMARK    3  A    between atoms: O2_5  and  C4_6
REMARK    4  A    between atoms: C5_7  and  O3_8
REMARK    5  A    between atoms: O3_8  and  C6_9
REMARK    6  A    between atoms: C8_12  and  O5_13
REMARK    7  A    between atoms: C9_15  and  O6_16
REMARK    8  A    between atoms: C10_18  and  O7_19
REMARK    9  A    between atoms: C19_32  and  C20_33
REMARK   10  A    between atoms: C20_33  and  O11_34
REMARK   11  A    between atoms: C20_33  and  C21_36
REMARK   12  A    between atoms: C21_36  and  C23_38
REMARK   13  A    between atoms: C23_38  and  C25_40
ROOT
HETATM    1  C4  UNL     1     -31.736   8.659 -27.538  1.00  0.00     0.178 C
HETATM    2  C5  UNL     1     -32.251   7.908 -28.718  1.00  0.00     0.218 C
HETATM    3  C11 UNL     1     -31.033   7.003 -28.536  1.00  0.00     0.212 C
HETATM    4  O8  UNL     1     -30.056   7.151 -29.493  1.00  0.00    -0.292 OA
HETATM    5  C12 UNL     1     -30.352   5.834 -29.907  1.00  0.00     0.287 C
HETATM    6  C13 UNL     1     -30.927   5.726 -31.280  1.00  0.00     0.103 C
HETATM    7  C14 UNL     1     -30.193   4.746 -32.162  1.00  0.00     0.014 C
HETATM    8  C15 UNL     1     -28.693   4.920 -32.139  1.00  0.00     0.011 C
HETATM    9  C16 UNL     1     -28.101   3.509 -32.089  1.00  0.00     0.012 C
HETATM   10  C17 UNL     1     -28.336   5.582 -30.832  1.00  0.00     0.127 C
HETATM   11  C18 UNL     1     -26.911   5.336 -30.427  1.00  0.00     0.040 C
HETATM   12  O9  UNL     1     -29.219   5.029 -29.874  1.00  0.00    -0.327 OA
HETATM   13  O10 UNL     1     -31.219   5.700 -28.833  1.00  0.00    -0.292 OA
HETATM   14  C19 UNL     1     -30.778   7.494 -27.174  1.00  0.00     0.113 C
ENDROOT
BRANCH   2  15
HETATM   15  O3  UNL     1     -33.373   7.192 -28.643  1.00  0.00    -0.345 OA
BRANCH  15  16
HETATM   16  C6  UNL     1     -34.345   7.311 -29.559  1.00  0.00     0.291 C
HETATM   17  O4  UNL     1     -33.861   7.752 -30.798  1.00  0.00    -0.356 OA
HETATM   18  C7  UNL     1     -34.972   8.141 -31.555  1.00  0.00     0.205 C
HETATM   19  C8  UNL     1     -35.975   7.044 -31.701  1.00  0.00     0.173 C
HETATM   20  C9  UNL     1     -35.476   5.737 -31.144  1.00  0.00     0.182 C
HETATM   21  C10 UNL     1     -34.947   5.902 -29.739  1.00  0.00     0.204 C
BRANCH  19  22
HETATM   22  O5  UNL     1     -37.149   7.353 -30.986  1.00  0.00    -0.391 OA
ATOM     23  H5  UNL     1     -37.325   6.685 -30.334  1.00  0.00     0.210 HD
ENDBRANCH  19  22
BRANCH  20  24
HETATM   24  O6  UNL     1     -34.499   5.151 -31.941  1.00  0.00    -0.390 OA
ATOM     25  H6  UNL     1     -34.814   4.385 -32.404  1.00  0.00     0.210 HD
ENDBRANCH  20  24
BRANCH  21  26
HETATM   26  O7  UNL     1     -33.955   4.934 -29.556  1.00  0.00    -0.388 OA
ATOM     27  H7  UNL     1     -33.885   4.392 -30.334  1.00  0.00     0.210 HD
ENDBRANCH  21  26
ENDBRANCH  15  16
ENDBRANCH   2  15
BRANCH   1  28
HETATM   28  O2  UNL     1     -31.059   9.831 -27.954  1.00  0.00    -0.312 OA
BRANCH  28  29
HETATM   29  C3  UNL     1     -30.863  10.881 -27.072  1.00  0.00     0.258 C
HETATM   30  O1  UNL     1     -29.804  10.926 -26.435  1.00  0.00    -0.265 OA
BRANCH  29  31
HETATM   31  C2  UNL     1     -31.937  11.900 -26.935  1.00  0.00     0.106 C
HETATM   32  C1  UNL     1     -32.903  11.556 -25.843  1.00  0.00     0.015 C
ENDBRANCH  29  31
ENDBRANCH  28  29
ENDBRANCH   1  28
BRANCH  14  33
HETATM   33  C20 UNL     1     -31.263   6.710 -25.995  1.00  0.00     0.134 C
BRANCH  33  34
HETATM   34  O11 UNL     1     -30.953   5.378 -25.989  1.00  0.00    -0.395 OA
ATOM     35  H11 UNL     1     -31.657   4.787 -25.751  1.00  0.00     0.210 HD
ENDBRANCH  33  34
BRANCH  33  36
HETATM   36  C21 UNL     1     -31.047   7.339 -24.676  1.00  0.00     0.015 C
HETATM   37  C22 UNL     1     -30.648   6.463 -23.545  1.00  0.00     0.013 C
BRANCH  36  38
HETATM   38  C23 UNL     1     -32.229   8.162 -24.211  1.00  0.00    -0.013 C
HETATM   39  C24 UNL     1     -32.436   8.146 -22.734  1.00  0.00     0.010 C
BRANCH  38  40
HETATM   40  C25 UNL     1     -33.511   7.796 -24.899  1.00  0.00     0.000 C
HETATM   41  C26 UNL     1     -34.656   8.505 -24.203  1.00  0.00     0.005 C
ENDBRANCH  38  40
ENDBRANCH  36  38
ENDBRANCH  33  36
ENDBRANCH  14  33
TORSDOF 13
ENDMDL