MODEL 3
REMARK VINA RESULT: -7.419800943      5.404     10.086
REMARK  10 active torsions:
REMARK  status: ('A' for Active; 'I' for Inactive)
REMARK    1  A    between atoms: O1_2  and  C2_3
REMARK    2  A    between atoms: C4_5  and  C5_6
REMARK    3  A    between atoms: C5_6  and  N1_7
REMARK    4  A    between atoms: C5_6  and  C18_36
REMARK    5  A    between atoms: N1_7  and  C6_9
REMARK    6  A    between atoms: C7_12  and  N3_13
REMARK    7  A    between atoms: C12_23  and  N6_24
REMARK    8  A    between atoms: C15_27  and  N7_28
REMARK    9  A    between atoms: C23_44  and  O2_45
REMARK   10  A    between atoms: C25_47  and  O3_48
ROOT
HETATM    1  C6  UNL     1     -35.925   8.404 -23.199  1.00  0.00     0.707 A
HETATM    2  N2  UNL     1     -36.768   7.373 -23.299  1.00  0.00    -0.021 N
ATOM      3  H2  UNL     1     -36.593   6.678 -24.024  1.00  0.00     0.203 HD
HETATM    4  C7  UNL     1     -37.853   7.194 -22.486  1.00  0.00     0.709 A
HETATM    5  N5  UNL     1     -38.034   8.131 -21.557  1.00  0.00    -0.021 N
ATOM      6  H5  UNL     1     -38.828   8.047 -20.923  1.00  0.00     0.203 HD
HETATM    7  C12 UNL     1     -37.205   9.190 -21.423  1.00  0.00     0.709 A
HETATM    8  N8  UNL     1     -36.147   9.321 -22.252  1.00  0.00    -0.021 N
ATOM      9  H8  UNL     1     -35.518  10.118 -22.156  1.00  0.00     0.203 HD
ENDROOT
BRANCH   1  10
HETATM   10  N1  UNL     1     -34.930   8.469 -24.021  1.00  0.00    -0.216 N
ATOM     11  H1  UNL     1     -34.936   7.867 -24.845  1.00  0.00     0.178 HD
BRANCH  10  12
HETATM   12  C5  UNL     1     -33.807   9.362 -23.820  1.00  0.00     0.139 C
BRANCH  12  13
HETATM   13  C4  UNL     1     -32.630   8.602 -24.382  1.00  0.00    -0.029 A
HETATM   14  C3  UNL     1     -32.023   8.891 -25.552  1.00  0.00     0.049 A
HETATM   15  C2  UNL     1     -30.921   8.146 -26.037  1.00  0.00     0.104 A
HETATM   16  C25 UNL     1     -30.441   7.058 -25.263  1.00  0.00     0.135 A
HETATM   17  C23 UNL     1     -31.070   6.785 -24.086  1.00  0.00     0.104 A
HETATM   18  C22 UNL     1     -32.140   7.523 -23.634  1.00  0.00     0.049 A
BRANCH  15  19
HETATM   19  O1  UNL     1     -30.353   8.428 -27.145  1.00  0.00    -0.353 OA
HETATM   20  C1  UNL     1     -29.964   8.537 -28.367  1.00  0.00     0.210 C
ENDBRANCH  15  19
BRANCH  16  21
HETATM   21  O3  UNL     1     -29.353   6.323 -25.739  1.00  0.00    -0.351 OA
HETATM   22  C26 UNL     1     -29.635   5.232 -26.593  1.00  0.00     0.210 C
ENDBRANCH  16  21
BRANCH  17  23
HETATM   23  O2  UNL     1     -30.591   5.720 -23.337  1.00  0.00    -0.353 OA
HETATM   24  C24 UNL     1     -31.248   4.480 -23.397  1.00  0.00     0.210 C
ENDBRANCH  17  23
ENDBRANCH  12  13
BRANCH  12  25
HETATM   25  C18 UNL     1     -33.895  10.607 -24.617  1.00  0.00     0.038 C
HETATM   26  C19 UNL     1     -34.167  11.860 -23.837  1.00  0.00     0.128 C
HETATM   27  N9  UNL     1     -34.501  12.789 -24.904  1.00  0.00    -0.381 N
HETATM   28  C20 UNL     1     -34.959  12.160 -25.933  1.00  0.00     0.089 C
ATOM     29  H9  UNL     1     -34.388  13.801 -24.848  1.00  0.00     0.160 HD
HETATM   30  N10 UNL     1     -35.391  12.714 -27.164  1.00  0.00    -0.088 NA
HETATM   31  C21 UNL     1     -34.980  10.682 -25.641  1.00  0.00     0.081 C
ENDBRANCH  12  25
ENDBRANCH  10  12
ENDBRANCH   1  10
BRANCH   4  32
HETATM   32  N3  UNL     1     -38.688   6.059 -22.656  1.00  0.00    -0.213 N
HETATM   33  C8  UNL     1     -38.729   5.058 -21.614  1.00  0.00     0.168 C
HETATM   34  C9  UNL     1     -39.862   4.098 -21.965  1.00  0.00     0.252 C
HETATM   35  N4  UNL     1     -39.519   3.476 -23.213  1.00  0.00    -0.072 N
HETATM   36  C10 UNL     1     -39.380   4.406 -24.295  1.00  0.00     0.252 C
ATOM     37  H42 UNL     1     -38.678   2.908 -23.114  1.00  0.00     0.277 HD
ATOM     38  H41 UNL     1     -40.191   2.746 -23.449  1.00  0.00     0.277 HD
HETATM   39  C11 UNL     1     -39.483   5.863 -23.831  1.00  0.00     0.168 C
ENDBRANCH   4  32
BRANCH   7  40
HETATM   40  N6  UNL     1     -37.419  10.164 -20.414  1.00  0.00    -0.217 N
HETATM   41  C13 UNL     1     -36.357  10.922 -19.847  1.00  0.00     0.143 C
HETATM   42  C14 UNL     1     -36.831  11.830 -18.762  1.00  0.00     0.053 C
HETATM   43  C15 UNL     1     -38.099  12.563 -19.043  1.00  0.00     0.186 C
HETATM   44  C16 UNL     1     -39.010  11.886 -20.036  1.00  0.00     0.053 C
HETATM   45  C17 UNL     1     -38.767  10.393 -19.939  1.00  0.00     0.143 C
BRANCH  43  46
HETATM   46  N7  UNL     1     -37.862  13.962 -19.442  1.00  0.00    -0.075 N
ATOM     47  H73 UNL     1     -36.908  14.250 -19.224  1.00  0.00     0.274 HD
ATOM     48  H72 UNL     1     -37.834  14.055 -20.457  1.00  0.00     0.274 HD
ATOM     49  H71 UNL     1     -38.542  14.604 -19.032  1.00  0.00     0.274 HD
ENDBRANCH  43  46
ENDBRANCH   7  40
TORSDOF 10
ENDMDL