MODEL 5
REMARK VINA RESULT: -7.968841730      3.015     11.785
REMARK  8 active torsions:
REMARK  status: ('A' for Active; 'I' for Inactive)
REMARK    1  A    between atoms: C2_2  and  C3_3
REMARK    2  A    between atoms: C3_3  and  O1_4
REMARK    3  A    between atoms: O1_4  and  C4_5
REMARK    4  A    between atoms: C5_6  and  C6_7
REMARK    5  A    between atoms: N5_19  and  C10_20
REMARK    6  A    between atoms: C13_30  and  N9_31
REMARK    7  A    between atoms: C15_33  and  N10_34
REMARK    8  A    between atoms: N11_37  and  C18_38
ROOT
HETATM    1  C10 UNL     1     -30.514   5.722 -26.564  1.00  0.00     0.709 A
HETATM    2  N6  UNL     1     -30.453   4.927 -25.490  1.00  0.00    -0.173 N
ATOM      3  H6  UNL     1     -29.944   4.047 -25.570  1.00  0.00     0.186 HD
HETATM    4  C11 UNL     1     -31.023   5.223 -24.312  1.00  0.00     0.146 A
HETATM    5  N7  UNL     1     -30.968   4.466 -23.275  1.00  0.00    -0.383 N
ATOM      6  H71 UNL     1     -31.402   4.690 -22.380  1.00  0.00     0.157 HD
ATOM      7  H72 UNL     1     -30.452   3.594 -23.391  1.00  0.00     0.157 HD
HETATM    8  C12 UNL     1     -31.726   6.411 -24.153  1.00  0.00     0.138 A
HETATM    9  N8  UNL     1     -32.385   6.993 -23.149  1.00  0.00    -0.184 N
ATOM     10  H8  UNL     1     -32.499   6.608 -22.212  1.00  0.00     0.184 HD
HETATM   11  C13 UNL     1     -32.874   8.171 -23.578  1.00  0.00     0.682 A
HETATM   12  N12 UNL     1     -32.512   8.315 -24.861  1.00  0.00    -0.174 N
ATOM     13  H12 UNL     1     -32.742   9.114 -25.451  1.00  0.00     0.186 HD
HETATM   14  C24 UNL     1     -31.799   7.242 -25.250  1.00  0.00     0.167 A
HETATM   15  N13 UNL     1     -31.203   6.891 -26.414  1.00  0.00    -0.172 N
ATOM     16  H13 UNL     1     -31.272   7.526 -27.210  1.00  0.00     0.186 HD
ENDROOT
BRANCH   1  17
HETATM   17  N5  UNL     1     -29.910   5.438 -27.822  1.00  0.00    -0.063 N
HETATM   18  C4  UNL     1     -30.490   5.263 -29.047  1.00  0.00     0.197 A
HETATM   19  C5  UNL     1     -29.441   5.084 -29.908  1.00  0.00     0.080 A
HETATM   20  C9  UNL     1     -28.234   5.149 -29.192  1.00  0.00     0.128 A
HETATM   21  N4  UNL     1     -28.584   5.365 -27.933  1.00  0.00    -0.288 N
ATOM     22  H4  UNL     1     -27.929   5.461 -27.157  1.00  0.00     0.187 HD
BRANCH  18  23
HETATM   23  O1  UNL     1     -31.801   5.279 -29.292  1.00  0.00    -0.333 OA
BRANCH  23  24
HETATM   24  C3  UNL     1     -32.777   6.099 -29.727  1.00  0.00     0.177 C
BRANCH  24  25
HETATM   25  C2  UNL     1     -32.606   7.573 -29.759  1.00  0.00     0.022 C
HETATM   26  C1  UNL     1     -31.924   8.054 -31.043  1.00  0.00     0.007 C
ENDBRANCH  24  25
ENDBRANCH  23  24
ENDBRANCH  18  23
BRANCH  19  27
HETATM   27  C6  UNL     1     -29.490   4.886 -31.347  1.00  0.00     0.140 A
HETATM   28  N1  UNL     1     -28.396   4.598 -32.118  1.00  0.00    -0.279 N
HETATM   29  N2  UNL     1     -28.701   4.465 -33.380  1.00  0.00    -0.245 N
ATOM     30  H1  UNL     1     -27.451   4.499 -31.749  1.00  0.00     0.189 HD
HETATM   31  C7  UNL     1     -27.800   4.162 -34.504  1.00  0.00     0.183 C
HETATM   32  C8  UNL     1     -30.022   4.665 -33.468  1.00  0.00     0.342 A
HETATM   33  O2  UNL     1     -30.663   4.613 -34.547  1.00  0.00    -0.245 OA
HETATM   34  N3  UNL     1     -30.498   4.922 -32.221  1.00  0.00    -0.291 N
ATOM     35  H3  UNL     1     -31.472   5.113 -31.990  1.00  0.00     0.172 HD
ENDBRANCH  19  27
ENDBRANCH   1  17
BRANCH  11  36
HETATM   36  N9  UNL     1     -33.638   9.145 -22.853  1.00  0.00    -0.214 N
HETATM   37  C14 UNL     1     -34.169  10.438 -23.200  1.00  0.00     0.167 C
HETATM   38  C15 UNL     1     -35.147  10.324 -22.083  1.00  0.00     0.116 C
HETATM   39  C23 UNL     1     -34.189   9.295 -21.538  1.00  0.00     0.167 C
BRANCH  38  40
HETATM   40  N10 UNL     1     -36.421   9.790 -22.433  1.00  0.00    -0.402 N
HETATM   41  C16 UNL     1     -37.262  10.673 -23.166  1.00  0.00     0.147 C
HETATM   42  C17 UNL     1     -38.380  11.229 -22.310  1.00  0.00     0.292 C
HETATM   43  N11 UNL     1     -37.985  11.105 -20.943  1.00  0.00     0.095 N
HETATM   44  C21 UNL     1     -38.032   9.732 -20.562  1.00  0.00     0.292 C
HETATM   45  C22 UNL     1     -37.056   8.981 -21.453  1.00  0.00     0.147 C
BRANCH  43  46
HETATM   46  C18 UNL     1     -38.633  12.001 -20.034  1.00  0.00     0.215 C
HETATM   47  C19 UNL     1     -37.653  12.329 -18.920  1.00  0.00     0.042 C
HETATM   48  C20 UNL     1     -39.771  11.217 -19.375  1.00  0.00     0.042 C
ENDBRANCH  43  46
ENDBRANCH  38  40
ENDBRANCH  11  36
TORSDOF 8
ENDMDL