MODEL 5
REMARK VINA RESULT: -5.197214869      2.066      4.196
REMARK  13 active torsions:
REMARK  status: ('A' for Active; 'I' for Inactive)
REMARK    1  A    between atoms: C2_2  and  C3_3
REMARK    2  A    between atoms: C3_3  and  S1_5
REMARK    3  A    between atoms: S1_5  and  C5_6
REMARK    4  A    between atoms: C5_6  and  O1_7
REMARK    5  A    between atoms: C6_9  and  O2_11
REMARK    6  A    between atoms: C8_13  and  O3_14
REMARK    7  A    between atoms: C11_17  and  O4_18
REMARK    8  A    between atoms: O4_18  and  C12_19
REMARK    9  A    between atoms: C17_27  and  O8_28
REMARK   10  A    between atoms: C19_31  and  O9_32
REMARK   11  A    between atoms: C19_31  and  C20_34
REMARK   12  A    between atoms: C23_37  and  O10_38
REMARK   13  A    between atoms: O10_38  and  C24_39
ROOT
HETATM    1  C5  UNL     1     -34.152   9.853 -25.720  1.00  0.00     0.197 C
HETATM    2  C6  UNL     1     -34.919   9.431 -26.912  1.00  0.00     0.133 C
HETATM    3  C7  UNL     1     -35.897   8.303 -26.704  1.00  0.00     0.053 C
HETATM    4  C8  UNL     1     -33.937   9.088 -28.015  1.00  0.00     0.117 A
HETATM    5  C10 UNL     1     -33.144   7.846 -27.867  1.00  0.00     0.088 A
HETATM    6  C11 UNL     1     -32.232   7.546 -29.082  1.00  0.00     0.166 C
HETATM    7  C14 UNL     1     -31.760   8.903 -29.478  1.00  0.00     0.179 C
HETATM    8  O6  UNL     1     -31.703   9.404 -30.568  1.00  0.00    -0.293 OA
HETATM    9  C15 UNL     1     -31.368   9.482 -28.122  1.00  0.00     0.092 C
HETATM   10  C16 UNL     1     -31.557  10.910 -27.944  1.00  0.00     0.193 C
HETATM   11  O7  UNL     1     -32.407  11.142 -26.830  1.00  0.00    -0.350 OA
HETATM   12  C17 UNL     1     -32.702   9.916 -26.260  1.00  0.00     0.219 C
HETATM   13  C18 UNL     1     -32.564   8.987 -27.331  1.00  0.00     0.084 A
HETATM   14  C19 UNL     1     -30.081   8.837 -27.846  1.00  0.00     0.078 C
HETATM   15  C22 UNL     1     -30.418   7.419 -27.397  1.00  0.00     0.075 C
HETATM   16  C23 UNL     1     -31.044   6.746 -28.638  1.00  0.00     0.178 C
ENDROOT
BRANCH   1  17
HETATM   17  S1  UNL     1     -34.149   8.657 -24.407  1.00  0.00    -0.118 SA
BRANCH  17  18
HETATM   18  C3  UNL     1     -34.263   9.287 -22.747  1.00  0.00     0.046 C
HETATM   19  C4  UNL     1     -35.671   9.034 -22.193  1.00  0.00     0.021 C
BRANCH  18  20
HETATM   20  C2  UNL     1     -33.305   8.602 -21.787  1.00  0.00     0.010 C
HETATM   21  C1  UNL     1     -32.293   7.755 -22.526  1.00  0.00     0.006 C
ENDBRANCH  18  20
ENDBRANCH  17  18
ENDBRANCH   1  17
BRANCH   1  22
HETATM   22  O1  UNL     1     -34.401  11.157 -25.277  1.00  0.00    -0.371 OA
ATOM     23  H1  UNL     1     -34.039  11.823 -25.851  1.00  0.00     0.212 HD
ENDBRANCH   1  22
BRANCH   2  24
HETATM   24  O2  UNL     1     -35.696  10.569 -27.265  1.00  0.00    -0.383 OA
ATOM     25  H2  UNL     1     -35.914  10.980 -26.437  1.00  0.00     0.210 HD
ENDBRANCH   2  24
BRANCH  12  26
HETATM   26  O8  UNL     1     -31.947   9.763 -25.104  1.00  0.00    -0.361 OA
ATOM     27  H8  UNL     1     -31.205   9.257 -25.411  1.00  0.00     0.213 HD
ENDBRANCH  12  26
BRANCH   4  28
HETATM   28  O3  UNL     1     -34.139   9.699 -29.195  1.00  0.00    -0.380 OA
HETATM   29  C9  UNL     1     -35.238   9.290 -29.895  1.00  0.00     0.202 C
ENDBRANCH   4  28
BRANCH   6  30
HETATM   30  O4  UNL     1     -33.016   6.926 -30.038  1.00  0.00    -0.299 OA
BRANCH  30  31
HETATM   31  C12 UNL     1     -32.587   6.107 -31.060  1.00  0.00     0.256 C
HETATM   32  C13 UNL     1     -33.199   4.756 -31.181  1.00  0.00     0.126 C
HETATM   33  O5  UNL     1     -31.714   6.529 -31.828  1.00  0.00    -0.266 OA
ENDBRANCH  30  31
ENDBRANCH   6  30
BRANCH  14  34
HETATM   34  O9  UNL     1     -29.448   8.605 -29.122  1.00  0.00    -0.388 OA
ATOM     35  H9  UNL     1     -28.577   8.269 -28.939  1.00  0.00     0.210 HD
ENDBRANCH  14  34
BRANCH  14  36
HETATM   36  C20 UNL     1     -29.050   9.505 -27.043  1.00  0.00     0.035 C
HETATM   37  C21 UNL     1     -28.510   8.525 -25.975  1.00  0.00     0.008 C
ENDBRANCH  14  36
BRANCH  16  38
HETATM   38  O10 UNL     1     -31.381   5.410 -28.312  1.00  0.00    -0.313 OA
BRANCH  38  39
HETATM   39  C24 UNL     1     -30.483   4.634 -27.613  1.00  0.00     0.255 C
HETATM   40  C25 UNL     1     -29.060   4.511 -28.067  1.00  0.00     0.126 C
HETATM   41  O11 UNL     1     -30.781   3.999 -26.583  1.00  0.00    -0.266 OA
ENDBRANCH  38  39
ENDBRANCH  16  38
TORSDOF 13
ENDMDL