MODEL 3
REMARK VINA RESULT: -6.692502589      3.466      6.913
REMARK  11 active torsions:
REMARK  status: ('A' for Active; 'I' for Inactive)
REMARK    1  A    between atoms: O1_2  and  C2_3
REMARK    2  A    between atoms: C2_3  and  C3_4
REMARK    3  A    between atoms: C3_4  and  O2_5
REMARK    4  A    between atoms: C3_4  and  C5_7
REMARK    5  A    between atoms: C7_10  and  O4_11
REMARK    6  A    between atoms: C9_13  and  O5_14
REMARK    7  A    between atoms: C14_19  and  O6_20
REMARK    8  A    between atoms: C18_26  and  O7_27
REMARK    9  A    between atoms: C21_31  and  O8_32
REMARK   10  A    between atoms: O8_32  and  C22_33
REMARK   11  A    between atoms: C23_36  and  C24_37
ROOT
HETATM    1  C5  UNL     1     -32.985   8.577 -24.816  1.00  0.00     0.179 A
HETATM    2  O3  UNL     1     -32.730   9.941 -24.646  1.00  0.00    -0.355 OA
HETATM    3  C6  UNL     1     -33.038   9.120 -23.556  1.00  0.00     0.207 A
HETATM    4  C7  UNL     1     -34.288   9.387 -22.790  1.00  0.00     0.138 C
HETATM    5  C9  UNL     1     -34.787  10.807 -22.965  1.00  0.00     0.126 C
HETATM    6  C11 UNL     1     -35.629  10.372 -24.090  1.00  0.00     0.065 C
HETATM    7  C12 UNL     1     -35.563   8.958 -23.478  1.00  0.00     0.048 C
HETATM    8  C13 UNL     1     -36.660   8.949 -22.497  1.00  0.00     0.004 A
HETATM    9  C14 UNL     1     -37.560   7.919 -22.414  1.00  0.00     0.098 A
HETATM   10  C15 UNL     1     -38.650   8.083 -21.559  1.00  0.00     0.088 A
HETATM   11  N1  UNL     1     -39.580   7.003 -21.483  1.00  0.00    -0.099 NA
HETATM   12  C16 UNL     1     -38.838   9.209 -20.822  1.00  0.00    -0.001 A
HETATM   13  C17 UNL     1     -40.028   9.350 -19.914  1.00  0.00     0.053 C
HETATM   14  C18 UNL     1     -37.913  10.248 -20.911  1.00  0.00     0.085 A
HETATM   15  C19 UNL     1     -36.817  10.139 -21.735  1.00  0.00     0.019 A
HETATM   16  C20 UNL     1     -35.712  11.093 -21.783  1.00  0.00     0.015 C
HETATM   17  C21 UNL     1     -35.358  12.024 -20.962  1.00  0.00     0.158 C
HETATM   18  C23 UNL     1     -35.481   7.995 -24.572  1.00  0.00     0.144 C
HETATM   19  C26 UNL     1     -34.229   8.138 -25.423  1.00  0.00     0.179 C
HETATM   20  O11 UNL     1     -34.248   7.887 -26.634  1.00  0.00    -0.294 OA
ENDROOT
BRANCH   1  21
HETATM   21  C3  UNL     1     -31.697   7.858 -25.302  1.00  0.00     0.189 C
BRANCH  21  22
HETATM   22  C2  UNL     1     -31.230   6.917 -24.241  1.00  0.00     0.202 C
BRANCH  22  23
HETATM   23  O1  UNL     1     -31.858   5.714 -24.278  1.00  0.00    -0.393 OA
HETATM   24  C1  UNL     1     -31.165   4.621 -23.852  1.00  0.00     0.201 C
ENDBRANCH  22  23
ENDBRANCH  21  22
BRANCH  21  25
HETATM   25  O2  UNL     1     -30.780   8.787 -25.719  1.00  0.00    -0.385 OA
HETATM   26  C4  UNL     1     -29.737   8.333 -26.488  1.00  0.00     0.202 C
ENDBRANCH  21  25
ENDBRANCH   1  21
BRANCH   4  27
HETATM   27  O4  UNL     1     -34.263   8.867 -21.540  1.00  0.00    -0.378 OA
HETATM   28  C8  UNL     1     -33.130   8.492 -20.930  1.00  0.00     0.202 C
ENDBRANCH   4  27
BRANCH  18  29
HETATM   29  C24 UNL     1     -36.575   8.119 -25.591  1.00  0.00     0.135 C
HETATM   30  C25 UNL     1     -36.826   9.406 -26.278  1.00  0.00     0.091 C
HETATM   31  O10 UNL     1     -37.257   7.173 -25.855  1.00  0.00    -0.297 OA
ENDBRANCH  18  29
BRANCH   5  32
HETATM   32  O5  UNL     1     -33.851  11.775 -23.241  1.00  0.00    -0.377 OA
HETATM   33  C10 UNL     1     -34.224  12.752 -24.117  1.00  0.00     0.203 C
ENDBRANCH   5  32
BRANCH  17  34
HETATM   34  O8  UNL     1     -35.954  12.507 -19.842  1.00  0.00    -0.275 OA
BRANCH  34  35
HETATM   35  C22 UNL     1     -36.000  13.855 -19.543  1.00  0.00     0.377 C
HETATM   36  N2  UNL     1     -37.242  14.543 -19.444  1.00  0.00    -0.032 NA
HETATM   37  O9  UNL     1     -34.914  14.493 -19.351  1.00  0.00    -0.242 OA
ENDBRANCH  34  35
ENDBRANCH  17  34
BRANCH   9  38
HETATM   38  O6  UNL     1     -37.444   6.721 -23.129  1.00  0.00    -0.358 OA
ATOM     39  H6  UNL     1     -38.176   6.147 -23.326  1.00  0.00     0.217 HD
ENDBRANCH   9  38
BRANCH  14  40
HETATM   40  O7  UNL     1     -38.134  11.367 -20.163  1.00  0.00    -0.359 OA
ATOM     41  H7  UNL     1     -37.395  11.938 -19.986  1.00  0.00     0.217 HD
ENDBRANCH  14  40
TORSDOF 11
ENDMDL