MODEL 4
REMARK VINA RESULT: -6.210656531      3.021      8.000
REMARK  14 active torsions:
REMARK  status: ('A' for Active; 'I' for Inactive)
REMARK    1  A    between atoms: O1_2  and  C2_3
REMARK    2  A    between atoms: C5_6  and  N1_7
REMARK    3  A    between atoms: N1_7  and  C6_9
REMARK    4  A    between atoms: C6_9  and  O2_10
REMARK    5  A    between atoms: C6_9  and  C7_12
REMARK    6  A    between atoms: C7_12  and  C8_13
REMARK    7  A    between atoms: C8_13  and  O3_14
REMARK    8  A    between atoms: C8_13  and  C9_16
REMARK    9  A    between atoms: C9_16  and  O4_17
REMARK   10  A    between atoms: C9_16  and  C10_19
REMARK   11  A    between atoms: C20_33  and  O9_35
REMARK   12  A    between atoms: O9_35  and  C22_36
REMARK   13  A    between atoms: C22_36  and  C23_38
REMARK   14  A    between atoms: C23_38  and  C24_39
ROOT
HETATM    1  C2  UNL     1     -32.355   9.719 -28.608  1.00  0.00     0.135 C
HETATM    2  C3  UNL     1     -31.305   8.677 -29.029  1.00  0.00     0.035 C
HETATM    3  C4  UNL     1     -31.378   7.383 -28.361  1.00  0.00     0.033 C
HETATM    4  C5  UNL     1     -30.411   7.071 -27.224  1.00  0.00     0.153 C
HETATM    5  C12 UNL     1     -30.897   7.753 -25.953  1.00  0.00     0.283 A
HETATM    6  O6  UNL     1     -32.215   7.257 -25.616  1.00  0.00    -0.267 OA
HETATM    7  C13 UNL     1     -31.132   7.013 -24.709  1.00  0.00     0.328 A
HETATM    8  O7  UNL     1     -30.658   6.549 -23.662  1.00  0.00    -0.259 OA
HETATM    9  O8  UNL     1     -30.699   9.063 -25.806  1.00  0.00    -0.338 OA
HETATM   10  C14 UNL     1     -30.969   9.939 -26.779  1.00  0.00     0.145 A
HETATM   11  C15 UNL     1     -31.468  11.235 -26.573  1.00  0.00     0.033 A
HETATM   12  C16 UNL     1     -31.590  12.433 -27.385  1.00  0.00     0.012 C
HETATM   13  C17 UNL     1     -33.019  12.886 -27.173  1.00  0.00    -0.015 C
HETATM   14  C18 UNL     1     -33.047  13.915 -26.025  1.00  0.00     0.010 C
HETATM   15  C19 UNL     1     -34.026  11.904 -26.935  1.00  0.00     0.043 C
HETATM   16  C20 UNL     1     -33.607  10.439 -26.600  1.00  0.00     0.081 C
HETATM   17  C21 UNL     1     -33.536  10.456 -25.054  1.00  0.00     0.047 C
HETATM   18  C27 UNL     1     -32.319  10.173 -27.224  1.00  0.00     0.050 A
ENDROOT
BRANCH   4  19
HETATM   19  N1  UNL     1     -30.597   5.684 -26.907  1.00  0.00    -0.387 N
ATOM     20  H1  UNL     1     -31.425   5.441 -26.361  1.00  0.00     0.156 HD
BRANCH  19  21
HETATM   21  C6  UNL     1     -29.783   4.673 -27.262  1.00  0.00     0.216 C
BRANCH  21  22
HETATM   22  O2  UNL     1     -29.386   3.760 -26.284  1.00  0.00    -0.377 OA
ATOM     23  H2  UNL     1     -28.752   4.038 -25.634  1.00  0.00     0.212 HD
ENDBRANCH  21  22
BRANCH  21  24
HETATM   24  C7  UNL     1     -28.557   5.054 -28.099  1.00  0.00     0.087 C
BRANCH  24  25
HETATM   25  C8  UNL     1     -28.997   5.001 -29.552  1.00  0.00     0.158 C
BRANCH  25  26
HETATM   26  O3  UNL     1     -30.033   4.101 -29.663  1.00  0.00    -0.392 OA
ATOM     27  H3  UNL     1     -30.316   4.076 -30.569  1.00  0.00     0.210 HD
ENDBRANCH  25  26
BRANCH  25  28
HETATM   28  C9  UNL     1     -27.873   4.857 -30.496  1.00  0.00     0.215 C
BRANCH  28  29
HETATM   29  O4  UNL     1     -27.017   5.944 -30.525  1.00  0.00    -0.385 OA
ATOM     30  H4  UNL     1     -26.102   5.720 -30.405  1.00  0.00     0.210 HD
ENDBRANCH  28  29
BRANCH  28  31
HETATM   31  C10 UNL     1     -28.447   4.705 -31.898  1.00  0.00     0.154 C
HETATM   32  C11 UNL     1     -27.638   3.998 -32.897  1.00  0.00     0.093 C
HETATM   33  O5  UNL     1     -29.507   5.167 -32.080  1.00  0.00    -0.295 OA
ENDBRANCH  28  31
ENDBRANCH  25  28
ENDBRANCH  24  25
ENDBRANCH  21  24
ENDBRANCH  19  21
ENDBRANCH   4  19
BRANCH   1  34
HETATM   34  O1  UNL     1     -32.375  10.698 -29.596  1.00  0.00    -0.390 OA
HETATM   35  C1  UNL     1     -33.460  10.667 -30.420  1.00  0.00     0.202 C
ENDBRANCH   1  34
BRANCH  16  36
HETATM   36  O9  UNL     1     -34.635   9.738 -27.040  1.00  0.00    -0.306 OA
BRANCH  36  37
HETATM   37  C22 UNL     1     -35.614   8.934 -27.252  1.00  0.00     0.284 C
HETATM   38  O10 UNL     1     -35.356   7.992 -28.029  1.00  0.00    -0.260 OA
BRANCH  37  39
HETATM   39  C23 UNL     1     -36.948   9.123 -26.619  1.00  0.00     0.088 C
BRANCH  39  40
HETATM   40  C24 UNL     1     -36.950   9.190 -25.266  1.00  0.00    -0.066 C
HETATM   41  C25 UNL     1     -36.610   8.133 -24.401  1.00  0.00     0.018 C
HETATM   42  C26 UNL     1     -37.330  10.565 -24.760  1.00  0.00     0.047 C
ENDBRANCH  39  40
ENDBRANCH  37  39
ENDBRANCH  36  37
ENDBRANCH  16  36
TORSDOF 14
ENDMDL