MODEL 1
REMARK VINA RESULT: -5.413691314      0.000      0.000
REMARK  13 active torsions:
REMARK  status: ('A' for Active; 'I' for Inactive)
REMARK    1  A    between atoms: C2_2  and  O1_3
REMARK    2  A    between atoms: O1_3  and  C3_4
REMARK    3  A    between atoms: C3_4  and  C4_6
REMARK    4  A    between atoms: C5_7  and  C6_8
REMARK    5  A    between atoms: C7_12  and  C8_13
REMARK    6  A    between atoms: C8_13  and  O7_15
REMARK    7  A    between atoms: O7_15  and  C9_16
REMARK    8  A    between atoms: C11_19  and  O9_21
REMARK    9  A    between atoms: C16_26  and  C17_27
REMARK   10  A    between atoms: C17_27  and  O10_30
REMARK   11  A    between atoms: C20_32  and  O11_33
REMARK   12  A    between atoms: C22_35  and  C23_36
REMARK   13  A    between atoms: C25_39  and  O13_40
ROOT
HETATM    1  C4  UNL     1     -32.906   8.224 -25.670  1.00  0.00     0.170 C
HETATM    2  C5  UNL     1     -31.469   8.210 -25.089  1.00  0.00     0.243 C
HETATM    3  O5  UNL     1     -30.659   8.661 -26.020  1.00  0.00    -0.327 OA
HETATM    4  C7  UNL     1     -31.368   9.304 -27.049  1.00  0.00     0.296 C
HETATM    5  O8  UNL     1     -31.045   8.821 -28.253  1.00  0.00    -0.308 OA
HETATM    6  C11 UNL     1     -30.164   7.851 -28.469  1.00  0.00     0.162 C
HETATM    7  C12 UNL     1     -29.432   7.939 -29.814  1.00  0.00     0.079 C
HETATM    8  C13 UNL     1     -30.829   6.498 -28.438  1.00  0.00     0.072 C
HETATM    9  C14 UNL     1     -32.188   6.501 -29.027  1.00  0.00     0.033 C
HETATM   10  C15 UNL     1     -32.411   7.584 -29.994  1.00  0.00    -0.014 C
HETATM   11  C16 UNL     1     -33.132   8.664 -29.952  1.00  0.00     0.006 C
HETATM   12  C20 UNL     1     -33.946   9.261 -28.886  1.00  0.00     0.090 C
HETATM   13  C22 UNL     1     -33.840   9.568 -27.628  1.00  0.00     0.062 C
HETATM   14  C25 UNL     1     -32.777   9.359 -26.605  1.00  0.00     0.173 C
ENDROOT
BRANCH   1  15
HETATM   15  C3  UNL     1     -33.736   8.266 -24.464  1.00  0.00     0.269 C
HETATM   16  O2  UNL     1     -34.728   7.477 -24.341  1.00  0.00    -0.265 OA
BRANCH  15  17
HETATM   17  O1  UNL     1     -33.487   9.135 -23.421  1.00  0.00    -0.321 OA
BRANCH  17  18
HETATM   18  C2  UNL     1     -34.058   9.126 -22.157  1.00  0.00     0.174 C
HETATM   19  C1  UNL     1     -33.199   8.544 -21.077  1.00  0.00     0.034 C
ENDBRANCH  17  18
ENDBRANCH  15  17
ENDBRANCH   1  15
BRANCH   2  20
HETATM   20  C6  UNL     1     -31.169   6.938 -24.405  1.00  0.00     0.204 C
HETATM   21  O3  UNL     1     -30.857   6.899 -23.201  1.00  0.00    -0.646 OA
HETATM   22  O4  UNL     1     -31.234   5.760 -25.123  1.00  0.00    -0.646 OA
ENDBRANCH   2  20
BRANCH  14  23
HETATM   23  O13 UNL     1     -32.782  10.479 -25.704  1.00  0.00    -0.378 OA
ATOM     24  H13 UNL     1     -31.883  10.481 -25.396  1.00  0.00     0.211 HD
ENDBRANCH  14  23
BRANCH   4  25
HETATM   25  C8  UNL     1     -30.803  10.708 -27.004  1.00  0.00     0.326 C
HETATM   26  O6  UNL     1     -29.782  11.017 -26.354  1.00  0.00    -0.259 OA
BRANCH  25  27
HETATM   27  O7  UNL     1     -31.395  11.770 -27.697  1.00  0.00    -0.317 OA
BRANCH  27  28
HETATM   28  C9  UNL     1     -31.143  13.089 -27.316  1.00  0.00     0.174 C
HETATM   29  C10 UNL     1     -32.339  13.842 -26.838  1.00  0.00     0.034 C
ENDBRANCH  27  28
ENDBRANCH  25  27
ENDBRANCH   4  25
BRANCH  13  30
HETATM   30  C23 UNL     1     -35.033  10.229 -26.995  1.00  0.00     0.157 C
HETATM   31  C24 UNL     1     -36.239   9.646 -26.446  1.00  0.00     0.096 C
HETATM   32  O12 UNL     1     -35.035  11.510 -26.912  1.00  0.00    -0.293 OA
ENDBRANCH  13  30
BRANCH  12  33
HETATM   33  O11 UNL     1     -35.242   9.545 -29.518  1.00  0.00    -0.355 OA
HETATM   34  C21 UNL     1     -36.134   8.430 -29.734  1.00  0.00     0.210 C
ENDBRANCH  12  33
BRANCH   6  35
HETATM   35  O9  UNL     1     -29.128   7.736 -27.533  1.00  0.00    -0.365 OA
ATOM     36  H9  UNL     1     -28.958   6.863 -27.200  1.00  0.00     0.213 HD
ENDBRANCH   6  35
BRANCH  11  37
HETATM   37  C17 UNL     1     -33.027   9.481 -31.262  1.00  0.00     0.080 C
HETATM   38  C18 UNL     1     -31.923   9.076 -32.152  1.00  0.00     0.051 C
HETATM   39  C19 UNL     1     -32.892  10.976 -30.924  1.00  0.00     0.051 C
BRANCH  37  40
HETATM   40  O10 UNL     1     -34.194   9.415 -32.005  1.00  0.00    -0.386 OA
ATOM     41  H10 UNL     1     -34.887   9.939 -31.622  1.00  0.00     0.211 HD
ENDBRANCH  37  40
ENDBRANCH  11  37
TORSDOF 13
ENDMDL