MODEL 1
REMARK VINA RESULT: -6.695899877      0.000      0.000
REMARK  8 active torsions:
REMARK  status: ('A' for Active; 'I' for Inactive)
REMARK    1  A    between atoms: O1_2  and  C2_3
REMARK    2  A    between atoms: C4_6  and  O3_7
REMARK    3  A    between atoms: O3_7  and  C5_8
REMARK    4  A    between atoms: C5_8  and  C6_9
REMARK    5  A    between atoms: C6_9  and  O4_10
REMARK    6  A    between atoms: C9_15  and  O6_16
REMARK    7  A    between atoms: C10_19  and  O8_20
REMARK    8  A    between atoms: C11_22  and  O9_23
ROOT
HETATM    1  C6  UNL     1     -29.105   5.605 -30.002  1.00  0.00     0.087 C
HETATM    2  C7  UNL     1     -29.668   6.782 -30.694  1.00  0.00     0.124 C
HETATM    3  C8  UNL     1     -31.008   7.154 -30.016  1.00  0.00     0.192 C
HETATM    4  O5  UNL     1     -32.035   7.187 -30.642  1.00  0.00    -0.292 OA
HETATM    5  C9  UNL     1     -30.809   7.434 -28.597  1.00  0.00     0.238 C
HETATM    6  O7  UNL     1     -31.924   7.715 -27.848  1.00  0.00    -0.313 OA
HETATM    7  C10 UNL     1     -31.411   7.711 -26.533  1.00  0.00     0.311 C
HETATM    8  C11 UNL     1     -30.302   6.651 -26.511  1.00  0.00     0.209 C
HETATM    9  C12 UNL     1     -30.596   5.581 -25.591  1.00  0.00     0.104 C
HETATM   10  N1  UNL     1     -30.846   4.713 -24.852  1.00  0.00    -0.194 NA
HETATM   11  C13 UNL     1     -30.372   6.143 -27.928  1.00  0.00     0.072 C
HETATM   12  C14 UNL     1     -31.425   5.094 -28.042  1.00  0.00     0.026 C
HETATM   13  C15 UNL     1     -29.034   5.760 -28.503  1.00  0.00     0.059 C
ENDROOT
BRANCH   8  14
HETATM   14  O9  UNL     1     -29.059   7.226 -26.314  1.00  0.00    -0.370 OA
ATOM     15  H9  UNL     1     -28.395   6.567 -26.149  1.00  0.00     0.212 HD
ENDBRANCH   8  14
BRANCH   7  16
HETATM   16  O8  UNL     1     -32.372   7.303 -25.623  1.00  0.00    -0.367 OA
ATOM     17  H8  UNL     1     -32.016   6.673 -25.007  1.00  0.00     0.212 HD
ENDBRANCH   7  16
BRANCH   5  18
HETATM   18  O6  UNL     1     -29.855   8.428 -28.381  1.00  0.00    -0.359 OA
ATOM     19  H6  UNL     1     -29.487   8.393 -27.506  1.00  0.00     0.213 HD
ENDBRANCH   5  18
BRANCH   1  20
HETATM   20  C5  UNL     1     -27.835   5.068 -30.529  1.00  0.00     0.208 C
BRANCH  20  21
HETATM   21  O3  UNL     1     -27.438   5.233 -31.786  1.00  0.00    -0.362 OA
BRANCH  21  22
HETATM   22  C4  UNL     1     -27.563   4.273 -32.733  1.00  0.00     0.265 C
HETATM   23  C3  UNL     1     -28.909   4.370 -33.428  1.00  0.00     0.224 C
HETATM   24  O2  UNL     1     -28.955   5.386 -34.364  1.00  0.00    -0.334 OA
HETATM   25  C2  UNL     1     -27.872   5.359 -35.226  1.00  0.00     0.434 C
HETATM   26  O10 UNL     1     -26.735   5.635 -34.435  1.00  0.00    -0.225 OA
HETATM   27  N2  UNL     1     -26.491   4.537 -33.719  1.00  0.00    -0.061 NA
BRANCH  25  28
HETATM   28  O1  UNL     1     -27.739   4.136 -35.862  1.00  0.00    -0.343 OA
HETATM   29  C1  UNL     1     -28.450   4.105 -37.042  1.00  0.00     0.207 C
ENDBRANCH  25  28
ENDBRANCH  21  22
ENDBRANCH  20  21
ENDBRANCH   1  20
BRANCH   1  30
HETATM   30  O4  UNL     1     -30.102   4.572 -30.187  1.00  0.00    -0.387 OA
ATOM     31  H4  UNL     1     -30.896   4.881 -29.767  1.00  0.00     0.210 HD
ENDBRANCH   1  30
TORSDOF 8
ENDMDL