MODEL 2
REMARK VINA RESULT: -7.044222919      1.769      2.720
REMARK  8 active torsions:
REMARK  status: ('A' for Active; 'I' for Inactive)
REMARK    1  A    between atoms: N1_1  and  C1_4
REMARK    2  A    between atoms: C2_7  and  N3_8
REMARK    3  A    between atoms: C5_13  and  N5_14
REMARK    4  A    between atoms: N6_17  and  C8_18
REMARK    5  A    between atoms: C10_20  and  N7_21
REMARK    6  A    between atoms: N7_21  and  C11_23
REMARK    7  A    between atoms: C11_23  and  C12_24
REMARK    8  A    between atoms: C12_24  and  O1_25
ROOT
HETATM    1  N5  UNL     1     -31.366   8.143 -27.844  1.00  0.00    -0.155 N
HETATM    2  C6  UNL     1     -31.212   9.550 -28.060  1.00  0.00     0.224 C
HETATM    3  C7  UNL     1     -31.656  10.110 -26.723  1.00  0.00     0.176 C
HETATM    4  N6  UNL     1     -32.338   9.021 -26.056  1.00  0.00    -0.325 N
HETATM    5  C14 UNL     1     -32.638   8.048 -27.110  1.00  0.00     0.314 C
HETATM    6  N10 UNL     1     -33.692   8.486 -27.974  1.00  0.00    -0.348 N
ATOM      7  H10 UNL     1     -34.620   8.077 -27.860  1.00  0.00     0.164 HD
HETATM    8  C15 UNL     1     -33.518   9.381 -28.893  1.00  0.00     0.176 C
HETATM    9  N11 UNL     1     -32.223   9.943 -29.041  1.00  0.00    -0.363 N
ATOM     10  H11 UNL     1     -32.007  10.592 -29.799  1.00  0.00     0.162 HD
ENDROOT
BRANCH   1  11
HETATM   11  C5  UNL     1     -30.567   7.017 -28.170  1.00  0.00     0.714 A
HETATM   12  N4  UNL     1     -30.236   6.700 -29.434  1.00  0.00    -0.021 N
HETATM   13  C2  UNL     1     -29.477   5.629 -29.710  1.00  0.00     0.709 A
ATOM     14  H4  UNL     1     -30.569   7.287 -30.199  1.00  0.00     0.203 HD
HETATM   15  N2  UNL     1     -29.013   4.820 -28.735  1.00  0.00    -0.022 N
HETATM   16  C1  UNL     1     -29.335   5.124 -27.472  1.00  0.00     0.705 A
ATOM     17  H2  UNL     1     -28.437   4.006 -28.953  1.00  0.00     0.203 HD
HETATM   18  N12 UNL     1     -30.090   6.192 -27.199  1.00  0.00    -0.021 N
ATOM     19  H12 UNL     1     -30.317   6.396 -26.226  1.00  0.00     0.203 HD
BRANCH  13  20
HETATM   20  N3  UNL     1     -29.157   5.356 -31.075  1.00  0.00    -0.214 N
HETATM   21  C3  UNL     1     -28.044   5.110 -32.063  1.00  0.00     0.161 A
HETATM   22  C4  UNL     1     -29.431   5.120 -32.469  1.00  0.00     0.161 A
ENDBRANCH  13  20
BRANCH  16  23
HETATM   23  N1  UNL     1     -28.907   4.368 -26.529  1.00  0.00    -0.234 N
ATOM     24  H12 UNL     1     -28.131   3.726 -26.688  1.00  0.00     0.174 HD
ATOM     25  H11 UNL     1     -29.357   4.422 -25.615  1.00  0.00     0.174 HD
ENDBRANCH  16  23
ENDBRANCH   1  11
BRANCH   4  26
HETATM   26  C8  UNL     1     -32.671   8.826 -24.704  1.00  0.00     0.110 A
HETATM   27  C9  UNL     1     -33.695   9.544 -24.125  1.00  0.00     0.096 A
HETATM   28  C10 UNL     1     -34.003   9.326 -22.801  1.00  0.00     0.105 A
HETATM   29  N8  UNL     1     -33.294   8.407 -22.096  1.00  0.00    -0.339 N
HETATM   30  C13 UNL     1     -32.302   7.719 -22.676  1.00  0.00     0.183 A
ATOM     31  H8  UNL     1     -33.517   8.241 -21.115  1.00  0.00     0.168 HD
HETATM   32  N9  UNL     1     -32.015   7.937 -23.946  1.00  0.00    -0.339 N
ATOM     33  H9  UNL     1     -31.258   7.402 -24.371  1.00  0.00     0.168 HD
BRANCH  28  34
HETATM   34  N7  UNL     1     -34.969  10.001 -22.238  1.00  0.00    -0.374 N
ATOM     35  H7  UNL     1     -35.253  10.914 -22.593  1.00  0.00     0.161 HD
BRANCH  34  36
HETATM   36  C11 UNL     1     -35.625   9.401 -21.084  1.00  0.00     0.147 C
BRANCH  36  37
HETATM   37  C12 UNL     1     -35.239  10.079 -19.802  1.00  0.00     0.183 C
BRANCH  37  38
HETATM   38  O1  UNL     1     -34.183   9.338 -19.247  1.00  0.00    -0.399 OA
ATOM     39  H1  UNL     1     -34.158   9.542 -18.319  1.00  0.00     0.209 HD
ENDBRANCH  37  38
ENDBRANCH  36  37
ENDBRANCH  34  36
ENDBRANCH  28  34
ENDBRANCH   4  26
TORSDOF 8
ENDMDL