MODEL 4
REMARK VINA RESULT: -5.198004475      2.715      3.862
REMARK  10 active torsions:
REMARK  status: ('A' for Active; 'I' for Inactive)
REMARK    1  A    between atoms: O1_2  and  C2_3
REMARK    2  A    between atoms: C3_4  and  O2_5
REMARK    3  A    between atoms: C4_7  and  O3_8
REMARK    4  A    between atoms: O3_8  and  C5_9
REMARK    5  A    between atoms: C7_12  and  O5_13
REMARK    6  A    between atoms: C8_15  and  O6_16
REMARK    7  A    between atoms: C9_18  and  O7_19
REMARK    8  A    between atoms: C10_21  and  O8_22
REMARK    9  A    between atoms: C12_24  and  O9_25
REMARK   10  A    between atoms: C14_29  and  O10_30
ROOT
HETATM    1  C2  UNL     1     -35.588  10.739 -22.733  1.00  0.00     0.185 C
HETATM    2  C3  UNL     1     -34.495   9.707 -22.859  1.00  0.00     0.181 C
HETATM    3  C4  UNL     1     -34.413   9.114 -24.237  1.00  0.00     0.189 C
HETATM    4  C10 UNL     1     -35.734   9.093 -24.960  1.00  0.00     0.204 C
HETATM    5  C12 UNL     1     -36.923   9.069 -24.068  1.00  0.00     0.203 C
HETATM    6  C13 UNL     1     -37.192   7.699 -23.563  1.00  0.00     0.103 C
HETATM    7  N1  UNL     1     -37.393   6.637 -23.158  1.00  0.00    -0.194 NA
HETATM    8  C14 UNL     1     -36.915  10.060 -22.952  1.00  0.00     0.204 C
ENDROOT
BRANCH   5   9
HETATM    9  O9  UNL     1     -38.048   9.373 -24.873  1.00  0.00    -0.371 OA
ATOM     10  H9  UNL     1     -38.145   8.659 -25.491  1.00  0.00     0.212 HD
ENDBRANCH   5   9
BRANCH   4  11
HETATM   11  O8  UNL     1     -35.878  10.143 -25.857  1.00  0.00    -0.384 OA
HETATM   12  C11 UNL     1     -34.754  10.304 -26.664  1.00  0.00     0.202 C
ENDBRANCH   4  11
BRANCH   8  13
HETATM   13  O10 UNL     1     -37.870  11.061 -23.105  1.00  0.00    -0.384 OA
HETATM   14  C15 UNL     1     -38.478  11.370 -21.873  1.00  0.00     0.202 C
ENDBRANCH   8  13
BRANCH   3  15
HETATM   15  O3  UNL     1     -33.856   7.845 -24.112  1.00  0.00    -0.348 OA
BRANCH  15  16
HETATM   16  C5  UNL     1     -32.571   7.765 -24.606  1.00  0.00     0.291 C
HETATM   17  O4  UNL     1     -32.692   7.526 -25.993  1.00  0.00    -0.356 OA
HETATM   18  C6  UNL     1     -31.483   7.860 -26.559  1.00  0.00     0.205 C
HETATM   19  C7  UNL     1     -30.395   6.943 -26.116  1.00  0.00     0.173 C
HETATM   20  C8  UNL     1     -30.704   6.114 -24.928  1.00  0.00     0.182 C
HETATM   21  C9  UNL     1     -31.776   6.633 -24.039  1.00  0.00     0.204 C
BRANCH  19  22
HETATM   22  O5  UNL     1     -29.230   7.721 -25.948  1.00  0.00    -0.391 OA
ATOM     23  H5  UNL     1     -29.087   8.197 -26.758  1.00  0.00     0.210 HD
ENDBRANCH  19  22
BRANCH  20  24
HETATM   24  O6  UNL     1     -30.940   4.777 -25.328  1.00  0.00    -0.390 OA
ATOM     25  H6  UNL     1     -30.343   4.543 -26.029  1.00  0.00     0.210 HD
ENDBRANCH  20  24
BRANCH  21  26
HETATM   26  O7  UNL     1     -31.300   6.943 -22.744  1.00  0.00    -0.388 OA
ATOM     27  H7  UNL     1     -30.392   6.681 -22.640  1.00  0.00     0.210 HD
ENDBRANCH  21  26
ENDBRANCH  15  16
ENDBRANCH   3  15
BRANCH   1  28
HETATM   28  O1  UNL     1     -35.377  11.812 -23.555  1.00  0.00    -0.385 OA
HETATM   29  C1  UNL     1     -34.982  12.904 -22.809  1.00  0.00     0.202 C
ENDBRANCH   1  28
BRANCH   2  30
HETATM   30  O2  UNL     1     -34.754   8.700 -21.929  1.00  0.00    -0.390 OA
ATOM     31  H2  UNL     1     -35.261   8.026 -22.367  1.00  0.00     0.210 HD
ENDBRANCH   2  30
TORSDOF 10
ENDMDL