MODEL 1
REMARK VINA RESULT: -7.000995214      0.000      0.000
REMARK  6 active torsions:
REMARK  status: ('A' for Active; 'I' for Inactive)
REMARK    1  A    between atoms: N1_1  and  C1_4
REMARK    2  A    between atoms: C2_7  and  N3_8
REMARK    3  A    between atoms: N3_8  and  C3_10
REMARK    4  A    between atoms: N6_21  and  O1_23
REMARK    5  A    between atoms: O1_23  and  C9_24
REMARK    6  A    between atoms: C9_24  and  C10_25
REMARK       I    between atoms: C10_25  and  N7_27
ROOT
HETATM    1  C1  UNL     1     -34.637   9.543 -20.483  1.00  0.00     0.705 A
HETATM    2  N2  UNL     1     -35.275  10.242 -21.437  1.00  0.00    -0.021 N
ATOM      3  H2  UNL     1     -35.955  10.954 -21.170  1.00  0.00     0.203 HD
HETATM    4  C2  UNL     1     -35.031  10.015 -22.739  1.00  0.00     0.711 A
HETATM    5  N5  UNL     1     -34.096   9.050 -23.037  1.00  0.00    -0.019 N
ATOM      6  H5  UNL     1     -33.903   8.874 -24.023  1.00  0.00     0.203 HD
HETATM    7  C8  UNL     1     -33.453   8.360 -22.184  1.00  0.00     0.731 A
HETATM    8  N6  UNL     1     -32.436   7.617 -22.101  1.00  0.00    -0.095 N
ATOM      9  H6  UNL     1     -32.418   7.329 -21.123  1.00  0.00     0.213 HD
HETATM   10  N8  UNL     1     -33.766   8.643 -20.783  1.00  0.00    -0.020 N
ATOM     11  H8  UNL     1     -33.292   8.126 -20.042  1.00  0.00     0.203 HD
ENDROOT
BRANCH   8  12
HETATM   12  O1  UNL     1     -31.411   7.036 -22.616  1.00  0.00    -0.257 OA
BRANCH  12  13
HETATM   13  C9  UNL     1     -31.588   6.572 -23.999  1.00  0.00     0.304 C
BRANCH  13  14
HETATM   14  C10 UNL     1     -31.258   7.568 -25.040  1.00  0.00     0.250 C
HETATM   15  O2  UNL     1     -31.624   8.771 -24.715  1.00  0.00    -0.271 OA
HETATM   16  N7  UNL     1     -30.626   7.384 -26.247  1.00  0.00    -0.287 N
HETATM   17  C11 UNL     1     -30.396   6.163 -26.932  1.00  0.00     0.157 C
HETATM   18  C14 UNL     1     -30.014   8.552 -26.941  1.00  0.00     0.332 A
HETATM   19  C12 UNL     1     -29.629   6.279 -28.196  1.00  0.00     0.188 C
HETATM   20  O3  UNL     1     -29.897   7.351 -29.010  1.00  0.00    -0.382 OA
HETATM   21  C13 UNL     1     -30.486   8.422 -28.375  1.00  0.00     0.267 C
HETATM   22  O4  UNL     1     -29.139   9.379 -26.469  1.00  0.00    -0.168 OA
HETATM   23  O5  UNL     1     -30.416   9.771 -26.344  1.00  0.00    -0.168 OA
ENDBRANCH  13  14
ENDBRANCH  12  13
ENDBRANCH   8  12
BRANCH   4  24
HETATM   24  N3  UNL     1     -35.688  10.750 -23.707  1.00  0.00    -0.198 N
ATOM     25  H3  UNL     1     -36.689  10.566 -23.661  1.00  0.00     0.183 HD
BRANCH  24  26
HETATM   26  C3  UNL     1     -35.422  11.662 -24.727  1.00  0.00     0.007 C
HETATM   27  C4  UNL     1     -34.272  12.535 -24.821  1.00  0.00     0.080 C
HETATM   28  C5  UNL     1     -33.073  12.021 -25.602  1.00  0.00     0.238 C
HETATM   29  N4  UNL     1     -33.225  10.694 -26.107  1.00  0.00    -0.074 N
HETATM   30  C6  UNL     1     -34.479  10.489 -26.767  1.00  0.00     0.238 C
ATOM     31  H42 UNL     1     -32.446  10.445 -26.717  1.00  0.00     0.277 HD
ATOM     32  H41 UNL     1     -33.085  10.005 -25.369  1.00  0.00     0.277 HD
HETATM   33  C7  UNL     1     -35.677  11.078 -26.109  1.00  0.00     0.080 C
ENDBRANCH  24  26
ENDBRANCH   4  24
BRANCH   1  34
HETATM   34  N1  UNL     1     -34.845   9.832 -19.219  1.00  0.00    -0.234 N
ATOM     35  H12 UNL     1     -34.947  10.809 -18.945  1.00  0.00     0.174 HD
ATOM     36  H11 UNL     1     -34.960   9.078 -18.542  1.00  0.00     0.174 HD
ENDBRANCH   1  34
TORSDOF 6
ENDMDL