MODEL 2
REMARK VINA RESULT: -6.978797068      4.673      7.684
REMARK  9 active torsions:
REMARK  status: ('A' for Active; 'I' for Inactive)
REMARK    1  A    between atoms: N1_1  and  C1_4
REMARK    2  A    between atoms: C4_12  and  N4_13
REMARK    3  A    between atoms: N5_16  and  C7_17
REMARK    4  A    between atoms: C7_17  and  O2_18
REMARK    5  A    between atoms: C7_17  and  C8_20
REMARK    6  A    between atoms: C8_20  and  O3_21
REMARK    7  A    between atoms: N7_28  and  C12_29
REMARK    8  A    between atoms: C12_29  and  C13_30
REMARK    9  A    between atoms: C13_30  and  N8_31
ROOT
HETATM    1  C1  UNL     1     -30.102   5.350 -33.461  1.00  0.00     0.682 A
HETATM    2  N2  UNL     1     -31.229   6.060 -33.284  1.00  0.00    -0.154 N
ATOM      3  H2  UNL     1     -31.793   6.302 -34.098  1.00  0.00     0.187 HD
HETATM    4  C2  UNL     1     -31.635   6.461 -32.067  1.00  0.00     0.290 A
HETATM    5  O1  UNL     1     -32.689   7.127 -31.898  1.00  0.00    -0.265 OA
HETATM    6  C3  UNL     1     -30.807   6.089 -31.010  1.00  0.00     0.162 A
HETATM    7  N3  UNL     1     -30.910   6.330 -29.689  1.00  0.00    -0.182 N
ATOM      8  H3  UNL     1     -31.670   6.852 -29.253  1.00  0.00     0.184 HD
HETATM    9  C4  UNL     1     -29.873   5.788 -29.022  1.00  0.00     0.682 A
HETATM   10  N6  UNL     1     -29.114   5.201 -29.944  1.00  0.00    -0.173 N
ATOM     11  H6  UNL     1     -28.248   4.701 -29.747  1.00  0.00     0.186 HD
HETATM   12  C11 UNL     1     -29.646   5.359 -31.180  1.00  0.00     0.172 A
HETATM   13  N7  UNL     1     -29.299   4.990 -32.418  1.00  0.00    -0.164 N
ENDROOT
BRANCH   9  14
HETATM   14  N4  UNL     1     -29.709   5.897 -27.618  1.00  0.00    -0.214 N
HETATM   15  C5  UNL     1     -29.603   4.787 -26.726  1.00  0.00     0.171 C
HETATM   16  C6  UNL     1     -30.336   5.005 -25.421  1.00  0.00     0.296 C
HETATM   17  N5  UNL     1     -31.119   6.193 -25.396  1.00  0.00     0.122 N
HETATM   18  C9  UNL     1     -30.432   7.391 -25.819  1.00  0.00     0.296 C
HETATM   19  C10 UNL     1     -29.644   7.246 -27.077  1.00  0.00     0.171 C
BRANCH  17  20
HETATM   20  C7  UNL     1     -31.628   6.451 -24.069  1.00  0.00     0.380 C
BRANCH  20  21
HETATM   21  O2  UNL     1     -32.574   5.502 -23.681  1.00  0.00    -0.366 OA
ATOM     22  H2  UNL     1     -33.179   5.849 -23.036  1.00  0.00     0.212 HD
ENDBRANCH  20  21
BRANCH  20  23
HETATM   23  C8  UNL     1     -32.158   7.839 -23.929  1.00  0.00     0.228 C
BRANCH  23  24
HETATM   24  O3  UNL     1     -32.675   7.980 -22.633  1.00  0.00    -0.396 OA
ATOM     25  H3  UNL     1     -33.397   7.370 -22.534  1.00  0.00     0.209 HD
ENDBRANCH  23  24
ENDBRANCH  20  23
ENDBRANCH  17  20
ENDBRANCH   9  14
BRANCH  13  26
HETATM   26  C12 UNL     1     -28.108   4.257 -32.680  1.00  0.00     0.171 C
BRANCH  26  27
HETATM   27  C13 UNL     1     -26.822   4.984 -32.535  1.00  0.00     0.169 C
BRANCH  27  28
HETATM   28  N8  UNL     1     -26.147   5.325 -33.762  1.00  0.00    -0.302 N
HETATM   29  C14 UNL     1     -26.464   4.882 -34.996  1.00  0.00     0.111 A
HETATM   30  C15 UNL     1     -25.573   5.436 -35.904  1.00  0.00     0.037 A
HETATM   31  C16 UNL     1     -24.721   6.222 -35.167  1.00  0.00     0.108 A
HETATM   32  N9  UNL     1     -25.089   6.137 -33.877  1.00  0.00    -0.310 N
ATOM     33  H9  UNL     1     -24.631   6.618 -33.102  1.00  0.00     0.186 HD
ENDBRANCH  27  28
ENDBRANCH  26  27
ENDBRANCH  13  26
BRANCH   1  34
HETATM   34  N1  UNL     1     -29.801   5.015 -34.672  1.00  0.00    -0.234 N
ATOM     35  H12 UNL     1     -30.495   4.576 -35.278  1.00  0.00     0.174 HD
ATOM     36  H11 UNL     1     -28.850   5.210 -34.985  1.00  0.00     0.174 HD
ENDBRANCH   1  34
TORSDOF 9
ENDMDL