MODEL 1
REMARK VINA RESULT: -6.787351967      0.000      0.000
REMARK  9 active torsions:
REMARK  status: ('A' for Active; 'I' for Inactive)
REMARK    1  A    between atoms: C3_3  and  C4_4
REMARK    2  A    between atoms: C4_4  and  O1_5
REMARK    3  A    between atoms: C8_13  and  C9_14
REMARK    4  A    between atoms: C9_14  and  O5_15
REMARK    5  A    between atoms: C9_14  and  C10_17
REMARK    6  A    between atoms: C10_17  and  O6_18
REMARK    7  A    between atoms: C10_17  and  C11_20
REMARK    8  A    between atoms: C14_25  and  O9_26
REMARK    9  A    between atoms: C17_30  and  O10_31
ROOT
HETATM    1  C9  UNL     1     -26.520   4.616 -34.397  1.00  0.00     0.181 C
ENDROOT
BRANCH   1   2
HETATM    2  C8  UNL     1     -27.755   5.220 -33.843  1.00  0.00     0.197 C
HETATM    3  C6  UNL     1     -28.261   4.617 -32.579  1.00  0.00     0.147 A
HETATM    4  C2  UNL     1     -29.384   5.327 -31.953  1.00  0.00    -0.011 A
HETATM    5  C5  UNL     1     -27.502   4.735 -31.322  1.00  0.00     0.206 A
HETATM    6  O3  UNL     1     -28.545   3.319 -33.016  1.00  0.00    -0.346 OA
HETATM    7  C1  UNL     1     -30.580   5.725 -32.295  1.00  0.00     0.021 C
HETATM    8  C3  UNL     1     -28.584   5.421 -30.726  1.00  0.00     0.138 A
HETATM    9  O2  UNL     1     -27.317   5.983 -30.789  1.00  0.00    -0.358 OA
HETATM   10  C7  UNL     1     -29.136   3.510 -34.241  1.00  0.00     0.340 C
HETATM   11  O4  UNL     1     -28.809   4.758 -34.701  1.00  0.00    -0.356 OA
BRANCH   8  12
HETATM   12  C4  UNL     1     -29.156   5.250 -29.369  1.00  0.00     0.209 C
BRANCH  12  13
HETATM   13  O1  UNL     1     -29.132   6.507 -28.730  1.00  0.00    -0.397 OA
ATOM     14  H1  UNL     1     -28.525   6.450 -28.000  1.00  0.00     0.209 HD
ENDBRANCH  12  13
ENDBRANCH   8  12
ENDBRANCH   1   2
BRANCH   1  15
HETATM   15  O5  UNL     1     -25.513   4.595 -33.454  1.00  0.00    -0.390 OA
ATOM     16  H5  UNL     1     -24.711   4.242 -33.820  1.00  0.00     0.210 HD
ENDBRANCH   1  15
BRANCH   1  17
HETATM   17  C10 UNL     1     -26.103   5.053 -35.766  1.00  0.00     0.181 C
BRANCH  17  18
HETATM   18  O6  UNL     1     -27.066   4.952 -36.744  1.00  0.00    -0.390 OA
ATOM     19  H6  UNL     1     -27.828   4.429 -36.519  1.00  0.00     0.210 HD
ENDBRANCH  17  18
BRANCH  17  20
HETATM   20  C11 UNL     1     -25.494   6.461 -35.744  1.00  0.00     0.187 C
HETATM   21  O7  UNL     1     -25.933   7.130 -36.867  1.00  0.00    -0.348 OA
HETATM   22  C12 UNL     1     -24.951   7.110 -37.826  1.00  0.00     0.289 C
HETATM   23  O8  UNL     1     -23.879   6.395 -37.324  1.00  0.00    -0.348 OA
HETATM   24  C17 UNL     1     -24.496   8.520 -38.118  1.00  0.00     0.173 C
HETATM   25  C13 UNL     1     -24.016   6.372 -35.947  1.00  0.00     0.185 C
HETATM   26  C14 UNL     1     -23.248   7.467 -35.256  1.00  0.00     0.150 C
HETATM   27  C15 UNL     1     -22.881   8.550 -36.240  1.00  0.00     0.037 C
HETATM   28  C16 UNL     1     -24.089   9.221 -36.830  1.00  0.00     0.039 C
BRANCH  26  29
HETATM   29  O9  UNL     1     -23.880   7.944 -34.126  1.00  0.00    -0.393 OA
ATOM     30  H9  UNL     1     -24.594   8.540 -34.321  1.00  0.00     0.210 HD
ENDBRANCH  26  29
BRANCH  24  31
HETATM   31  O10 UNL     1     -25.561   9.215 -38.658  1.00  0.00    -0.391 OA
ATOM     32  H10 UNL     1     -25.622   8.995 -39.581  1.00  0.00     0.210 HD
ENDBRANCH  24  31
ENDBRANCH  17  20
ENDBRANCH   1  17
TORSDOF 9
ENDMDL