MODEL 1
REMARK VINA RESULT: -7.852233518      0.000      0.000
REMARK  6 active torsions:
REMARK  status: ('A' for Active; 'I' for Inactive)
REMARK    1  A    between atoms: C2_3  and  O1_4
REMARK    2  A    between atoms: O1_4  and  C3_5
REMARK    3  A    between atoms: C3_5  and  C4_6
REMARK    4  A    between atoms: C4_6  and  N2_7
REMARK    5  A    between atoms: C6_12  and  N4_13
REMARK    6  A    between atoms: C11_21  and  N6_22
ROOT
HETATM    1  N2  UNL     1     -29.473   4.893 -32.036  1.00  0.00    -0.202 N
ATOM      2  H2  UNL     1     -30.402   4.817 -32.449  1.00  0.00     0.183 HD
HETATM    3  C5  UNL     1     -28.697   4.940 -32.966  1.00  0.00     0.712 A
HETATM    4  N3  UNL     1     -29.205   4.884 -34.239  1.00  0.00    -0.021 N
ATOM      5  H3  UNL     1     -30.216   4.807 -34.346  1.00  0.00     0.203 HD
HETATM    6  C6  UNL     1     -28.467   4.922 -35.336  1.00  0.00     0.709 A
HETATM    7  N5  UNL     1     -27.125   5.023 -35.210  1.00  0.00    -0.021 N
ATOM      8  H5  UNL     1     -26.529   5.055 -36.037  1.00  0.00     0.203 HD
HETATM    9  C11 UNL     1     -26.592   5.080 -33.991  1.00  0.00     0.706 A
HETATM   10  N7  UNL     1     -27.372   5.039 -32.864  1.00  0.00    -0.018 N
HETATM   11  C12 UNL     1     -26.662   5.116 -31.605  1.00  0.00     0.195 C
ENDROOT
BRANCH   1  12
HETATM   12  C4  UNL     1     -29.662   4.896 -30.682  1.00  0.00     0.105 C
BRANCH  12  13
HETATM   13  C3  UNL     1     -29.453   6.217 -29.965  1.00  0.00     0.224 C
BRANCH  13  14
HETATM   14  O1  UNL     1     -29.051   5.939 -28.653  1.00  0.00    -0.317 OA
BRANCH  14  15
HETATM   15  C2  UNL     1     -29.683   6.470 -27.535  1.00  0.00     0.229 A
HETATM   16  N1  UNL     1     -30.293   5.730 -26.599  1.00  0.00    -0.283 N
HETATM   17  C1  UNL     1     -30.301   4.297 -26.746  1.00  0.00     0.163 C
HETATM   18  C15 UNL     1     -30.899   6.273 -25.523  1.00  0.00     0.278 A
HETATM   19  C14 UNL     1     -30.897   7.623 -25.374  1.00  0.00     0.155 A
HETATM   20  O3  UNL     1     -31.472   5.578 -24.644  1.00  0.00    -0.266 OA
HETATM   21  C13 UNL     1     -30.272   8.412 -26.330  1.00  0.00     0.149 A
HETATM   22  N10 UNL     1     -31.537   8.214 -24.234  1.00  0.00    -0.093 NA
HETATM   23  N8  UNL     1     -29.686   7.805 -27.379  1.00  0.00    -0.308 N
HETATM   24  N9  UNL     1     -30.256   9.825 -26.198  1.00  0.00    -0.080 NA
ATOM     25  H8  UNL     1     -29.227   8.382 -28.083  1.00  0.00     0.170 HD
ENDBRANCH  14  15
ENDBRANCH  13  14
ENDBRANCH  12  13
ENDBRANCH   1  12
BRANCH   6  26
HETATM   26  N4  UNL     1     -28.990   4.875 -36.654  1.00  0.00    -0.213 N
HETATM   27  C7  UNL     1     -30.351   4.413 -36.831  1.00  0.00     0.167 C
HETATM   28  C8  UNL     1     -30.750   4.740 -38.257  1.00  0.00     0.188 C
HETATM   29  O2  UNL     1     -29.938   4.124 -39.181  1.00  0.00    -0.388 OA
HETATM   30  C9  UNL     1     -28.591   4.178 -38.895  1.00  0.00     0.188 C
HETATM   31  C10 UNL     1     -28.261   5.248 -37.847  1.00  0.00     0.167 C
ENDBRANCH   6  26
BRANCH   9  32
HETATM   32  N6  UNL     1     -25.318   5.177 -33.878  1.00  0.00    -0.233 N
ATOM     33  H62 UNL     1     -24.830   4.622 -33.174  1.00  0.00     0.174 HD
ATOM     34  H61 UNL     1     -24.816   5.813 -34.498  1.00  0.00     0.174 HD
ENDBRANCH   9  32
TORSDOF 6
ENDMDL