MODEL 2
REMARK VINA RESULT: -7.095671981      1.684      1.965
REMARK  8 active torsions:
REMARK  status: ('A' for Active; 'I' for Inactive)
REMARK    1  A    between atoms: N1_1  and  N2_4
REMARK    2  A    between atoms: C2_9  and  N4_10
REMARK    3  A    between atoms: N4_10  and  N5_12
REMARK    4  A    between atoms: C8_22  and  N7_23
REMARK    5  A    between atoms: C10_25  and  C11_26
REMARK    6  A    between atoms: C11_26  and  C12_27
REMARK    7  A    between atoms: C12_27  and  N8_28
REMARK    8  A    between atoms: C12_27  and  C13_32
ROOT
HETATM    1  N2  UNL     1     -32.260   6.097 -23.745  1.00  0.00    -0.290 N
ATOM      2  H2  UNL     1     -32.716   5.808 -22.880  1.00  0.00     0.188 HD
HETATM    3  C1  UNL     1     -32.539   7.284 -24.093  1.00  0.00     0.167 A
HETATM    4  N3  UNL     1     -33.390   8.024 -23.302  1.00  0.00    -0.171 N
ATOM      5  H3  UNL     1     -33.766   7.587 -22.461  1.00  0.00     0.186 HD
HETATM    6  C2  UNL     1     -33.750   9.280 -23.573  1.00  0.00     0.699 A
HETATM    7  N6  UNL     1     -33.245   9.841 -24.685  1.00  0.00    -0.181 N
ATOM      8  H6  UNL     1     -33.503  10.800 -24.915  1.00  0.00     0.185 HD
HETATM    9  C7  UNL     1     -32.410   9.177 -25.500  1.00  0.00     0.129 A
HETATM   10  S1  UNL     1     -31.749   9.948 -26.981  1.00  0.00    -0.030 SA
HETATM   11  C8  UNL     1     -32.026   7.854 -25.222  1.00  0.00     0.138 A
ENDROOT
BRANCH  11  12
HETATM   12  N7  UNL     1     -31.135   7.200 -26.124  1.00  0.00    -0.245 N
HETATM   13  C9  UNL     1     -31.383   6.434 -27.185  1.00  0.00     0.145 A
HETATM   14  C10 UNL     1     -30.175   6.060 -27.737  1.00  0.00     0.047 A
HETATM   15  N10 UNL     1     -29.216   6.634 -26.965  1.00  0.00    -0.289 N
HETATM   16  N11 UNL     1     -29.818   7.300 -26.021  1.00  0.00    -0.236 N
ATOM     17  H10 UNL     1     -28.208   6.557 -27.100  1.00  0.00     0.188 HD
ATOM     18  H11 UNL     1     -29.337   7.830 -25.295  1.00  0.00     0.209 HD
BRANCH  14  19
HETATM   19  C11 UNL     1     -29.972   5.207 -28.905  1.00  0.00     0.102 C
BRANCH  19  20
HETATM   20  C12 UNL     1     -29.691   5.964 -30.167  1.00  0.00     0.277 C
BRANCH  20  21
HETATM   21  N8  UNL     1     -30.939   6.148 -30.912  1.00  0.00    -0.067 N
ATOM     22  H83 UNL     1     -30.791   6.142 -31.921  1.00  0.00     0.275 HD
ATOM     23  H82 UNL     1     -31.550   5.333 -30.850  1.00  0.00     0.275 HD
ATOM     24  H81 UNL     1     -31.401   7.000 -30.595  1.00  0.00     0.275 HD
ENDBRANCH  20  21
BRANCH  20  25
HETATM   25  C13 UNL     1     -28.680   5.380 -31.044  1.00  0.00     0.262 C
HETATM   26  N9  UNL     1     -27.303   5.750 -30.841  1.00  0.00    -0.060 NA
HETATM   27  O2  UNL     1     -28.887   4.570 -31.980  1.00  0.00    -0.275 OA
ENDBRANCH  20  25
ENDBRANCH  19  20
ENDBRANCH  14  19
ENDBRANCH  11  12
BRANCH   1  28
HETATM   28  N1  UNL     1     -31.481   5.141 -24.292  1.00  0.00    -0.344 N
ATOM     29  H12 UNL     1     -31.831   4.826 -25.197  1.00  0.00     0.176 HD
ATOM     30  H11 UNL     1     -30.625   4.683 -23.979  1.00  0.00     0.176 HD
ENDBRANCH   1  28
BRANCH   6  31
HETATM   31  N4  UNL     1     -34.535   9.885 -22.792  1.00  0.00    -0.134 N
ATOM     32  H4  UNL     1     -34.651  10.878 -22.996  1.00  0.00     0.205 HD
BRANCH  31  33
HETATM   33  N5  UNL     1     -35.256   9.442 -21.725  1.00  0.00    -0.310 N
HETATM   34  C3  UNL     1     -36.507   8.788 -21.921  1.00  0.00     0.169 C
HETATM   35  C4  UNL     1     -37.494   9.387 -20.941  1.00  0.00     0.189 C
HETATM   36  O1  UNL     1     -36.983   9.486 -19.671  1.00  0.00    -0.388 OA
HETATM   37  C5  UNL     1     -35.859  10.320 -19.614  1.00  0.00     0.189 C
HETATM   38  C6  UNL     1     -34.772   9.611 -20.394  1.00  0.00     0.169 C
ENDBRANCH  31  33
ENDBRANCH   6  31
TORSDOF 8
ENDMDL