MODEL 2
REMARK VINA RESULT: -6.798454782      6.563     10.697
REMARK  10 active torsions:
REMARK  status: ('A' for Active; 'I' for Inactive)
REMARK    1  A    between atoms: C3_3  and  O1_4
REMARK    2  A    between atoms: C4_6  and  O2_7
REMARK    3  A    between atoms: C6_10  and  O3_11
REMARK    4  A    between atoms: O3_11  and  C7_12
REMARK    5  A    between atoms: C7_12  and  C8_13
REMARK    6  A    between atoms: C8_13  and  O4_14
REMARK    7  A    between atoms: C11_21  and  C12_22
REMARK    8  A    between atoms: C12_22  and  C14_25
REMARK    9  A    between atoms: C14_25  and  O7_27
REMARK   10  A    between atoms: N3_29  and  O8_30
ROOT
HETATM    1  C12 UNL     1     -36.375  11.020 -20.009  1.00  0.00     0.165 C
HETATM    2  C13 UNL     1     -36.009  12.442 -19.765  1.00  0.00     0.110 C
HETATM    3  N2  UNL     1     -35.707  13.537 -19.586  1.00  0.00    -0.191 NA
ENDROOT
BRANCH   1   4
HETATM    4  C11 UNL     1     -35.480  10.311 -20.651  1.00  0.00     0.164 A
HETATM    5  N1  UNL     1     -35.293  10.322 -22.017  1.00  0.00    -0.332 N
HETATM    6  C10 UNL     1     -34.333   9.521 -22.403  1.00  0.00     0.140 A
ATOM      7  H1  UNL     1     -35.844  10.893 -22.657  1.00  0.00     0.168 HD
HETATM    8  C9  UNL     1     -33.779   9.179 -23.544  1.00  0.00     0.121 A
HETATM    9  C16 UNL     1     -33.864   8.952 -21.202  1.00  0.00     0.303 A
HETATM   10  C2  UNL     1     -34.113   9.642 -24.844  1.00  0.00     0.027 A
HETATM   11  O5  UNL     1     -32.721   8.236 -23.494  1.00  0.00    -0.302 OA
HETATM   12  C1  UNL     1     -35.046  10.502 -25.110  1.00  0.00     0.029 C
HETATM   13  C3  UNL     1     -33.368   9.137 -26.038  1.00  0.00     0.114 A
HETATM   14  C4  UNL     1     -32.403   8.267 -25.909  1.00  0.00     0.136 A
HETATM   15  C5  UNL     1     -32.039   7.774 -24.589  1.00  0.00     0.134 A
HETATM   16  C6  UNL     1     -31.049   6.884 -24.480  1.00  0.00     0.174 C
HETATM   17  N3  UNL     1     -34.585   9.459 -20.189  1.00  0.00    -0.167 N
HETATM   18  O9  UNL     1     -32.941   8.117 -21.070  1.00  0.00    -0.263 OA
BRANCH  13  19
HETATM   19  O1  UNL     1     -33.689   9.588 -27.325  1.00  0.00    -0.357 OA
ATOM     20  H1  UNL     1     -33.241  10.336 -27.703  1.00  0.00     0.217 HD
ENDBRANCH  13  19
BRANCH  14  21
HETATM   21  O2  UNL     1     -31.704   7.791 -27.022  1.00  0.00    -0.356 OA
ATOM     22  H2  UNL     1     -31.743   6.876 -27.274  1.00  0.00     0.218 HD
ENDBRANCH  14  21
BRANCH  16  23
HETATM   23  O3  UNL     1     -30.382   6.436 -25.585  1.00  0.00    -0.358 OA
BRANCH  23  24
HETATM   24  C7  UNL     1     -30.250   5.054 -25.910  1.00  0.00     0.200 C
BRANCH  24  25
HETATM   25  C8  UNL     1     -29.317   4.870 -27.092  1.00  0.00     0.190 C
BRANCH  25  26
HETATM   26  O4  UNL     1     -29.194   6.077 -27.774  1.00  0.00    -0.399 OA
ATOM     27  H4  UNL     1     -28.357   6.101 -28.222  1.00  0.00     0.209 HD
ENDBRANCH  25  26
ENDBRANCH  24  25
ENDBRANCH  23  24
ENDBRANCH  16  23
BRANCH  17  28
HETATM   28  O8  UNL     1     -34.333   9.067 -18.880  1.00  0.00    -0.278 OA
ATOM     29  H8  UNL     1     -33.504   8.996 -18.420  1.00  0.00     0.245 HD
ENDBRANCH  17  28
ENDBRANCH   1   4
BRANCH   1  30
HETATM   30  C14 UNL     1     -37.656  10.634 -19.503  1.00  0.00     0.307 C
HETATM   31  O6  UNL     1     -38.488  11.332 -18.914  1.00  0.00    -0.258 OA
BRANCH  30  32
HETATM   32  O7  UNL     1     -38.102   9.285 -19.661  1.00  0.00    -0.322 OA
HETATM   33  C15 UNL     1     -39.256   9.011 -20.427  1.00  0.00     0.213 C
ENDBRANCH  30  32
ENDBRANCH   1  30
TORSDOF 10
ENDMDL