MODEL 5
REMARK VINA RESULT: -6.730286445      6.996     13.019
REMARK  8 active torsions:
REMARK  status: ('A' for Active; 'I' for Inactive)
REMARK    1  A    between atoms: N1_1  and  C1_4
REMARK    2  A    between atoms: C2_7  and  N3_8
REMARK    3  A    between atoms: N4_11  and  C5_12
REMARK    4  A    between atoms: C6_15  and  N6_16
REMARK    5  A    between atoms: C11_26  and  N9_27
REMARK    6  A    between atoms: N9_27  and  C12_29
REMARK    7  A    between atoms: C12_29  and  C13_30
REMARK    8  A    between atoms: C13_30  and  O1_31
ROOT
HETATM    1  C5  UNL     1     -34.658   8.951 -23.497  1.00  0.00     0.710 A
HETATM    2  N5  UNL     1     -35.654   8.014 -23.470  1.00  0.00    -0.021 N
ATOM      3  H5  UNL     1     -35.586   7.213 -24.097  1.00  0.00     0.203 HD
HETATM    4  C6  UNL     1     -36.718   8.104 -22.657  1.00  0.00     0.709 A
HETATM    5  N8  UNL     1     -36.769   9.169 -21.855  1.00  0.00    -0.021 N
ATOM      6  H8  UNL     1     -37.566   9.265 -21.225  1.00  0.00     0.203 HD
HETATM    7  C11 UNL     1     -35.818  10.125 -21.836  1.00  0.00     0.707 A
HETATM    8  N10 UNL     1     -34.771   9.998 -22.664  1.00  0.00    -0.021 N
ATOM      9  H10 UNL     1     -34.044  10.712 -22.662  1.00  0.00     0.203 HD
ENDROOT
BRANCH   1  10
HETATM   10  N4  UNL     1     -33.555   8.816 -24.369  1.00  0.00    -0.198 N
HETATM   11  C4  UNL     1     -33.025   9.844 -25.222  1.00  0.00     0.163 C
HETATM   12  C3  UNL     1     -32.656   9.031 -26.474  1.00  0.00     0.163 C
HETATM   13  N3  UNL     1     -32.109   7.832 -25.868  1.00  0.00    -0.199 N
HETATM   14  C14 UNL     1     -32.742   7.638 -24.577  1.00  0.00     0.286 C
BRANCH  13  15
HETATM   15  C2  UNL     1     -31.121   6.998 -26.453  1.00  0.00     0.697 A
HETATM   16  N2  UNL     1     -30.555   7.262 -27.643  1.00  0.00    -0.022 N
HETATM   17  C1  UNL     1     -29.616   6.464 -28.193  1.00  0.00     0.691 A
ATOM     18  H2  UNL     1     -30.846   8.098 -28.150  1.00  0.00     0.203 HD
HETATM   19  N12 UNL     1     -29.215   5.360 -27.547  1.00  0.00    -0.187 N
HETATM   20  C15 UNL     1     -29.762   5.073 -26.361  1.00  0.00     0.215 A
ATOM     21  H12 UNL     1     -28.505   4.750 -27.953  1.00  0.00     0.185 HD
HETATM   22  N11 UNL     1     -30.704   5.885 -25.823  1.00  0.00    -0.187 N
ATOM     23  H11 UNL     1     -31.107   5.646 -24.917  1.00  0.00     0.185 HD
BRANCH  17  24
HETATM   24  N1  UNL     1     -29.075   6.723 -29.339  1.00  0.00    -0.234 N
ATOM     25  H12 UNL     1     -28.317   7.406 -29.364  1.00  0.00     0.174 HD
ATOM     26  H11 UNL     1     -29.381   6.272 -30.201  1.00  0.00     0.174 HD
ENDBRANCH  17  24
ENDBRANCH  13  15
ENDBRANCH   1  10
BRANCH   4  27
HETATM   27  N6  UNL     1     -37.725   7.093 -22.676  1.00  0.00    -0.213 N
HETATM   28  C7  UNL     1     -37.918   6.192 -23.773  1.00  0.00     0.168 C
HETATM   29  C8  UNL     1     -39.241   5.488 -23.563  1.00  0.00     0.252 C
HETATM   30  N7  UNL     1     -39.325   4.789 -22.319  1.00  0.00    -0.072 N
HETATM   31  C9  UNL     1     -38.659   5.454 -21.223  1.00  0.00     0.252 C
ATOM     32  H72 UNL     1     -40.298   4.596 -22.082  1.00  0.00     0.277 HD
ATOM     33  H71 UNL     1     -38.980   3.834 -22.420  1.00  0.00     0.277 HD
HETATM   34  C10 UNL     1     -38.611   6.950 -21.534  1.00  0.00     0.168 C
ENDBRANCH   4  27
BRANCH   7  35
HETATM   35  N9  UNL     1     -35.873  11.144 -21.066  1.00  0.00    -0.223 N
ATOM     36  H9  UNL     1     -35.953  12.077 -21.471  1.00  0.00     0.177 HD
BRANCH  35  37
HETATM   37  C12 UNL     1     -35.823  10.993 -19.637  1.00  0.00     0.164 C
BRANCH  37  38
HETATM   38  C13 UNL     1     -37.175  11.396 -19.070  1.00  0.00     0.184 C
BRANCH  38  39
HETATM   39  O1  UNL     1     -38.070  10.334 -19.257  1.00  0.00    -0.399 OA
ATOM     40  H1  UNL     1     -38.947  10.643 -19.067  1.00  0.00     0.209 HD
ENDBRANCH  38  39
ENDBRANCH  37  38
ENDBRANCH  35  37
ENDBRANCH   7  35
TORSDOF 8
ENDMDL