MODEL 1
REMARK VINA RESULT: -3.529647492      0.000      0.000
REMARK  2 active torsions:
REMARK  status: ('A' for Active; 'I' for Inactive)
REMARK    1  A    between atoms: O1_2  and  C2_3
REMARK    2  A    between atoms: C2_3  and  N1_5
ROOT
HETATM    1  N1  UNL     1       0.947 101.345  23.742  1.00  0.00    -0.277 N
ATOM      2  H1  UNL     1       0.595 100.606  23.133  1.00  0.00     0.189 HD
HETATM    3  N2  UNL     1       0.290 102.410  23.801  1.00  0.00    -0.343 N
ATOM      4  H21 UNL     1      -0.570 102.592  23.284  1.00  0.00     0.176 HD
ATOM      5  H22 UNL     1       0.656 103.137  24.414  1.00  0.00     0.176 HD
ENDROOT
BRANCH   1   6
HETATM    6  C2  UNL     1       2.142 101.092  24.459  1.00  0.00     0.228 C
HETATM    7  S1  UNL     1       3.537 101.877  24.130  1.00  0.00    -0.032 SA
BRANCH   6   8
HETATM    8  O1  UNL     1       2.114 100.153  25.461  1.00  0.00    -0.331 OA
HETATM    9  C1  UNL     1       1.173 100.137  26.517  1.00  0.00     0.212 C
ENDBRANCH   6   8
ENDBRANCH   1   6
TORSDOF 2
ENDMDL