MODEL 5
REMARK VINA RESULT: -3.343341890      1.567      2.051
REMARK  2 active torsions:
REMARK  status: ('A' for Active; 'I' for Inactive)
REMARK    1  A    between atoms: N1_2  and  O1_4
REMARK    2  A    between atoms: O1_4  and  C2_5
ROOT
HETATM    1  O1  UNL     1       2.119 103.021  24.497  1.00  0.00    -0.275 OA
ENDROOT
BRANCH   1   2
HETATM    2  N1  UNL     1       3.067 102.468  23.760  1.00  0.00    -0.306 N
HETATM    3  C1  UNL     1       4.232 103.264  23.557  1.00  0.00     0.175 C
ATOM      4  H1  UNL     1       2.971 101.534  23.362  1.00  0.00     0.186 HD
ENDBRANCH   1   2
BRANCH   1   5
HETATM    5  C2  UNL     1       1.191 102.138  25.011  1.00  0.00     0.077 C
HETATM    6  C3  UNL     1       0.060 101.962  24.018  1.00  0.00     0.048 C
HETATM    7  C4  UNL     1       0.607 102.538  26.317  1.00  0.00     0.048 C
HETATM    8  C5  UNL     1       1.829 100.753  25.171  1.00  0.00     0.048 C
ENDBRANCH   1   5
TORSDOF 2
ENDMDL