MODEL 5
REMARK VINA RESULT: -4.071881060      2.054      2.845
REMARK  1 active torsions:
REMARK  status: ('A' for Active; 'I' for Inactive)
REMARK    1  A    between atoms: C6_7  and  N1_8
ROOT
HETATM    1  C1  UNL     1       0.238 103.006  24.085  1.00  0.00     0.012 C
HETATM    2  C2  UNL     1       1.207 102.526  25.173  1.00  0.00     0.016 C
HETATM    3  C3  UNL     1       2.404 101.984  24.486  1.00  0.00     0.032 C
HETATM    4  C4  UNL     1       2.438 100.470  24.544  1.00  0.00     0.168 C
HETATM    5  O1  UNL     1       2.458 100.175  25.918  1.00  0.00    -0.389 OA
HETATM    6  C5  UNL     1       1.177 100.308  26.383  1.00  0.00     0.200 C
HETATM    7  C6  UNL     1       0.547 101.638  26.150  1.00  0.00     0.210 C
ENDROOT
BRANCH   7   8
HETATM    8  N1  UNL     1       0.374 102.269  27.443  1.00  0.00    -0.073 N
ATOM      9  H13 UNL     1       0.975 101.838  28.146  1.00  0.00     0.274 HD
ATOM     10  H12 UNL     1       0.765 103.210  27.448  1.00  0.00     0.274 HD
ATOM     11  H11 UNL     1      -0.599 102.274  27.747  1.00  0.00     0.274 HD
ENDBRANCH   7   8
TORSDOF 1
ENDMDL