MODEL 4
REMARK VINA RESULT: -3.745099506      1.559      2.738
REMARK  0 active torsions:
REMARK  status: ('A' for Active; 'I' for Inactive)
ROOT
HETATM    1  C1  UNL     1       1.985 101.066  24.513  1.00  0.00     0.013 C
HETATM    2  C2  UNL     1       0.898 102.041  24.238  1.00  0.00     0.022 C
HETATM    3  C3  UNL     1      -0.248 101.787  25.233  1.00  0.00     0.136 C
HETATM    4  N1  UNL     1      -0.131 102.837  26.198  1.00  0.00    -0.147 NA
HETATM    5  N2  UNL     1       1.050 103.517  25.975  1.00  0.00    -0.139 NA
HETATM    6  C4  UNL     1       1.226 103.462  24.562  1.00  0.00     0.044 C
HETATM    7  C5  UNL     1       2.539 103.935  24.065  1.00  0.00     0.035 C
HETATM    8  C6  UNL     1       0.145 104.343  23.932  1.00  0.00     0.035 C
ENDROOT
TORSDOF 0
ENDMDL