MODEL 5
REMARK VINA RESULT: -4.408496942      1.577      2.485
REMARK  1 active torsions:
REMARK  status: ('A' for Active; 'I' for Inactive)
REMARK    1  A    between atoms: N1_5  and  N2_6
ROOT
HETATM    1  C1  UNL     1       2.664 103.398  24.044  1.00  0.00     0.010 C
HETATM    2  C2  UNL     1       1.560 102.471  24.458  1.00  0.00    -0.016 C
HETATM    3  C3  UNL     1       1.121 102.678  25.890  1.00  0.00     0.020 C
HETATM    4  C4  UNL     1       0.424 101.380  26.312  1.00  0.00     0.113 C
HETATM    5  N1  UNL     1       1.479 100.451  26.628  1.00  0.00    -0.238 NA
HETATM    6  C5  UNL     1       2.525 100.480  25.643  1.00  0.00     0.113 C
HETATM    7  C6  UNL     1       2.067 101.053  24.315  1.00  0.00     0.020 C
ENDROOT
BRANCH   5   8
HETATM    8  N2  UNL     1       1.037  99.190  26.960  1.00  0.00    -0.363 NA
ATOM      9  H22 UNL     1       1.777  98.518  27.158  1.00  0.00     0.171 HD
ATOM     10  H21 UNL     1       0.343  98.809  26.315  1.00  0.00     0.171 HD
ENDBRANCH   5   8
TORSDOF 1
ENDMDL