MODEL 4
REMARK VINA RESULT: -3.877764817      2.207      3.198
REMARK  1 active torsions:
REMARK  status: ('A' for Active; 'I' for Inactive)
REMARK    1  A    between atoms: C2_2  and  C3_6
ROOT
HETATM    1  C1  UNL     1       3.582  99.986  24.737  1.00  0.00     0.070 C
HETATM    2  C2  UNL     1       2.282 100.688  24.737  1.00  0.00     0.034 C
HETATM    3  N1  UNL     1       2.007 101.391  23.705  1.00  0.00    -0.400 N
ATOM      4  H11 UNL     1       1.109 101.876  23.705  1.00  0.00     0.156 HD
ATOM      5  H12 UNL     1       2.689 101.428  22.948  1.00  0.00     0.156 HD
ENDROOT
BRANCH   2   6
HETATM    6  C3  UNL     1       1.311 100.636  25.814  1.00  0.00     0.134 C
HETATM    7  N2  UNL     1       1.356  99.624  26.806  1.00  0.00    -0.088 NA
HETATM    8  S1  UNL     1       0.108 101.745  25.945  1.00  0.00    -0.062 SA
ENDBRANCH   2   6
TORSDOF 1
ENDMDL