MODEL 4
REMARK VINA RESULT: -4.066464327      2.947      3.316
REMARK  2 active torsions:
REMARK  status: ('A' for Active; 'I' for Inactive)
REMARK    1  A    between atoms: C3_3  and  C4_4
REMARK    2  A    between atoms: C4_4  and  N1_7
ROOT
HETATM    1  C1  UNL     1       3.466  98.787  26.214  1.00  0.00     0.112 C
HETATM    2  C2  UNL     1       2.725  99.936  25.720  1.00  0.00    -0.108 C
HETATM    3  C3  UNL     1       2.122 100.898  25.324  1.00  0.00    -0.075 C
ENDROOT
BRANCH   3   4
HETATM    4  C4  UNL     1       1.402 102.069  24.869  1.00  0.00     0.100 C
HETATM    5  C5  UNL     1       2.360 103.109  24.407  1.00  0.00     0.054 C
HETATM    6  C6  UNL     1       0.552 102.569  26.033  1.00  0.00     0.054 C
BRANCH   4   7
HETATM    7  N1  UNL     1       0.478 101.775  23.801  1.00  0.00    -0.322 N
HETATM    8  N2  UNL     1      -0.716 102.175  23.839  1.00  0.00    -0.348 N
ATOM      9  H22 UNL     1      -1.019 102.717  24.649  1.00  0.00     0.176 HD
ATOM     10  H21 UNL     1      -1.369 101.967  23.084  1.00  0.00     0.176 HD
ATOM     11  H1  UNL     1       0.797 101.233  22.999  1.00  0.00     0.181 HD
ENDBRANCH   4   7
ENDBRANCH   3   4
TORSDOF 2
ENDMDL