MODEL 5
REMARK VINA RESULT: -3.298213015      1.945      2.673
REMARK  0 active torsions:
REMARK  status: ('A' for Active; 'I' for Inactive)
ROOT
HETATM    1  C1  UNL     1       1.093 100.232  26.505  1.00  0.00     0.040 C
HETATM    2  C2  UNL     1       1.006 101.423  25.631  1.00  0.00     0.186 C
HETATM    3  C3  UNL     1       1.250 101.262  24.169  1.00  0.00     0.077 C
HETATM    4  C4  UNL     1       0.179 102.361  24.099  1.00  0.00     0.260 C
HETATM    5  S1  UNL     1       0.787 103.981  24.587  1.00  0.00    -0.062 SA
HETATM    6  N1  UNL     1      -0.399 101.684  25.275  1.00  0.00    -0.057 N
ATOM      7  H11 UNL     1      -1.050 102.146  25.909  1.00  0.00     0.279 HD
ATOM      8  H12 UNL     1      -1.092 100.940  25.194  1.00  0.00     0.279 HD
ENDROOT
TORSDOF 0
ENDMDL