MODEL 5
REMARK VINA RESULT: -3.710682901      2.551      2.989
REMARK  0 active torsions:
REMARK  status: ('A' for Active; 'I' for Inactive)
ROOT
HETATM    1  C1  UNL     1       1.980 100.711  25.104  1.00  0.00     0.031 C
HETATM    2  C2  UNL     1       1.968 101.938  24.258  1.00  0.00     0.117 C
HETATM    3  N1  UNL     1       3.156 102.759  24.413  1.00  0.00    -0.123 NA
HETATM    4  N2  UNL     1       2.724 104.080  24.526  1.00  0.00    -0.039 NA
HETATM    5  N3  UNL     1       1.423 104.120  23.970  1.00  0.00    -0.119 NA
HETATM    6  C3  UNL     1       0.875 102.917  24.624  1.00  0.00     0.059 C
HETATM    7  C4  UNL     1      -0.458 102.567  24.077  1.00  0.00     0.037 C
HETATM    8  C5  UNL     1       0.869 103.199  26.096  1.00  0.00     0.037 C
ENDROOT
TORSDOF 0
ENDMDL