MODEL 1
REMARK VINA RESULT: -3.657060445      0.000      0.000
REMARK  2 active torsions:
REMARK  status: ('A' for Active; 'I' for Inactive)
REMARK    1  A    between atoms: N1_2  and  N2_4
REMARK    2  A    between atoms: N2_4  and  C2_6
ROOT
HETATM    1  N2  UNL     1       1.342 101.517  23.816  1.00  0.00    -0.285 N
ATOM      2  H2  UNL     1       1.942 101.835  23.055  1.00  0.00     0.188 HD
ENDROOT
BRANCH   1   3
HETATM    3  N1  UNL     1      -0.014 101.838  23.757  1.00  0.00    -0.321 N
HETATM    4  C1  UNL     1      -0.446 103.043  23.982  1.00  0.00     0.139 C
ATOM      5  H1  UNL     1      -0.687 101.106  23.532  1.00  0.00     0.185 HD
ENDBRANCH   1   3
BRANCH   1   6
HETATM    6  C2  UNL     1       1.933 100.784  24.855  1.00  0.00     0.164 C
HETATM    7  S1  UNL     1       3.434 100.149  24.785  1.00  0.00    -0.050 SA
HETATM    8  S2  UNL     1       1.000 100.522  26.352  1.00  0.00    -0.019 SA
ENDBRANCH   1   6
TORSDOF 2
ENDMDL