MODEL 3
REMARK VINA RESULT: -7.701782480      2.747      7.078
REMARK  7 active torsions:
REMARK  status: ('A' for Active; 'I' for Inactive)
REMARK    1  A    between atoms: C2_2  and  C3_3
REMARK    2  A    between atoms: C3_3  and  C4_4
REMARK    3  A    between atoms: C4_4  and  S1_5
REMARK    4  A    between atoms: S1_5  and  C5_6
REMARK    5  A    between atoms: C7_8  and  O1_9
REMARK    6  A    between atoms: C19_23  and  C20_24
REMARK    7  A    between atoms: C20_24  and  O3_25
ROOT
HETATM    1  C5  UNL     1      67.713  50.739  10.259  1.00  0.00     0.034 C
HETATM    2  C6  UNL     1      67.643  52.255  10.036  1.00  0.00     0.030 C
HETATM    3  C7  UNL     1      66.550  50.128   9.550  1.00  0.00     0.136 C
HETATM    4  C8  UNL     1      66.616  48.653   9.873  1.00  0.00     0.034 C
HETATM    5  C9  UNL     1      67.858  47.993   9.405  1.00  0.00     0.008 C
HETATM    6  C10 UNL     1      69.031  48.866   9.153  1.00  0.00    -0.004 C
HETATM    7  C11 UNL     1      70.201  48.253   9.893  1.00  0.00    -0.005 C
HETATM    8  C12 UNL     1      70.329  46.810   9.438  1.00  0.00     0.006 C
HETATM    9  C13 UNL     1      71.796  46.451   9.425  1.00  0.00     0.018 C
HETATM   10  C14 UNL     1      72.468  47.314   8.397  1.00  0.00     0.027 C
HETATM   11  C15 UNL     1      71.903  46.926   7.043  1.00  0.00     0.024 C
HETATM   12  C16 UNL     1      73.912  46.946   8.366  1.00  0.00     0.136 C
HETATM   13  O2  UNL     1      74.296  45.812   8.205  1.00  0.00    -0.297 OA
HETATM   14  C17 UNL     1      74.730  48.146   8.557  1.00  0.00     0.080 C
HETATM   15  C18 UNL     1      73.793  49.127   9.163  1.00  0.00     0.020 C
HETATM   16  C19 UNL     1      72.374  48.769   8.693  1.00  0.00    -0.001 C
HETATM   17  C21 UNL     1      71.469  49.002   9.874  1.00  0.00     0.002 C
HETATM   18  C22 UNL     1      71.235  50.411  10.248  1.00  0.00     0.006 C
HETATM   19  C23 UNL     1      70.061  51.106   9.690  1.00  0.00     0.007 C
HETATM   20  C24 UNL     1      68.892  50.313   9.271  1.00  0.00     0.011 C
ENDROOT
BRANCH   1  21
HETATM   21  S1  UNL     1      68.118  50.252  11.852  1.00  0.00    -0.156 SA
BRANCH  21  22
HETATM   22  C4  UNL     1      68.696  51.145  13.174  1.00  0.00     0.075 C
BRANCH  22  23
HETATM   23  C3  UNL     1      69.939  51.935  13.244  1.00  0.00     0.010 C
BRANCH  23  24
HETATM   24  C2  UNL     1      70.845  51.563  14.348  1.00  0.00    -0.004 C
HETATM   25  C1  UNL     1      72.130  50.897  13.823  1.00  0.00     0.005 C
ENDBRANCH  23  24
ENDBRANCH  22  23
ENDBRANCH  21  22
ENDBRANCH   1  21
BRANCH   3  26
HETATM   26  O1  UNL     1      66.629  50.261   8.143  1.00  0.00    -0.394 OA
ATOM     27  H1  UNL     1      65.782  50.399   7.736  1.00  0.00     0.210 HD
ENDBRANCH   3  26
BRANCH  16  28
HETATM   28  C20 UNL     1      72.136  49.632   7.511  1.00  0.00     0.175 C
BRANCH  28  29
HETATM   29  O3  UNL     1      73.131  50.642   7.543  1.00  0.00    -0.400 OA
ATOM     30  H3  UNL     1      73.805  50.378   6.927  1.00  0.00     0.209 HD
ENDBRANCH  28  29
ENDBRANCH  16  28
TORSDOF 7
ENDMDL