MODEL 4
REMARK VINA RESULT: -7.222420023      2.199      7.717
REMARK  9 active torsions:
REMARK  status: ('A' for Active; 'I' for Inactive)
REMARK    1  A    between atoms: C2_2  and  C3_3
REMARK    2  A    between atoms: C3_3  and  C5_5
REMARK    3  A    between atoms: C5_5  and  C6_6
REMARK    4  A    between atoms: C6_6  and  O1_7
REMARK    5  A    between atoms: C6_6  and  C7_9
REMARK    6  A    between atoms: C8_10  and  C9_11
REMARK    7  A    between atoms: C9_11  and  C11_13
REMARK    8  A    between atoms: C16_18  and  O2_19
REMARK    9  A    between atoms: C19_22  and  O3_23
ROOT
HETATM    1  C11 UNL     1      69.696  50.190   9.939  1.00  0.00    -0.006 C
HETATM    2  C12 UNL     1      70.322  51.148   8.921  1.00  0.00     0.019 C
HETATM    3  C13 UNL     1      70.429  50.180  11.221  1.00  0.00     0.013 C
HETATM    4  C14 UNL     1      70.409  51.379  12.083  1.00  0.00     0.010 C
HETATM    5  C15 UNL     1      69.062  51.935  12.494  1.00  0.00     0.044 C
HETATM    6  C16 UNL     1      68.174  50.745  12.721  1.00  0.00     0.130 C
HETATM    7  C18 UNL     1      67.721  50.050  11.495  1.00  0.00     0.071 C
HETATM    8  C19 UNL     1      68.234  50.504  10.170  1.00  0.00     0.069 C
HETATM    9  C20 UNL     1      67.746  51.856   9.733  1.00  0.00     0.053 C
HETATM   10  C21 UNL     1      67.441  52.850  10.773  1.00  0.00     0.011 C
HETATM   11  C22 UNL     1      66.065  52.845  11.384  1.00  0.00     0.020 C
HETATM   12  C23 UNL     1      67.770  54.307  10.626  1.00  0.00     0.128 C
HETATM   13  C24 UNL     1      68.740  54.816   9.677  1.00  0.00     0.040 C
HETATM   14  O4  UNL     1      68.109  54.219  12.011  1.00  0.00    -0.379 OA
HETATM   15  C25 UNL     1      68.636  52.997  11.649  1.00  0.00     0.139 C
ENDROOT
BRANCH   1  16
HETATM   16  C9  UNL     1      69.929  48.849   9.256  1.00  0.00     0.015 C
HETATM   17  C10 UNL     1      70.384  47.718  10.099  1.00  0.00     0.015 C
BRANCH  16  18
HETATM   18  C8  UNL     1      70.943  48.930   8.167  1.00  0.00    -0.023 C
HETATM   19  C7  UNL     1      71.504  47.878   7.591  1.00  0.00     0.001 C
BRANCH  19  20
HETATM   20  C6  UNL     1      72.499  47.997   6.521  1.00  0.00     0.141 C
BRANCH  20  21
HETATM   21  C5  UNL     1      73.293  49.245   6.710  1.00  0.00     0.040 C
BRANCH  21  22
HETATM   22  C3  UNL     1      74.555  49.036   7.505  1.00  0.00    -0.016 C
HETATM   23  C4  UNL     1      74.882  47.588   7.716  1.00  0.00     0.010 C
BRANCH  22  24
HETATM   24  C2  UNL     1      74.402  49.689   8.863  1.00  0.00    -0.000 C
HETATM   25  C1  UNL     1      74.174  48.692   9.955  1.00  0.00     0.005 C
ENDBRANCH  22  24
ENDBRANCH  21  22
ENDBRANCH  20  21
BRANCH  20  26
HETATM   26  O1  UNL     1      71.817  48.116   5.289  1.00  0.00    -0.392 OA
ATOM     27  H1  UNL     1      71.358  47.298   5.140  1.00  0.00     0.210 HD
ENDBRANCH  20  26
ENDBRANCH  19  20
ENDBRANCH  16  18
ENDBRANCH   1  16
BRANCH   8  28
HETATM   28  O3  UNL     1      67.561  49.610   9.281  1.00  0.00    -0.389 OA
ATOM     29  H3  UNL     1      66.659  49.645   9.577  1.00  0.00     0.210 HD
ENDBRANCH   8  28
BRANCH   6  30
HETATM   30  O2  UNL     1      67.138  51.009  13.620  1.00  0.00    -0.390 OA
HETATM   31  C17 UNL     1      66.072  50.157  13.547  1.00  0.00     0.202 C
ENDBRANCH   6  30
TORSDOF 9
ENDMDL