MODEL 3
REMARK VINA RESULT: -8.156176026      0.768      1.408
REMARK  6 active torsions:
REMARK  status: ('A' for Active; 'I' for Inactive)
REMARK    1  A    between atoms: C3_3  and  N1_4
REMARK    2  A    between atoms: N1_4  and  C4_6
REMARK    3  A    between atoms: C7_9  and  N2_10
REMARK    4  A    between atoms: N2_10  and  C8_12
REMARK    5  A    between atoms: C20_24  and  C21_25
REMARK    6  A    between atoms: C21_25  and  N3_26
ROOT
HETATM    1  C4  UNL     1      72.761  48.474  10.908  1.00  0.00     0.082 C
HETATM    2  C5  UNL     1      74.044  48.983  10.254  1.00  0.00     0.027 C
HETATM    3  C6  UNL     1      74.754  47.788   9.629  1.00  0.00     0.027 C
HETATM    4  C7  UNL     1      73.748  46.820   9.081  1.00  0.00     0.077 C
HETATM    5  C16 UNL     1      73.159  46.090  10.270  1.00  0.00     0.027 C
HETATM    6  C17 UNL     1      73.085  47.079  11.413  1.00  0.00     0.027 C
ENDROOT
BRANCH   1   7
HETATM    7  N1  UNL     1      72.501  49.308  12.056  1.00  0.00    -0.385 N
ATOM      8  H1  UNL     1      73.220  49.445  12.767  1.00  0.00     0.160 HD
BRANCH   7   9
HETATM    9  C3  UNL     1      71.237  49.933  12.185  1.00  0.00     0.028 A
HETATM   10  C2  UNL     1      71.006  50.971  13.056  1.00  0.00     0.029 A
HETATM   11  C1  UNL     1      69.751  51.560  13.160  1.00  0.00     0.011 A
HETATM   12  C20 UNL     1      68.674  51.143  12.403  1.00  0.00    -0.030 A
HETATM   13  C19 UNL     1      68.898  50.102  11.529  1.00  0.00     0.011 A
HETATM   14  C18 UNL     1      70.139  49.516  11.422  1.00  0.00     0.029 A
BRANCH  12  15
HETATM   15  C21 UNL     1      67.346  51.805  12.570  1.00  0.00     0.311 C
BRANCH  15  16
HETATM   16  N3  UNL     1      66.850  52.458  11.422  1.00  0.00     0.096 N
HETATM   17  C22 UNL     1      67.600  53.552  10.951  1.00  0.00     0.299 C
HETATM   18  C23 UNL     1      67.124  54.919  11.318  1.00  0.00     0.198 C
HETATM   19  O1  UNL     1      65.761  55.079  11.219  1.00  0.00    -0.388 OA
HETATM   20  C24 UNL     1      65.187  54.136  12.079  1.00  0.00     0.198 C
HETATM   21  C25 UNL     1      65.456  52.751  11.558  1.00  0.00     0.299 C
ENDBRANCH  15  16
ENDBRANCH  12  15
ENDBRANCH   7   9
ENDBRANCH   1   7
BRANCH   4  22
HETATM   22  N2  UNL     1      74.086  46.027   7.996  1.00  0.00    -0.413 N
ATOM     23  H2  UNL     1      75.045  45.681   7.955  1.00  0.00     0.154 HD
BRANCH  22  24
HETATM   24  C8  UNL     1      73.242  45.663   6.961  1.00  0.00     0.077 C
HETATM   25  C9  UNL     1      73.772  45.242   5.646  1.00  0.00     0.024 C
HETATM   26  C10 UNL     1      74.538  46.240   4.858  1.00  0.00     0.002 C
HETATM   27  C11 UNL     1      73.674  46.979   3.864  1.00  0.00     0.000 C
HETATM   28  C12 UNL     1      73.658  48.438   4.270  1.00  0.00     0.000 C
HETATM   29  C13 UNL     1      72.519  48.666   5.203  1.00  0.00     0.000 C
HETATM   30  C14 UNL     1      72.797  48.134   6.614  1.00  0.00     0.002 C
HETATM   31  C15 UNL     1      72.210  46.783   6.752  1.00  0.00     0.024 C
ENDBRANCH  22  24
ENDBRANCH   4  22
TORSDOF 6
ENDMDL