MODEL 3
REMARK VINA RESULT: -7.758414141      3.848      6.769
REMARK  6 active torsions:
REMARK  status: ('A' for Active; 'I' for Inactive)
REMARK    1  A    between atoms: C2_2  and  N1_3
REMARK       I    between atoms: N1_3  and  C3_5
REMARK    2  A    between atoms: C3_5  and  C4_7
REMARK    3  A    between atoms: C4_7  and  S1_8
REMARK    4  A    between atoms: S1_8  and  C5_9
REMARK    5  A    between atoms: C8_13  and  C9_14
REMARK       I    between atoms: C9_14  and  N2_16
REMARK    6  A    between atoms: N2_16  and  C10_18
ROOT
HETATM    1  C5  UNL     1      70.589  48.080   9.275  1.00  0.00     0.058 A
HETATM    2  S2  UNL     1      71.858  48.609  10.314  1.00  0.00    -0.086 SA
HETATM    3  C6  UNL     1      70.938  49.441  11.454  1.00  0.00    -0.009 A
HETATM    4  C7  UNL     1      69.653  49.303  11.019  1.00  0.00    -0.027 A
HETATM    5  C8  UNL     1      69.466  48.585   9.866  1.00  0.00     0.063 A
HETATM    6  C17 UNL     1      68.509  49.906  11.827  1.00  0.00     0.041 C
HETATM    7  C18 UNL     1      68.646  51.389  11.883  1.00  0.00     0.005 C
HETATM    8  C19 UNL     1      69.598  51.742  13.030  1.00  0.00     0.001 C
HETATM    9  C20 UNL     1      71.046  51.599  12.591  1.00  0.00     0.005 C
HETATM   10  C21 UNL     1      71.477  50.163  12.672  1.00  0.00     0.046 C
ENDROOT
BRANCH   5  11
HETATM   11  C9  UNL     1      68.098  48.376   9.293  1.00  0.00     0.254 C
HETATM   12  O2  UNL     1      67.613  49.267   8.496  1.00  0.00    -0.268 OA
HETATM   13  N2  UNL     1      67.314  47.259   9.583  1.00  0.00    -0.352 N
ATOM     14  H2  UNL     1      67.670  46.544  10.218  1.00  0.00     0.163 HD
BRANCH  13  15
HETATM   15  C10 UNL     1      65.985  47.104   8.985  1.00  0.00     0.084 C
HETATM   16  C11 UNL     1      65.866  45.933   8.091  1.00  0.00     0.025 C
HETATM   17  C12 UNL     1      64.524  45.229   8.191  1.00  0.00     0.002 C
HETATM   18  C13 UNL     1      63.399  46.142   7.824  1.00  0.00     0.000 C
HETATM   19  C14 UNL     1      62.775  46.672   9.102  1.00  0.00     0.000 C
HETATM   20  C15 UNL     1      63.671  47.763   9.653  1.00  0.00     0.002 C
HETATM   21  C16 UNL     1      64.961  47.086  10.118  1.00  0.00     0.025 C
ENDBRANCH  13  15
ENDBRANCH   5  11
BRANCH   1  22
HETATM   22  S1  UNL     1      70.782  47.163   7.721  1.00  0.00    -0.112 SA
BRANCH  22  23
HETATM   23  C4  UNL     1      72.150  47.913   6.814  1.00  0.00     0.182 C
BRANCH  23  24
HETATM   24  C3  UNL     1      71.808  49.248   6.239  1.00  0.00     0.227 C
HETATM   25  N1  UNL     1      71.284  49.386   4.939  1.00  0.00    -0.361 N
ATOM     26  H1  UNL     1      71.130  48.560   4.361  1.00  0.00     0.162 HD
HETATM   27  O1  UNL     1      71.992  50.271   6.930  1.00  0.00    -0.273 OA
BRANCH  25  28
HETATM   28  C2  UNL     1      70.965  50.691   4.425  1.00  0.00     0.118 C
HETATM   29  C1  UNL     1      71.151  50.700   2.913  1.00  0.00     0.026 C
ENDBRANCH  25  28
ENDBRANCH  23  24
ENDBRANCH  22  23
ENDBRANCH   1  22
TORSDOF 6
ENDMDL