MODEL 4
REMARK VINA RESULT: -7.891973664      3.098      7.073
REMARK  7 active torsions:
REMARK  status: ('A' for Active; 'I' for Inactive)
REMARK    1  A    between atoms: C2_2  and  N1_3
REMARK    2  A    between atoms: N1_3  and  C3_4
REMARK    3  A    between atoms: N1_3  and  C5_6
REMARK    4  A    between atoms: C5_6  and  C6_7
REMARK    5  A    between atoms: C6_7  and  C7_8
REMARK    6  A    between atoms: N2_13  and  C12_14
REMARK    7  A    between atoms: C22_26  and  N4_27
ROOT
HETATM    1  C7  UNL     1      68.086  50.650  11.444  1.00  0.00     0.030 C
HETATM    2  C8  UNL     1      68.745  50.906  10.084  1.00  0.00     0.020 C
HETATM    3  C9  UNL     1      68.956  49.613   9.335  1.00  0.00    -0.031 C
HETATM    4  C10 UNL     1      68.414  49.685   7.939  1.00  0.00     0.040 C
HETATM    5  C11 UNL     1      69.169  48.817   6.948  1.00  0.00     0.273 C
HETATM    6  N2  UNL     1      70.573  49.043   6.928  1.00  0.00     0.093 N
HETATM    7  C18 UNL     1      70.965  49.985   7.931  1.00  0.00     0.273 C
HETATM    8  C19 UNL     1      70.452  49.401   9.259  1.00  0.00     0.040 C
HETATM    9  C20 UNL     1      68.357  48.430  10.047  1.00  0.00     0.067 C
HETATM   10  C21 UNL     1      66.908  48.771  10.366  1.00  0.00     0.025 A
HETATM   11  N3  UNL     1      65.812  48.163  10.068  1.00  0.00    -0.340 N
ATOM     12  H3  UNL     1      65.835  47.297   9.529  1.00  0.00     0.168 HD
HETATM   13  C22 UNL     1      64.650  48.671  10.470  1.00  0.00     0.142 A
HETATM   14  S1  UNL     1      65.124  50.081  11.313  1.00  0.00    -0.057 SA
HETATM   15  C23 UNL     1      66.807  49.948  11.104  1.00  0.00     0.013 A
ENDROOT
BRANCH   1  16
HETATM   16  C6  UNL     1      67.943  51.925  12.151  1.00  0.00     0.040 C
BRANCH  16  17
HETATM   17  C5  UNL     1      68.196  53.174  11.353  1.00  0.00     0.273 C
BRANCH  17  18
HETATM   18  N1  UNL     1      66.977  53.857  11.005  1.00  0.00     0.087 N
BRANCH  18  19
HETATM   19  C2  UNL     1      67.190  55.250  10.731  1.00  0.00     0.268 C
HETATM   20  C1  UNL     1      68.268  55.472   9.685  1.00  0.00     0.037 C
ENDBRANCH  18  19
BRANCH  18  21
HETATM   21  C3  UNL     1      65.934  53.658  11.965  1.00  0.00     0.268 C
HETATM   22  C4  UNL     1      64.783  54.613  11.716  1.00  0.00     0.037 C
ENDBRANCH  18  21
ENDBRANCH  17  18
ENDBRANCH  16  17
ENDBRANCH   1  16
BRANCH   6  23
HETATM   23  C12 UNL     1      71.172  49.196   5.652  1.00  0.00     0.223 C
HETATM   24  C13 UNL     1      72.680  49.118   5.780  1.00  0.00     0.036 C
HETATM   25  C14 UNL     1      73.215  48.776   4.404  1.00  0.00     0.002 C
HETATM   26  C15 UNL     1      72.230  49.108   3.324  1.00  0.00     0.000 C
HETATM   27  C16 UNL     1      71.482  50.390   3.562  1.00  0.00     0.002 C
HETATM   28  C17 UNL     1      70.869  50.483   4.937  1.00  0.00     0.036 C
ENDBRANCH   6  23
BRANCH  13  29
HETATM   29  N4  UNL     1      63.451  48.173  10.250  1.00  0.00    -0.380 N
ATOM     30  H42 UNL     1      63.075  47.245  10.446  1.00  0.00     0.158 HD
ATOM     31  H41 UNL     1      62.657  48.653   9.825  1.00  0.00     0.158 HD
ENDBRANCH  13  29
TORSDOF 7
ENDMDL