MODEL 1
REMARK VINA RESULT: -7.742756707      0.000      0.000
REMARK  8 active torsions:
REMARK  status: ('A' for Active; 'I' for Inactive)
REMARK    1  A    between atoms: C5_5  and  C6_6
REMARK    2  A    between atoms: C6_6  and  C7_7
REMARK    3  A    between atoms: C6_6  and  N1_10
REMARK    4  A    between atoms: N1_10  and  O1_11
REMARK    5  A    between atoms: N1_10  and  C10_13
REMARK    6  A    between atoms: N2_23  and  C20_24
REMARK    7  A    between atoms: C20_24  and  C21_25
REMARK    8  A    between atoms: C20_24  and  C22_28
ROOT
HETATM    1  C6  UNL     1      69.507  51.065  10.527  1.00  0.00     0.046 C
ENDROOT
BRANCH   1   2
HETATM    2  C5  UNL     1      68.654  52.298  10.630  1.00  0.00     0.059 A
HETATM    3  C4  UNL     1      69.108  53.585  10.247  1.00  0.00     0.033 A
HETATM    4  C3  UNL     1      68.112  54.494  10.464  1.00  0.00     0.027 A
HETATM    5  C2  UNL     1      67.079  53.778  10.966  1.00  0.00     0.013 A
HETATM    6  C1  UNL     1      65.776  54.406  11.337  1.00  0.00     0.068 C
HETATM    7  N2  UNL     1      67.404  52.429  11.073  1.00  0.00    -0.311 N
BRANCH   7   8
HETATM    8  C20 UNL     1      66.484  51.484  11.601  1.00  0.00     0.098 C
BRANCH   8   9
HETATM    9  C21 UNL     1      65.467  51.031  10.626  1.00  0.00     0.223 C
HETATM   10  O2  UNL     1      64.284  51.358  10.624  1.00  0.00    -0.643 OA
HETATM   11  O3  UNL     1      65.895  50.163   9.638  1.00  0.00    -0.643 OA
ENDBRANCH   8   9
BRANCH   8  12
HETATM   12  C22 UNL     1      66.031  51.609  13.013  1.00  0.00     0.043 A
HETATM   13  C23 UNL     1      66.899  50.762  14.005  1.00  0.00     0.011 A
HETATM   14  C24 UNL     1      65.477  50.527  13.852  1.00  0.00     0.011 A
ENDBRANCH   8  12
ENDBRANCH   7   8
ENDBRANCH   1   2
BRANCH   1  15
HETATM   15  C7  UNL     1      69.766  50.391  11.820  1.00  0.00     0.035 A
HETATM   16  C8  UNL     1      70.415  51.370  12.854  1.00  0.00     0.011 A
HETATM   17  C9  UNL     1      71.231  50.293  12.369  1.00  0.00     0.011 A
ENDBRANCH   1  15
BRANCH   1  18
HETATM   18  N1  UNL     1      69.200  50.310   9.379  1.00  0.00    -0.157 NA
BRANCH  18  19
HETATM   19  O1  UNL     1      68.493  51.146   8.571  1.00  0.00    -0.307 OA
ATOM     20  H1  UNL     1      67.875  50.591   8.109  1.00  0.00     0.237 HD
ENDBRANCH  18  19
BRANCH  18  21
HETATM   21  C10 UNL     1      70.177  49.686   8.587  1.00  0.00     0.044 C
HETATM   22  C11 UNL     1      70.782  48.448   9.213  1.00  0.00     0.032 C
HETATM   23  C12 UNL     1      71.997  47.979   8.477  1.00  0.00    -0.012 C
HETATM   24  C13 UNL     1      73.122  48.990   8.505  1.00  0.00     0.009 C
HETATM   25  C17 UNL     1      71.574  47.695   7.059  1.00  0.00     0.009 C
HETATM   26  C14 UNL     1      72.537  50.253   7.868  1.00  0.00    -0.012 C
HETATM   27  C15 UNL     1      72.259  49.943   6.428  1.00  0.00     0.009 C
HETATM   28  C19 UNL     1      71.379  50.688   8.678  1.00  0.00     0.032 C
HETATM   29  C16 UNL     1      71.108  48.954   6.410  1.00  0.00    -0.012 C
HETATM   30  C18 UNL     1      69.953  49.620   7.120  1.00  0.00     0.032 C
ENDBRANCH  18  21
ENDBRANCH   1  18
TORSDOF 8
ENDMDL