MODEL 4
REMARK VINA RESULT: -8.323837151      2.792      5.835
REMARK  8 active torsions:
REMARK  status: ('A' for Active; 'I' for Inactive)
REMARK    1  A    between atoms: C2_2  and  C4_4
REMARK    2  A    between atoms: C7_7  and  C8_8
REMARK    3  A    between atoms: C8_8  and  C9_9
REMARK    4  A    between atoms: C9_9  and  C10_10
REMARK    5  A    between atoms: C10_10  and  C11_11
REMARK    6  A    between atoms: C11_11  and  O2_13
REMARK    7  A    between atoms: C19_21  and  O3_22
REMARK    8  A    between atoms: C25_29  and  O4_30
ROOT
HETATM    1  C4  UNL     1      66.957  48.284   9.538  1.00  0.00     0.043 C
HETATM    2  C5  UNL     1      66.187  49.439   8.883  1.00  0.00     0.014 C
HETATM    3  C6  UNL     1      66.391  50.611   9.828  1.00  0.00     0.018 C
HETATM    4  C7  UNL     1      67.443  50.198  10.802  1.00  0.00     0.011 C
HETATM    5  C13 UNL     1      68.090  49.039  10.111  1.00  0.00    -0.057 C
HETATM    6  C14 UNL     1      69.395  49.044  10.307  1.00  0.00    -0.065 C
HETATM    7  C15 UNL     1      70.461  48.087   9.974  1.00  0.00     0.036 C
HETATM    8  C16 UNL     1      71.803  48.573  10.365  1.00  0.00     0.009 C
HETATM    9  C17 UNL     1      71.938  49.398  11.570  1.00  0.00    -0.007 C
HETATM   10  C18 UNL     1      72.411  48.630  12.810  1.00  0.00     0.037 C
HETATM   11  C19 UNL     1      72.835  49.660  13.837  1.00  0.00     0.118 C
HETATM   12  C20 UNL     1      72.500  51.054  13.442  1.00  0.00     0.032 C
HETATM   13  C21 UNL     1      71.123  51.253  12.857  1.00  0.00     0.009 C
HETATM   14  C22 UNL     1      70.647  50.104  12.038  1.00  0.00     0.005 C
HETATM   15  C23 UNL     1      69.861  50.386  10.828  1.00  0.00     0.011 C
HETATM   16  C24 UNL     1      70.740  51.050   9.751  1.00  0.00     0.023 C
HETATM   17  C25 UNL     1      68.625  51.181  10.880  1.00  0.00     0.143 C
ENDROOT
BRANCH   4  18
HETATM   18  C8  UNL     1      66.976  50.023  12.183  1.00  0.00     0.017 C
BRANCH  18  19
HETATM   19  C9  UNL     1      65.583  50.286  12.583  1.00  0.00     0.011 C
BRANCH  19  20
HETATM   20  C10 UNL     1      65.535  51.563  13.419  1.00  0.00     0.111 C
BRANCH  20  21
HETATM   21  C11 UNL     1      65.042  52.740  12.697  1.00  0.00     0.258 C
HETATM   22  O1  UNL     1      63.884  53.199  12.685  1.00  0.00    -0.265 OA
BRANCH  21  23
HETATM   23  O2  UNL     1      65.992  53.431  11.929  1.00  0.00    -0.326 OA
HETATM   24  C12 UNL     1      65.758  54.771  11.547  1.00  0.00     0.213 C
ENDBRANCH  21  23
ENDBRANCH  20  21
ENDBRANCH  19  20
ENDBRANCH  18  19
ENDBRANCH   4  18
BRANCH  17  25
HETATM   25  O4  UNL     1      68.528  52.067  11.908  1.00  0.00    -0.393 OA
ATOM     26  H4  UNL     1      68.419  52.967  11.624  1.00  0.00     0.210 HD
ENDBRANCH  17  25
BRANCH   1  27
HETATM   27  C2  UNL     1      67.259  47.229   8.566  1.00  0.00    -0.085 C
HETATM   28  C1  UNL     1      67.880  47.478   7.421  1.00  0.00     0.014 C
HETATM   29  C3  UNL     1      66.852  45.786   8.738  1.00  0.00     0.043 C
ENDBRANCH   1  27
BRANCH  11  30
HETATM   30  O3  UNL     1      72.371  49.321  15.107  1.00  0.00    -0.396 OA
ATOM     31  H3  UNL     1      73.093  49.198  15.712  1.00  0.00     0.210 HD
ENDBRANCH  11  30
TORSDOF 8
ENDMDL