MODEL 2
REMARK VINA RESULT: -8.783353996      3.467      6.894
REMARK  6 active torsions:
REMARK  status: ('A' for Active; 'I' for Inactive)
REMARK    1  A    between atoms: C1_2  and  C2_4
REMARK    2  A    between atoms: C5_7  and  C6_8
REMARK    3  A    between atoms: C6_8  and  N1_9
REMARK    4  A    between atoms: N1_9  and  C7_12
REMARK    5  A    between atoms: C10_15  and  C11_16
REMARK    6  A    between atoms: C11_16  and  C12_17
ROOT
HETATM    1  C7  UNL     1      72.277  48.574  10.788  1.00  0.00     0.186 C
HETATM    2  C8  UNL     1      70.886  48.524  10.316  1.00  0.00     0.033 C
HETATM    3  C9  UNL     1      69.857  49.214  11.200  1.00  0.00     0.007 C
HETATM    4  C10 UNL     1      70.468  50.494  11.647  1.00  0.00    -0.014 C
HETATM    5  C23 UNL     1      71.526  50.093  12.669  1.00  0.00     0.007 C
HETATM    6  C24 UNL     1      72.556  49.217  12.084  1.00  0.00     0.033 C
ENDROOT
BRANCH   4   7
HETATM    7  C11 UNL     1      69.598  51.571  12.137  1.00  0.00     0.011 C
BRANCH   7   8
HETATM    8  C12 UNL     1      68.584  52.183  11.263  1.00  0.00     0.025 C
HETATM    9  C13 UNL     1      67.232  51.950  11.998  1.00  0.00     0.025 C
HETATM   10  C14 UNL     1      66.608  50.661  11.594  1.00  0.00     0.007 C
HETATM   11  C18 UNL     1      66.384  53.086  11.444  1.00  0.00     0.228 C
HETATM   12  C15 UNL     1      65.103  50.780  11.805  1.00  0.00     0.001 C
HETATM   13  C16 UNL     1      64.775  51.857  12.821  1.00  0.00     0.002 C
HETATM   14  C17 UNL     1      65.189  53.223  12.351  1.00  0.00     0.036 C
HETATM   15  N2  UNL     1      67.315  54.183  11.594  1.00  0.00     0.098 N
HETATM   16  C19 UNL     1      66.952  55.269  10.744  1.00  0.00     0.273 C
HETATM   17  C22 UNL     1      68.609  53.666  11.156  1.00  0.00     0.228 C
HETATM   18  C20 UNL     1      68.066  55.485   9.755  1.00  0.00     0.032 C
HETATM   19  C21 UNL     1      68.722  54.137   9.711  1.00  0.00     0.038 C
ENDBRANCH   7   8
ENDBRANCH   4   7
BRANCH   1  20
HETATM   20  N1  UNL     1      73.128  49.168   9.772  1.00  0.00    -0.065 N
ATOM     21  H12 UNL     1      73.837  48.502   9.463  1.00  0.00     0.278 HD
ATOM     22  H11 UNL     1      73.731  49.882  10.181  1.00  0.00     0.278 HD
BRANCH  20  23
HETATM   23  C6  UNL     1      72.405  49.697   8.649  1.00  0.00     0.297 C
BRANCH  23  24
HETATM   24  C5  UNL     1      73.083  49.183   7.415  1.00  0.00     0.079 A
HETATM   25  C4  UNL     1      74.434  48.970   7.241  1.00  0.00     0.037 A
HETATM   26  C3  UNL     1      74.630  48.498   5.968  1.00  0.00     0.047 A
HETATM   27  C2  UNL     1      73.372  48.436   5.398  1.00  0.00     0.152 A
HETATM   28  O3  UNL     1      72.491  48.849   6.283  1.00  0.00    -0.306 OA
BRANCH  27  29
HETATM   29  C1  UNL     1      73.119  47.985   4.047  1.00  0.00     0.234 C
HETATM   30  O1  UNL     1      72.316  48.587   3.293  1.00  0.00    -0.642 OA
HETATM   31  O2  UNL     1      73.805  46.846   3.597  1.00  0.00    -0.642 OA
ENDBRANCH  27  29
ENDBRANCH  23  24
ENDBRANCH  20  23
ENDBRANCH   1  20
TORSDOF 6
ENDMDL