MODEL 4
REMARK VINA RESULT: -7.780294012      1.094      1.378
REMARK  9 active torsions:
REMARK  status: ('A' for Active; 'I' for Inactive)
REMARK    1  A    between atoms: O1_2  and  C2_3
REMARK    2  A    between atoms: C2_3  and  C3_4
REMARK    3  A    between atoms: C2_3  and  C4_9
REMARK    4  A    between atoms: C3_4  and  N1_5
REMARK    5  A    between atoms: C4_9  and  C5_10
REMARK    6  A    between atoms: C5_10  and  C6_11
REMARK    7  A    between atoms: C6_11  and  C8_13
REMARK    8  A    between atoms: C11_16  and  C12_17
REMARK    9  A    between atoms: C12_17  and  O2_19
ROOT
HETATM    1  C8  UNL     1      70.371  49.571   7.893  1.00  0.00     0.025 C
HETATM    2  C9  UNL     1      69.013  48.939   7.501  1.00  0.00     0.009 C
HETATM    3  C10 UNL     1      69.220  47.474   7.759  1.00  0.00     0.011 C
HETATM    4  C11 UNL     1      70.003  47.511   9.063  1.00  0.00     0.049 C
HETATM    5  C14 UNL     1      70.464  48.923   9.266  1.00  0.00     0.075 C
HETATM    6  C15 UNL     1      71.735  49.153   9.954  1.00  0.00     0.073 C
HETATM    7  C16 UNL     1      71.699  49.450  11.404  1.00  0.00    -0.074 C
HETATM    8  C17 UNL     1      72.836  49.095  11.978  1.00  0.00    -0.023 C
HETATM    9  C18 UNL     1      73.260  49.190  13.371  1.00  0.00     0.027 C
HETATM   10  C19 UNL     1      72.177  49.856  14.179  1.00  0.00     0.004 C
HETATM   11  C20 UNL     1      71.917  51.243  13.667  1.00  0.00     0.001 C
HETATM   12  C21 UNL     1      70.762  51.334  12.730  1.00  0.00     0.012 C
HETATM   13  C22 UNL     1      70.498  50.063  11.960  1.00  0.00     0.048 C
HETATM   14  C23 UNL     1      69.500  50.392  10.873  1.00  0.00     0.062 C
HETATM   15  C24 UNL     1      69.578  51.812  10.396  1.00  0.00     0.046 C
HETATM   16  C25 UNL     1      68.145  50.381  11.632  1.00  0.00     0.046 C
HETATM   17  O3  UNL     1      69.357  49.514   9.907  1.00  0.00    -0.368 OA
ENDROOT
BRANCH   1  18
HETATM   18  C6  UNL     1      71.263  49.291   6.818  1.00  0.00    -0.012 C
HETATM   19  C7  UNL     1      70.787  50.097   5.615  1.00  0.00     0.010 C
BRANCH  18  20
HETATM   20  C5  UNL     1      72.719  49.619   6.911  1.00  0.00     0.007 C
BRANCH  20  21
HETATM   21  C4  UNL     1      73.526  48.939   5.818  1.00  0.00     0.034 C
BRANCH  21  22
HETATM   22  C2  UNL     1      74.538  48.032   6.535  1.00  0.00     0.146 C
BRANCH  22  23
HETATM   23  O1  UNL     1      74.333  48.028   7.907  1.00  0.00    -0.389 OA
HETATM   24  C1  UNL     1      75.371  47.365   8.584  1.00  0.00     0.202 C
ENDBRANCH  22  23
BRANCH  22  25
HETATM   25  C3  UNL     1      74.398  46.605   6.048  1.00  0.00     0.261 C
BRANCH  25  26
HETATM   26  N1  UNL     1      75.136  46.391   4.815  1.00  0.00    -0.077 N
ATOM     27  H13 UNL     1      74.852  47.051   4.090  1.00  0.00     0.274 HD
ATOM     28  H12 UNL     1      76.112  46.673   4.910  1.00  0.00     0.274 HD
ATOM     29  H11 UNL     1      75.054  45.426   4.495  1.00  0.00     0.274 HD
ENDBRANCH  25  26
ENDBRANCH  22  25
ENDBRANCH  21  22
ENDBRANCH  20  21
ENDBRANCH  18  20
ENDBRANCH   1  18
BRANCH   4  30
HETATM   30  C12 UNL     1      71.007  46.411   9.068  1.00  0.00     0.121 C
HETATM   31  C13 UNL     1      71.084  46.003   7.568  1.00  0.00     0.040 C
BRANCH  30  32
HETATM   32  O2  UNL     1      70.502  45.226   9.624  1.00  0.00    -0.395 OA
ATOM     33  H2  UNL     1      71.155  44.537   9.666  1.00  0.00     0.210 HD
ENDBRANCH  30  32
ENDBRANCH   4  30
TORSDOF 9
ENDMDL