MODEL 3
REMARK VINA RESULT: -8.032575097      0.926      1.172
REMARK  8 active torsions:
REMARK  status: ('A' for Active; 'I' for Inactive)
REMARK    1  A    between atoms: C9_9  and  O1_10
REMARK    2  A    between atoms: C11_13  and  O2_14
REMARK    3  A    between atoms: O2_14  and  C12_15
REMARK    4  A    between atoms: C12_15  and  C13_17
REMARK    5  A    between atoms: C13_17  and  C14_18
REMARK    6  A    between atoms: C14_18  and  C15_19
REMARK    7  A    between atoms: C15_19  and  C16_20
REMARK    8  A    between atoms: C16_20  and  C17_21
ROOT
HETATM    1  C1  UNL     1      73.370  50.172   7.746  1.00  0.00     0.015 C
HETATM    2  C2  UNL     1      72.666  49.063   8.517  1.00  0.00    -0.040 C
HETATM    3  C3  UNL     1      73.687  48.211   9.248  1.00  0.00     0.010 C
HETATM    4  C4  UNL     1      73.409  49.077  10.478  1.00  0.00     0.006 C
HETATM    5  C5  UNL     1      72.127  49.593   9.803  1.00  0.00    -0.002 C
HETATM    6  C6  UNL     1      70.895  48.849  10.291  1.00  0.00    -0.005 C
HETATM    7  C7  UNL     1      70.478  49.450  11.591  1.00  0.00     0.008 C
HETATM    8  C8  UNL     1      69.546  50.586  11.518  1.00  0.00     0.039 C
HETATM    9  C9  UNL     1      68.778  50.738  10.251  1.00  0.00     0.068 C
HETATM   10  C10 UNL     1      67.475  51.419  10.559  1.00  0.00     0.071 C
HETATM   11  C11 UNL     1      66.441  50.532  11.183  1.00  0.00     0.134 C
HETATM   12  C18 UNL     1      66.246  49.233  10.467  1.00  0.00     0.033 C
HETATM   13  C19 UNL     1      67.628  48.596  10.307  1.00  0.00     0.015 C
HETATM   14  C20 UNL     1      68.570  49.458   9.529  1.00  0.00    -0.009 C
HETATM   15  C21 UNL     1      67.878  49.758   8.191  1.00  0.00     0.019 C
HETATM   16  C22 UNL     1      69.833  48.701   9.274  1.00  0.00     0.001 C
HETATM   17  C23 UNL     1      70.328  49.065   7.865  1.00  0.00     0.007 C
HETATM   18  C24 UNL     1      71.654  48.306   7.710  1.00  0.00     0.010 C
ENDROOT
BRANCH  11  19
HETATM   19  O2  UNL     1      65.285  51.320  11.284  1.00  0.00    -0.316 OA
BRANCH  19  20
HETATM   20  C12 UNL     1      64.876  52.041  12.352  1.00  0.00     0.259 C
HETATM   21  O3  UNL     1      65.091  51.617  13.488  1.00  0.00    -0.265 OA
BRANCH  20  22
HETATM   22  C13 UNL     1      64.175  53.331  12.158  1.00  0.00     0.111 C
BRANCH  22  23
HETATM   23  C14 UNL     1      65.142  54.498  12.339  1.00  0.00     0.010 C
BRANCH  23  24
HETATM   24  C15 UNL     1      65.885  54.834  11.086  1.00  0.00     0.011 C
BRANCH  24  25
HETATM   25  C16 UNL     1      67.287  55.280  11.344  1.00  0.00     0.113 C
BRANCH  25  26
HETATM   26  C17 UNL     1      68.073  55.160  10.087  1.00  0.00     0.172 C
HETATM   27  O4  UNL     1      67.680  55.704   9.031  1.00  0.00    -0.648 OA
HETATM   28  O5  UNL     1      69.256  54.441  10.060  1.00  0.00    -0.648 OA
ENDBRANCH  25  26
ENDBRANCH  24  25
ENDBRANCH  23  24
ENDBRANCH  22  23
ENDBRANCH  20  22
ENDBRANCH  19  20
ENDBRANCH  11  19
BRANCH   9  29
HETATM   29  O1  UNL     1      69.425  51.621   9.350  1.00  0.00    -0.389 OA
ATOM     30  H1  UNL     1      69.829  52.351   9.804  1.00  0.00     0.210 HD
ENDBRANCH   9  29
TORSDOF 8
ENDMDL