MODEL 1
REMARK VINA RESULT: -7.418631764      0.000      0.000
REMARK  8 active torsions:
REMARK  status: ('A' for Active; 'I' for Inactive)
REMARK    1  A    between atoms: C2_2  and  C3_3
REMARK    2  A    between atoms: C3_3  and  C4_5
REMARK    3  A    between atoms: C5_6  and  O2_7
REMARK    4  A    between atoms: C11_16  and  O4_17
REMARK    5  A    between atoms: C12_19  and  C13_20
REMARK    6  A    between atoms: C19_26  and  O5_27
REMARK    7  A    between atoms: C20_29  and  O6_30
REMARK    8  A    between atoms: O6_30  and  C21_31
ROOT
HETATM    1  C4  UNL     1      72.796  45.634   5.463  1.00  0.00     0.101 C
HETATM    2  C5  UNL     1      72.153  47.037   5.478  1.00  0.00     0.131 C
HETATM    3  C6  UNL     1      72.645  47.936   6.538  1.00  0.00     0.040 C
HETATM    4  C7  UNL     1      73.596  47.448   7.483  1.00  0.00     0.029 C
HETATM    5  C8  UNL     1      73.772  48.261   8.743  1.00  0.00     0.087 C
HETATM    6  C9  UNL     1      74.394  46.974   9.178  1.00  0.00     0.154 C
HETATM    7  O3  UNL     1      75.384  46.968   9.849  1.00  0.00    -0.296 OA
HETATM    8  C10 UNL     1      73.293  46.300   8.443  1.00  0.00     0.137 C
HETATM    9 CL1  UNL     1      71.907  46.599   9.511  1.00  0.00    -0.107 Cl
HETATM   10  C11 UNL     1      73.479  45.055   7.740  1.00  0.00     0.120 C
HETATM   11  C12 UNL     1      73.825  43.730   8.294  1.00  0.00    -0.032 C
HETATM   12  C16 UNL     1      72.764  42.744   7.892  1.00  0.00    -0.004 C
HETATM   13  C17 UNL     1      73.270  41.315   7.704  1.00  0.00     0.021 C
HETATM   14  C18 UNL     1      71.584  42.564   8.734  1.00  0.00     0.049 C
HETATM   15  C19 UNL     1      70.662  41.978   7.690  1.00  0.00     0.149 C
HETATM   16  C20 UNL     1      71.040  42.680   6.370  1.00  0.00     0.170 C
HETATM   17  C23 UNL     1      72.358  43.329   6.536  1.00  0.00     0.008 C
HETATM   18  C24 UNL     1      73.399  42.883   5.516  1.00  0.00     0.020 C
HETATM   19  C25 UNL     1      72.427  44.825   6.636  1.00  0.00     0.017 C
HETATM   20  C26 UNL     1      71.047  45.253   6.981  1.00  0.00     0.020 C
ENDROOT
BRANCH   1  21
HETATM   21  C3  UNL     1      72.560  45.238   4.067  1.00  0.00     0.156 C
HETATM   22  O1  UNL     1      73.518  45.175   3.197  1.00  0.00    -0.293 OA
BRANCH  21  23
HETATM   23  C2  UNL     1      71.337  44.875   3.398  1.00  0.00     0.040 C
HETATM   24  C1  UNL     1      71.170  45.159   2.121  1.00  0.00     0.015 C
ENDBRANCH  21  23
ENDBRANCH   1  21
BRANCH   2  25
HETATM   25  O2  UNL     1      72.624  47.582   4.246  1.00  0.00    -0.395 OA
ATOM     26  H2  UNL     1      71.837  47.993   3.907  1.00  0.00     0.210 HD
ENDBRANCH   2  25
BRANCH  10  27
HETATM   27  O4  UNL     1      74.745  45.366   7.067  1.00  0.00    -0.382 OA
ATOM     28  H4  UNL     1      75.065  46.033   7.665  1.00  0.00     0.211 HD
ENDBRANCH  10  27
BRANCH  11  29
HETATM   29  C13 UNL     1      74.413  43.552   9.613  1.00  0.00    -0.081 C
HETATM   30  C14 UNL     1      73.700  43.167  10.820  1.00  0.00     0.043 C
HETATM   31  C15 UNL     1      75.718  42.767   9.692  1.00  0.00     0.043 C
ENDBRANCH  11  29
BRANCH  16  32
HETATM   32  O6  UNL     1      71.062  41.660   5.358  1.00  0.00    -0.313 OA
BRANCH  32  33
HETATM   33  C21 UNL     1      70.500  40.412   5.505  1.00  0.00     0.255 C
HETATM   34  C22 UNL     1      71.268  39.174   5.767  1.00  0.00     0.126 C
HETATM   35  O7  UNL     1      69.251  40.316   5.412  1.00  0.00    -0.266 OA
ENDBRANCH  32  33
ENDBRANCH  16  32
BRANCH  15  36
HETATM   36  O5  UNL     1      69.326  42.045   7.988  1.00  0.00    -0.393 OA
ATOM     37  H5  UNL     1      69.088  41.724   8.850  1.00  0.00     0.210 HD
ENDBRANCH  15  36
TORSDOF 8
ENDMDL