MODEL 5
REMARK VINA RESULT: -6.966128925      4.722      8.322
REMARK  7 active torsions:
REMARK  status: ('A' for Active; 'I' for Inactive)
REMARK    1  A    between atoms: C2_2  and  O2_4
REMARK    2  A    between atoms: O2_4  and  C3_5
REMARK    3  A    between atoms: C14_18  and  O4_19
REMARK    4  A    between atoms: C24_30  and  O5_31
REMARK    5  A    between atoms: C24_30  and  C25_33
REMARK    6  A    between atoms: C25_33  and  C26_35
REMARK    7  A    between atoms: C26_35  and  O7_36
ROOT
HETATM    1  C3  UNL     1      62.953  46.613  10.330  1.00  0.00     0.181 C
HETATM    2  C4  UNL     1      63.795  47.189  11.424  1.00  0.00     0.115 C
HETATM    3  C5  UNL     1      65.202  47.474  11.019  1.00  0.00     0.139 C
HETATM    4  O3  UNL     1      66.096  47.284  11.823  1.00  0.00    -0.297 OA
HETATM    5  C6  UNL     1      65.379  47.974   9.640  1.00  0.00     0.032 C
HETATM    6  C7  UNL     1      64.497  49.233   9.579  1.00  0.00     0.025 C
HETATM    7  C8  UNL     1      66.762  48.481   9.329  1.00  0.00     0.009 C
HETATM    8  C9  UNL     1      67.238  49.378  10.397  1.00  0.00     0.043 C
HETATM    9  C10 UNL     1      68.047  50.573   9.963  1.00  0.00     0.171 C
HETATM   10  F1  UNL     1      67.636  51.177   8.822  1.00  0.00    -0.249 F
HETATM   11  C11 UNL     1      69.461  50.045   9.686  1.00  0.00     0.042 C
HETATM   12  C12 UNL     1      69.412  49.188   8.461  1.00  0.00    -0.001 C
HETATM   13  C13 UNL     1      70.586  49.433   7.580  1.00  0.00     0.037 C
HETATM   14  C14 UNL     1      71.719  48.495   7.705  1.00  0.00     0.118 C
HETATM   15  C15 UNL     1      71.247  47.095   7.556  1.00  0.00     0.032 C
HETATM   16  C16 UNL     1      69.721  46.969   7.560  1.00  0.00     0.012 C
HETATM   17  C17 UNL     1      69.119  47.738   8.750  1.00  0.00    -0.036 C
HETATM   18  C18 UNL     1      69.909  47.211   9.949  1.00  0.00     0.016 C
HETATM   19  C19 UNL     1      67.686  47.401   8.875  1.00  0.00    -0.001 C
HETATM   20  C20 UNL     1      67.066  46.904   7.557  1.00  0.00     0.007 C
HETATM   21  C21 UNL     1      65.872  46.066   8.056  1.00  0.00     0.014 C
HETATM   22  C22 UNL     1      64.827  46.981   8.663  1.00  0.00     0.011 C
HETATM   23  C23 UNL     1      64.355  47.843   7.471  1.00  0.00     0.020 C
HETATM   24  C24 UNL     1      63.745  46.095   9.154  1.00  0.00     0.155 C
ENDROOT
BRANCH  24  25
HETATM   25  O5  UNL     1      62.798  45.982   8.099  1.00  0.00    -0.378 OA
ATOM     26  H5  UNL     1      62.126  45.401   8.435  1.00  0.00     0.211 HD
ENDBRANCH  24  25
BRANCH  24  27
HETATM   27  C25 UNL     1      64.116  44.700   9.478  1.00  0.00     0.187 C
HETATM   28  O6  UNL     1      64.960  44.466  10.362  1.00  0.00    -0.292 OA
BRANCH  27  29
HETATM   29  C26 UNL     1      63.588  43.472   8.856  1.00  0.00     0.245 C
BRANCH  29  30
HETATM   30  O7  UNL     1      62.331  43.090   9.222  1.00  0.00    -0.393 OA
ATOM     31  H7  UNL     1      62.092  42.187   9.052  1.00  0.00     0.209 HD
ENDBRANCH  29  30
ENDBRANCH  27  29
ENDBRANCH  24  27
BRANCH   1  32
HETATM   32  O2  UNL     1      62.269  45.502  10.894  1.00  0.00    -0.312 OA
BRANCH  32  33
HETATM   33  C2  UNL     1      60.892  45.425  10.937  1.00  0.00     0.255 C
HETATM   34  C1  UNL     1      60.204  45.473  12.267  1.00  0.00     0.126 C
HETATM   35  O1  UNL     1      60.243  45.315   9.864  1.00  0.00    -0.266 OA
ENDBRANCH  32  33
ENDBRANCH   1  32
BRANCH  14  36
HETATM   36  O4  UNL     1      72.598  48.756   6.625  1.00  0.00    -0.396 OA
ATOM     37  H4  UNL     1      73.360  48.200   6.743  1.00  0.00     0.210 HD
ENDBRANCH  14  36
TORSDOF 7
ENDMDL