MODEL 3
REMARK VINA RESULT: -7.713772742      3.066      6.247
REMARK  7 active torsions:
REMARK  status: ('A' for Active; 'I' for Inactive)
REMARK    1  A    between atoms: O1_2  and  C2_3
REMARK    2  A    between atoms: C2_3  and  O2_4
REMARK    3  A    between atoms: C5_7  and  O3_8
REMARK    4  A    between atoms: O3_8  and  C6_9
REMARK    5  A    between atoms: C15_20  and  O5_21
REMARK    6  A    between atoms: C17_24  and  O6_26
REMARK    7  A    between atoms: C20_29  and  O7_30
ROOT
HETATM    1  C2  UNL     1      64.359  45.198   9.829  1.00  0.00     0.171 C
HETATM    2  C4  UNL     1      63.152  45.272  10.702  1.00  0.00     0.102 C
HETATM    3  C5  UNL     1      62.544  46.656  10.571  1.00  0.00     0.145 C
HETATM    4  C8  UNL     1      63.578  47.633  11.152  1.00  0.00     0.065 C
HETATM    5  C9  UNL     1      63.007  48.956  11.515  1.00  0.00     0.075 C
HETATM    6 BR1  UNL     1      62.911  48.966  13.476  1.00  0.00    -0.090 Br
HETATM    7  C10 UNL     1      63.610  50.180  10.930  1.00  0.00     0.042 C
HETATM    8  C11 UNL     1      64.885  50.029  10.200  1.00  0.00     0.019 C
HETATM    9  C12 UNL     1      65.848  51.108  10.175  1.00  0.00    -0.017 C
HETATM   10  C13 UNL     1      66.287  52.056  11.015  1.00  0.00    -0.059 C
HETATM   11  C14 UNL     1      67.343  52.990  10.535  1.00  0.00     0.046 C
HETATM   12  C15 UNL     1      65.849  52.297  12.379  1.00  0.00     0.149 C
HETATM   13  C16 UNL     1      64.726  51.394  12.834  1.00  0.00     0.074 C
HETATM   14  C17 UNL     1      63.605  51.393  11.881  1.00  0.00     0.062 C
HETATM   15  C18 UNL     1      62.242  51.620  12.472  1.00  0.00     0.046 C
HETATM   16  C19 UNL     1      65.635  48.731  10.560  1.00  0.00     0.048 C
HETATM   17  C20 UNL     1      64.687  47.651  10.153  1.00  0.00     0.074 C
HETATM   18  C21 UNL     1      65.362  46.295  10.171  1.00  0.00     0.079 C
HETATM   19  C22 UNL     1      66.457  46.245   9.137  1.00  0.00     0.019 C
ENDROOT
BRANCH   1  20
HETATM   20  O1  UNL     1      63.974  45.356   8.502  1.00  0.00    -0.359 OA
HETATM   21  C1  UNL     1      63.310  44.281   7.952  1.00  0.00     0.205 C
ENDBRANCH   1  20
BRANCH   1  22
HETATM   22  O2  UNL     1      64.948  43.968   9.939  1.00  0.00    -0.359 OA
HETATM   23  C3  UNL     1      64.743  43.289  11.109  1.00  0.00     0.205 C
ENDBRANCH   1  22
BRANCH   3  24
HETATM   24  O3  UNL     1      61.294  46.743  11.175  1.00  0.00    -0.316 OA
BRANCH  24  25
HETATM   25  C6  UNL     1      60.814  45.686  11.956  1.00  0.00     0.255 C
HETATM   26  C7  UNL     1      61.188  45.494  13.375  1.00  0.00     0.126 C
HETATM   27  O4  UNL     1      60.030  44.869  11.423  1.00  0.00    -0.266 OA
ENDBRANCH  24  25
ENDBRANCH   3  24
BRANCH  17  28
HETATM   28  O7  UNL     1      64.132  47.854   8.892  1.00  0.00    -0.389 OA
ATOM     29  H7  UNL     1      64.642  48.521   8.447  1.00  0.00     0.210 HD
ENDBRANCH  17  28
BRANCH  14  30
HETATM   30  O6  UNL     1      63.802  52.502  11.007  1.00  0.00    -0.390 OA
ATOM     31  H6  UNL     1      63.131  53.119  11.276  1.00  0.00     0.210 HD
ENDBRANCH  14  30
BRANCH  12  32
HETATM   32  O5  UNL     1      65.406  53.637  12.464  1.00  0.00    -0.391 OA
ATOM     33  H5  UNL     1      64.615  53.718  11.943  1.00  0.00     0.210 HD
ENDBRANCH  12  32
TORSDOF 7
ENDMDL