MODEL 3
REMARK VINA RESULT: -6.854677416      2.255      5.157
REMARK  6 active torsions:
REMARK  status: ('A' for Active; 'I' for Inactive)
REMARK    1  A    between atoms: C2_2  and  C3_3
REMARK    2  A    between atoms: C7_8  and  C8_9
REMARK    3  A    between atoms: C13_15  and  C14_16
REMARK    4  A    between atoms: C14_16  and  O3_18
REMARK    5  A    between atoms: C16_20  and  O4_21
REMARK    6  A    between atoms: C18_24  and  O5_26
ROOT
HETATM    1  C3  UNL     1      71.623  41.496   7.329  1.00  0.00     0.051 C
HETATM    2  C4  UNL     1      71.303  42.222   6.077  1.00  0.00     0.076 C
HETATM    3  C5  UNL     1      70.021  43.021   6.325  1.00  0.00     0.048 C
HETATM    4  C6  UNL     1      70.306  43.452   7.779  1.00  0.00     0.161 C
HETATM    5  O1  UNL     1      71.387  44.121   7.803  1.00  0.00    -0.346 OA
HETATM    6  C7  UNL     1      71.805  45.332   8.108  1.00  0.00     0.177 C
HETATM    7  O2  UNL     1      72.109  45.350   9.482  1.00  0.00    -0.324 OA
HETATM    8  C11 UNL     1      73.097  46.021  10.006  1.00  0.00     0.265 C
HETATM    9  C12 UNL     1      74.134  45.057  10.618  1.00  0.00     0.078 C
HETATM   10  C13 UNL     1      74.556  44.405   9.271  1.00  0.00     0.042 C
HETATM   11  C16 UNL     1      74.035  43.055   9.322  1.00  0.00     0.134 C
HETATM   12  C17 UNL     1      74.054  42.132   8.185  1.00  0.00     0.071 C
HETATM   13  C18 UNL     1      72.935  41.268   7.828  1.00  0.00     0.071 C
HETATM   14  C19 UNL     1      72.835  40.298   9.029  1.00  0.00     0.047 C
HETATM   15  C20 UNL     1      74.214  45.446   8.333  1.00  0.00     0.148 C
HETATM   16  O6  UNL     1      74.073  46.600   9.172  1.00  0.00    -0.354 OA
HETATM   17  C21 UNL     1      73.090  45.598   7.421  1.00  0.00     0.083 C
HETATM   18  C22 UNL     1      73.347  45.179   6.021  1.00  0.00     0.004 C
HETATM   19  C23 UNL     1      73.906  46.310   5.124  1.00  0.00     0.011 C
HETATM   20  C24 UNL     1      72.313  44.492   5.249  1.00  0.00     0.056 C
HETATM   21  C25 UNL     1      72.514  44.767   3.742  1.00  0.00     0.018 C
HETATM   22  C26 UNL     1      72.317  43.003   5.390  1.00  0.00     0.136 C
HETATM   23  O7  UNL     1      73.258  42.422   4.877  1.00  0.00    -0.297 OA
HETATM   24  C27 UNL     1      70.530  41.989   8.230  1.00  0.00     0.215 C
HETATM   25  F1  UNL     1      70.531  41.751   9.518  1.00  0.00    -0.245 F
ENDROOT
BRANCH  10  26
HETATM   26  C14 UNL     1      76.071  44.403   9.334  1.00  0.00     0.128 C
HETATM   27  C15 UNL     1      76.881  44.314   8.144  1.00  0.00     0.040 C
BRANCH  26  28
HETATM   28  O3  UNL     1      76.469  45.527  10.114  1.00  0.00    -0.395 OA
ATOM     29  H3  UNL     1      76.448  45.265  11.027  1.00  0.00     0.210 HD
ENDBRANCH  26  28
ENDBRANCH  10  26
BRANCH  11  30
HETATM   30  O4  UNL     1      74.655  42.423  10.435  1.00  0.00    -0.395 OA
ATOM     31  H4  UNL     1      74.212  42.747  11.211  1.00  0.00     0.210 HD
ENDBRANCH  11  30
BRANCH  13  32
HETATM   32  O5  UNL     1      73.531  40.379   6.854  1.00  0.00    -0.389 OA
ATOM     33  H5  UNL     1      74.068  39.793   7.375  1.00  0.00     0.210 HD
ENDBRANCH  13  32
BRANCH   6  34
HETATM   34  C8  UNL     1      70.752  46.386   7.988  1.00  0.00     0.041 C
HETATM   35  C9  UNL     1      71.213  47.758   7.559  1.00  0.00     0.015 C
HETATM   36  C10 UNL     1      70.140  46.706   9.378  1.00  0.00     0.015 C
ENDBRANCH   6  34
BRANCH   1  37
HETATM   37  C2  UNL     1      71.111  40.061   7.018  1.00  0.00    -0.021 C
HETATM   38  C1  UNL     1      70.333  39.815   6.002  1.00  0.00     0.008 C
ENDBRANCH   1  37
TORSDOF 6
ENDMDL