MODEL 3
REMARK VINA RESULT: -8.728210876      3.247      8.194
REMARK  6 active torsions:
REMARK  status: ('A' for Active; 'I' for Inactive)
REMARK    1  A    between atoms: C5_5  and  C6_7
REMARK    2  A    between atoms: C6_7  and  S1_12
REMARK    3  A    between atoms: C7_8  and  C8_9
REMARK    4  A    between atoms: C8_9  and  O1_10
REMARK    5  A    between atoms: S1_12  and  N1_13
REMARK    6  A    between atoms: C22_33  and  O6_34
ROOT
HETATM    1  C1  UNL     1      68.045  47.786   9.902  1.00  0.00     0.018 C
HETATM    2  C2  UNL     1      68.626  47.321   8.566  1.00  0.00    -0.009 C
HETATM    3  C3  UNL     1      67.750  46.161   8.127  1.00  0.00     0.060 C
HETATM    4  C4  UNL     1      66.334  46.726   8.260  1.00  0.00     0.058 C
HETATM    5  C5  UNL     1      65.417  46.035   8.822  1.00  0.00     0.151 C
HETATM    6  F1  UNL     1      65.990  44.751   9.206  1.00  0.00    -0.204 F
HETATM    7  C9  UNL     1      66.116  48.003   7.545  1.00  0.00     0.292 C
HETATM    8  O4  UNL     1      65.093  48.180   6.841  1.00  0.00    -0.259 OA
HETATM    9  O5  UNL     1      67.125  48.959   7.713  1.00  0.00    -0.311 OA
HETATM   10  C10 UNL     1      68.444  48.449   7.587  1.00  0.00     0.141 C
HETATM   11  C11 UNL     1      69.483  49.490   7.961  1.00  0.00     0.034 C
HETATM   12  C12 UNL     1      70.785  48.966   7.388  1.00  0.00     0.008 C
HETATM   13  C13 UNL     1      70.948  47.486   7.645  1.00  0.00    -0.005 C
HETATM   14  C14 UNL     1      70.075  46.950   8.736  1.00  0.00     0.001 C
HETATM   15  C15 UNL     1      70.283  45.459   8.842  1.00  0.00     0.007 C
HETATM   16  C16 UNL     1      71.730  45.209   9.204  1.00  0.00     0.014 C
HETATM   17  C17 UNL     1      72.698  45.788   8.219  1.00  0.00     0.005 C
HETATM   18  C18 UNL     1      72.738  45.048   6.908  1.00  0.00     0.020 C
HETATM   19  C19 UNL     1      72.394  47.239   7.923  1.00  0.00     0.002 C
HETATM   20  C20 UNL     1      72.939  47.958   9.104  1.00  0.00     0.010 C
HETATM   21  C21 UNL     1      74.289  47.254   9.301  1.00  0.00     0.055 C
HETATM   22  C22 UNL     1      74.064  45.816   8.902  1.00  0.00     0.153 C
HETATM   23  C23 UNL     1      74.061  44.979  10.112  1.00  0.00     0.098 C
HETATM   24  N2  UNL     1      74.056  44.335  11.076  1.00  0.00    -0.194 NA
ENDROOT
BRANCH  22  25
HETATM   25  O6  UNL     1      75.077  45.410   8.035  1.00  0.00    -0.375 OA
ATOM     26  H6  UNL     1      75.931  45.474   8.444  1.00  0.00     0.212 HD
ENDBRANCH  22  25
BRANCH   5  27
HETATM   27  C6  UNL     1      64.143  46.276   9.401  1.00  0.00     0.116 C
HETATM   28  C7  UNL     1      64.007  46.965  10.535  1.00  0.00     0.027 C
BRANCH  28  29
HETATM   29  C8  UNL     1      65.020  47.570  11.373  1.00  0.00     0.193 C
BRANCH  29  30
HETATM   30  O1  UNL     1      65.603  46.634  12.269  1.00  0.00    -0.397 OA
ATOM     31  H1  UNL     1      65.122  45.815  12.294  1.00  0.00     0.209 HD
ENDBRANCH  29  30
ENDBRANCH  28  29
BRANCH  27  32
HETATM   32  S1  UNL     1      62.566  46.008   8.627  1.00  0.00     0.259 S
HETATM   33  O2  UNL     1      61.444  46.259   9.584  1.00  0.00    -0.201 OA
HETATM   34  O3  UNL     1      62.451  44.805   7.810  1.00  0.00    -0.201 OA
BRANCH  32  35
HETATM   35  N1  UNL     1      62.447  47.324   7.424  1.00  0.00    -0.324 N
ATOM     36  H12 UNL     1      61.691  48.002   7.322  1.00  0.00     0.169 HD
ATOM     37  H11 UNL     1      63.303  47.235   6.876  1.00  0.00     0.169 HD
ENDBRANCH  32  35
ENDBRANCH  27  32
ENDBRANCH   5  27
TORSDOF 6
ENDMDL