MODEL 5
REMARK VINA RESULT: -8.315363189      5.150      8.421
REMARK  9 active torsions:
REMARK  status: ('A' for Active; 'I' for Inactive)
REMARK    1  A    between atoms: C10_10  and  O1_11
REMARK    2  A    between atoms: C11_13  and  O2_14
REMARK    3  A    between atoms: C13_17  and  O3_18
REMARK    4  A    between atoms: O3_18  and  S1_19
REMARK    5  A    between atoms: C17_26  and  C19_28
REMARK    6  A    between atoms: C19_28  and  O8_30
REMARK    7  A    between atoms: O8_30  and  C20_31
REMARK    8  A    between atoms: C20_31  and  C21_32
REMARK    9  A    between atoms: C22_33  and  C23_34
ROOT
HETATM    1  C1  UNL     1      61.401  49.890  13.552  1.00  0.00     0.013 C
HETATM    2  C2  UNL     1      62.255  50.163  12.730  1.00  0.00    -0.106 C
HETATM    3  C3  UNL     1      63.311  50.469  11.719  1.00  0.00     0.040 C
HETATM    4  C4  UNL     1      62.563  51.105  10.593  1.00  0.00     0.031 C
HETATM    5  C5  UNL     1      64.062  49.231  11.404  1.00  0.00     0.014 C
HETATM    6  C6  UNL     1      63.235  48.257  10.530  1.00  0.00     0.008 C
HETATM    7  C7  UNL     1      64.016  46.996  10.612  1.00  0.00     0.015 C
HETATM    8  C8  UNL     1      65.216  47.141   9.668  1.00  0.00     0.018 C
HETATM    9  C9  UNL     1      66.058  45.936   9.988  1.00  0.00     0.021 C
HETATM   10  C10 UNL     1      64.619  46.958   8.286  1.00  0.00     0.158 C
HETATM   11  C11 UNL     1      64.831  48.221   7.536  1.00  0.00     0.150 C
HETATM   12  C12 UNL     1      65.417  49.207   8.499  1.00  0.00     0.075 C
HETATM   13  C13 UNL     1      65.866  48.464   9.749  1.00  0.00     0.099 C
HETATM   14  C14 UNL     1      65.463  49.282  11.013  1.00  0.00     0.028 C
HETATM   15  C15 UNL     1      66.082  50.642  10.837  1.00  0.00     0.009 C
HETATM   16  C16 UNL     1      65.397  51.770  11.485  1.00  0.00     0.022 C
HETATM   17  C17 UNL     1      64.233  51.441  12.363  1.00  0.00     0.063 C
HETATM   18  C18 UNL     1      64.666  50.917  13.717  1.00  0.00     0.028 C
ENDROOT
BRANCH  17  19
HETATM   19  C19 UNL     1      63.469  52.720  12.566  1.00  0.00     0.269 C
HETATM   20  O7  UNL     1      63.082  53.084  13.730  1.00  0.00    -0.264 OA
BRANCH  19  21
HETATM   21  O8  UNL     1      63.135  53.581  11.545  1.00  0.00    -0.309 OA
BRANCH  21  22
HETATM   22  C20 UNL     1      63.543  54.937  11.551  1.00  0.00     0.272 C
BRANCH  22  23
HETATM   23  C21 UNL     1      64.879  55.111  11.034  1.00  0.00    -0.077 C
HETATM   24  C22 UNL     1      65.995  55.236  10.599  1.00  0.00    -0.073 C
BRANCH  24  25
HETATM   25  C23 UNL     1      67.352  55.366  10.059  1.00  0.00     0.315 C
HETATM   26  F1  UNL     1      68.034  54.175  10.107  1.00  0.00    -0.242 F
ENDBRANCH  24  25
ENDBRANCH  22  23
ENDBRANCH  21  22
ENDBRANCH  19  21
ENDBRANCH  17  19
BRANCH  13  27
HETATM   27  O3  UNL     1      67.188  48.401   9.814  1.00  0.00    -0.244 OA
BRANCH  27  28
HETATM   28  S1  UNL     1      68.387  48.225   8.865  1.00  0.00     0.252 S
HETATM   29  O4  UNL     1      69.180  46.952   8.771  1.00  0.00    -0.572 OA
HETATM   30  O5  UNL     1      69.492  49.224   9.301  1.00  0.00    -0.572 OA
HETATM   31  O6  UNL     1      68.132  48.811   7.250  1.00  0.00    -0.572 OA
ENDBRANCH  27  28
ENDBRANCH  13  27
BRANCH  10  32
HETATM   32  O1  UNL     1      65.082  45.877   7.594  1.00  0.00    -0.392 OA
ATOM     33  H1  UNL     1      65.967  45.963   7.258  1.00  0.00     0.210 HD
ENDBRANCH  10  32
BRANCH  11  34
HETATM   34  O2  UNL     1      65.607  48.066   6.384  1.00  0.00    -0.393 OA
ATOM     35  H2  UNL     1      66.302  47.424   6.476  1.00  0.00     0.210 HD
ENDBRANCH  11  34
TORSDOF 9
ENDMDL