MODEL 1
REMARK VINA RESULT: -9.392694875      0.000      0.000
REMARK  8 active torsions:
REMARK  status: ('A' for Active; 'I' for Inactive)
REMARK    1  A    between atoms: C2_2  and  O1_5
REMARK    2  A    between atoms: O1_5  and  C5_6
REMARK       I    between atoms: C5_6  and  N1_8
REMARK    3  A    between atoms: N1_8  and  C6_10
REMARK       I    between atoms: N2_14  and  C10_15
REMARK    4  A    between atoms: C10_15  and  C11_17
REMARK    5  A    between atoms: C11_17  and  O4_18
REMARK    6  A    between atoms: O4_18  and  C12_19
REMARK       I    between atoms: C12_19  and  N3_21
REMARK    7  A    between atoms: C18_27  and  O6_28
REMARK    8  A    between atoms: C22_35  and  O7_36
ROOT
HETATM    1  O4  UNL     1      67.911  51.628  10.131  1.00  0.00    -0.295 OA
ENDROOT
BRANCH   1   2
HETATM    2  C11 UNL     1      67.616  51.761  11.494  1.00  0.00     0.283 C
BRANCH   2   3
HETATM    3  C10 UNL     1      66.586  52.812  11.619  1.00  0.00     0.244 C
HETATM    4  N2  UNL     1      65.220  52.486  11.589  1.00  0.00    -0.348 N
HETATM    5  C9  UNL     1      64.176  53.507  11.732  1.00  0.00     0.126 C
HETATM    6  C23 UNL     1      64.759  51.133  11.434  1.00  0.00     0.151 C
HETATM    7  C8  UNL     1      63.638  53.306  13.145  1.00  0.00     0.022 C
HETATM    8  C7  UNL     1      63.969  51.888  13.598  1.00  0.00     0.028 C
HETATM    9  C6  UNL     1      63.602  50.986  12.431  1.00  0.00     0.104 C
HETATM   10  O3  UNL     1      66.890  54.033  11.763  1.00  0.00    -0.271 OA
BRANCH   9  11
HETATM   11  N1  UNL     1      63.487  49.602  12.785  1.00  0.00    -0.331 N
HETATM   12  C5  UNL     1      62.796  48.720  11.903  1.00  0.00     0.361 C
HETATM   13  O2  UNL     1      62.273  49.104  10.829  1.00  0.00    -0.238 OA
ATOM     14  H1  UNL     1      63.892  49.253  13.654  1.00  0.00     0.165 HD
BRANCH  12  15
HETATM   15  O1  UNL     1      62.695  47.386  12.241  1.00  0.00    -0.294 OA
BRANCH  15  16
HETATM   16  C2  UNL     1      63.484  46.408  11.556  1.00  0.00     0.061 C
HETATM   17  C1  UNL     1      63.320  46.565  10.051  1.00  0.00     0.046 C
HETATM   18  C3  UNL     1      64.940  46.611  11.906  1.00  0.00     0.046 C
HETATM   19  C4  UNL     1      63.035  45.048  12.019  1.00  0.00     0.046 C
ENDBRANCH  15  16
ENDBRANCH  12  15
ENDBRANCH   9  11
ENDBRANCH   2   3
ENDBRANCH   1   2
BRANCH   1  20
HETATM   20  C12 UNL     1      67.772  50.480   9.370  1.00  0.00     0.363 C
HETATM   21  O5  UNL     1      66.602  50.135   9.045  1.00  0.00    -0.238 OA
HETATM   22  N3  UNL     1      68.918  49.758   8.997  1.00  0.00    -0.328 N
HETATM   23  C13 UNL     1      68.796  48.545   8.219  1.00  0.00     0.129 C
HETATM   24  C17 UNL     1      70.223  50.257   9.400  1.00  0.00     0.129 C
HETATM   25  C14 UNL     1      69.926  47.636   8.666  1.00  0.00     0.035 C
HETATM   26  C15 UNL     1      71.292  48.215   8.434  1.00  0.00     0.020 C
HETATM   27  C16 UNL     1      71.298  49.735   8.463  1.00  0.00     0.035 C
HETATM   28  C18 UNL     1      71.781  47.776   7.088  1.00  0.00     0.129 C
HETATM   29  C22 UNL     1      72.189  47.780   9.575  1.00  0.00     0.201 C
HETATM   30  C19 UNL     1      72.213  46.329   7.067  1.00  0.00     0.038 C
HETATM   31  C20 UNL     1      73.272  46.080   8.095  1.00  0.00     0.084 C
HETATM   32  C21 UNL     1      72.711  46.392   9.463  1.00  0.00     0.270 C
HETATM   33  F1  UNL     1      73.773  46.273  10.358  1.00  0.00    -0.203 F
HETATM   34  F2  UNL     1      71.787  45.428   9.821  1.00  0.00    -0.203 F
BRANCH  28  35
HETATM   35  O6  UNL     1      72.818  48.564   6.641  1.00  0.00    -0.395 OA
ATOM     36  H6  UNL     1      72.764  48.719   5.705  1.00  0.00     0.210 HD
ENDBRANCH  28  35
BRANCH  29  37
HETATM   37  O7  UNL     1      73.240  48.671   9.746  1.00  0.00    -0.389 OA
ATOM     38  H7  UNL     1      73.411  48.819  10.668  1.00  0.00     0.210 HD
ENDBRANCH  29  37
ENDBRANCH   1  20
TORSDOF 8
ENDMDL