MODEL 2
REMARK VINA RESULT: -9.074160691      2.781      7.532
REMARK  7 active torsions:
REMARK  status: ('A' for Active; 'I' for Inactive)
REMARK    1  A    between atoms: C4_4  and  C5_5
REMARK    2  A    between atoms: C5_5  and  O2_7
REMARK    3  A    between atoms: O2_7  and  C6_8
REMARK    4  A    between atoms: C6_8  and  C7_9
REMARK    5  A    between atoms: C16_20  and  O5_21
REMARK    6  A    between atoms: C22_28  and  O6_29
REMARK    7  A    between atoms: C26_35  and  O7_37
ROOT
HETATM    1  C7  UNL     1      69.414  49.280   8.277  1.00  0.00     0.155 C
HETATM    2  C8  UNL     1      70.073  48.385   9.309  1.00  0.00     0.106 C
HETATM    3  C9  UNL     1      70.809  47.815   8.085  1.00  0.00     0.207 C
HETATM    4  O3  UNL     1      69.764  48.253   7.344  1.00  0.00    -0.344 OA
HETATM    5  O4  UNL     1      71.042  46.454   8.142  1.00  0.00    -0.334 OA
HETATM    6  C10 UNL     1      72.416  46.243   7.828  1.00  0.00     0.133 C
HETATM    7  C11 UNL     1      72.960  45.009   8.432  1.00  0.00     0.031 C
HETATM    8  C12 UNL     1      71.880  44.448   9.373  1.00  0.00     0.009 C
HETATM    9  C13 UNL     1      72.293  43.036   9.617  1.00  0.00     0.012 C
HETATM   10  C14 UNL     1      73.620  42.934  10.240  1.00  0.00    -0.014 C
HETATM   11  C15 UNL     1      74.230  41.549  10.001  1.00  0.00     0.018 C
HETATM   12  C16 UNL     1      73.522  43.157  11.755  1.00  0.00     0.127 C
HETATM   13  C17 UNL     1      74.243  44.480  11.513  1.00  0.00     0.038 C
HETATM   14  C18 UNL     1      74.553  44.052  10.117  1.00  0.00     0.003 C
HETATM   15  C19 UNL     1      74.305  45.038   9.016  1.00  0.00    -0.002 C
HETATM   16  C20 UNL     1      74.834  46.366   9.488  1.00  0.00     0.009 C
HETATM   17  C21 UNL     1      74.421  47.530   8.570  1.00  0.00     0.045 C
HETATM   18  C22 UNL     1      72.981  47.432   8.532  1.00  0.00     0.133 C
HETATM   19  C23 UNL     1      72.144  48.522   7.946  1.00  0.00     0.193 C
HETATM   20  F1  UNL     1      72.257  49.625   8.748  1.00  0.00    -0.234 F
HETATM   21  C24 UNL     1      72.476  48.765   6.511  1.00  0.00     0.055 C
HETATM   22  C25 UNL     1      72.124  47.562   5.702  1.00  0.00     0.044 C
HETATM   23  C26 UNL     1      72.459  46.245   6.348  1.00  0.00     0.089 C
HETATM   24  C27 UNL     1      73.697  45.723   5.683  1.00  0.00     0.049 C
ENDROOT
BRANCH   1  25
HETATM   25  C6  UNL     1      67.939  49.384   8.482  1.00  0.00     0.211 C
BRANCH  25  26
HETATM   26  O2  UNL     1      67.415  49.295   9.723  1.00  0.00    -0.316 OA
BRANCH  26  27
HETATM   27  C5  UNL     1      66.566  50.129  10.364  1.00  0.00     0.283 C
HETATM   28  O1  UNL     1      65.722  49.680  11.159  1.00  0.00    -0.260 OA
BRANCH  27  29
HETATM   29  C4  UNL     1      66.569  51.586  10.185  1.00  0.00     0.084 C
HETATM   30  C2  UNL     1      67.576  52.358  10.493  1.00  0.00    -0.082 C
HETATM   31  C1  UNL     1      67.382  53.836  10.233  1.00  0.00     0.043 C
HETATM   32  C3  UNL     1      68.859  51.942  11.059  1.00  0.00     0.043 C
ENDBRANCH  27  29
ENDBRANCH  26  27
ENDBRANCH  25  26
ENDBRANCH   1  25
BRANCH  18  33
HETATM   33  O6  UNL     1      72.530  47.323   9.878  1.00  0.00    -0.383 OA
ATOM     34  H6  UNL     1      73.281  47.552  10.414  1.00  0.00     0.210 HD
ENDBRANCH  18  33
BRANCH  23  35
HETATM   35  O7  UNL     1      71.426  45.352   5.944  1.00  0.00    -0.387 OA
ATOM     36  H7  UNL     1      71.461  44.633   6.564  1.00  0.00     0.210 HD
ENDBRANCH  23  35
BRANCH  12  37
HETATM   37  O5  UNL     1      74.228  42.242  12.512  1.00  0.00    -0.395 OA
ATOM     38  H5  UNL     1      73.708  41.792  13.168  1.00  0.00     0.210 HD
ENDBRANCH  12  37
TORSDOF 7
ENDMDL