MODEL 5
REMARK VINA RESULT: -7.017155199      8.481     10.943
REMARK  6 active torsions:
REMARK  status: ('A' for Active; 'I' for Inactive)
REMARK    1  A    between atoms: O1_2  and  C2_3
REMARK    2  A    between atoms: C9_11  and  C10_12
REMARK    3  A    between atoms: C13_17  and  C14_18
REMARK    4  A    between atoms: C17_22  and  O5_23
REMARK    5  A    between atoms: O5_23  and  C18_24
REMARK    6  A    between atoms: C20_27  and  O7_28
ROOT
HETATM    1  C2  UNL     1      65.318  48.106  10.352  1.00  0.00     0.136 C
HETATM    2  C3  UNL     1      65.553  48.834  11.660  1.00  0.00     0.034 C
HETATM    3  C4  UNL     1      64.707  50.112  11.687  1.00  0.00     0.014 C
HETATM    4  C5  UNL     1      63.348  49.651  11.219  1.00  0.00    -0.020 C
HETATM    5  C6  UNL     1      62.798  50.490  10.118  1.00  0.00     0.017 C
HETATM    6  C7  UNL     1      62.441  50.079  12.411  1.00  0.00     0.017 C
HETATM    7  C8  UNL     1      63.166  48.178  11.153  1.00  0.00     0.146 C
HETATM    8  O2  UNL     1      61.913  47.822  11.003  1.00  0.00    -0.367 OA
HETATM    9  C9  UNL     1      61.536  46.490  11.149  1.00  0.00     0.232 C
HETATM   10  C11 UNL     1      62.526  45.444  10.779  1.00  0.00     0.014 C
HETATM   11  C12 UNL     1      62.490  44.399  11.912  1.00  0.00     0.020 C
HETATM   12  C13 UNL     1      61.979  44.717   9.604  1.00  0.00     0.004 C
HETATM   13  C15 UNL     1      62.717  43.506   9.136  1.00  0.00     0.021 C
HETATM   14  C16 UNL     1      63.350  44.361   8.068  1.00  0.00     0.027 C
HETATM   15  C17 UNL     1      64.740  44.584   8.557  1.00  0.00     0.166 C
HETATM   16  C20 UNL     1      64.880  44.998   9.940  1.00  0.00     0.158 C
HETATM   17  C21 UNL     1      63.972  45.902  10.681  1.00  0.00     0.011 C
HETATM   18  C22 UNL     1      64.681  45.831  12.041  1.00  0.00     0.020 C
HETATM   19  C23 UNL     1      64.055  47.358  10.233  1.00  0.00     0.041 C
HETATM   20  C24 UNL     1      63.673  47.426   8.790  1.00  0.00    -0.015 C
HETATM   21  C25 UNL     1      62.531  46.776   8.213  1.00  0.00    -0.024 C
HETATM   22  C26 UNL     1      62.282  45.333   8.284  1.00  0.00     0.026 C
ENDROOT
BRANCH  15  23
HETATM   23  O5  UNL     1      65.311  43.255   8.421  1.00  0.00    -0.313 OA
BRANCH  23  24
HETATM   24  C18 UNL     1      66.575  42.972   8.030  1.00  0.00     0.255 C
HETATM   25  C19 UNL     1      67.170  41.613   7.981  1.00  0.00     0.126 C
HETATM   26  O6  UNL     1      67.314  43.945   7.675  1.00  0.00    -0.266 OA
ENDBRANCH  23  24
ENDBRANCH  15  23
BRANCH  16  27
HETATM   27  O7  UNL     1      65.338  43.884  10.700  1.00  0.00    -0.392 OA
ATOM     28  H7  UNL     1      65.579  43.189  10.099  1.00  0.00     0.210 HD
ENDBRANCH  16  27
BRANCH  12  29
HETATM   29  C14 UNL     1      60.532  44.287   9.692  1.00  0.00     0.233 C
HETATM   30  F1  UNL     1      60.175  43.571   8.519  1.00  0.00    -0.255 F
ENDBRANCH  12  29
BRANCH   9  31
HETATM   31  C10 UNL     1      60.741  46.300  12.386  1.00  0.00     0.204 C
HETATM   32  O3  UNL     1      61.159  46.612  13.557  1.00  0.00    -0.646 OA
HETATM   33  O4  UNL     1      59.470  45.786  12.513  1.00  0.00    -0.646 OA
ENDBRANCH   9  31
BRANCH   1  34
HETATM   34  O1  UNL     1      66.457  47.697   9.750  1.00  0.00    -0.390 OA
HETATM   35  C1  UNL     1      67.428  48.549   9.416  1.00  0.00     0.202 C
ENDBRANCH   1  34
TORSDOF 6
ENDMDL