MODEL 4
REMARK VINA RESULT: -7.555431534      6.188      8.807
REMARK  5 active torsions:
REMARK  status: ('A' for Active; 'I' for Inactive)
REMARK    1  A    between atoms: O1_2  and  C2_3
REMARK    2  A    between atoms: C6_7  and  O2_8
REMARK    3  A    between atoms: C22_27  and  C23_28
REMARK    4  A    between atoms: C23_28  and  S1_29
REMARK    5  A    between atoms: C24_33  and  O7_34
ROOT
HETATM    1  C2  UNL     1      72.787  41.982  10.143  1.00  0.00     0.151 C
HETATM    2  C3  UNL     1      72.532  43.407   9.697  1.00  0.00     0.048 C
HETATM    3  C4  UNL     1      72.820  43.636   8.226  1.00  0.00     0.007 C
HETATM    4  C5  UNL     1      74.109  42.933   7.862  1.00  0.00     0.020 C
HETATM    5  C6  UNL     1      71.645  42.942   7.554  1.00  0.00     0.133 C
HETATM    6  C7  UNL     1      70.528  43.898   7.767  1.00  0.00     0.162 C
HETATM    7  O3  UNL     1      69.390  43.399   7.673  1.00  0.00    -0.295 OA
HETATM    8  C8  UNL     1      70.554  45.319   8.069  1.00  0.00     0.088 C
HETATM    9  C9  UNL     1      71.835  45.770   8.784  1.00  0.00     0.013 C
HETATM   10  C10 UNL     1      71.902  47.282   8.884  1.00  0.00    -0.035 C
HETATM   11  C11 UNL     1      72.857  47.578  10.062  1.00  0.00     0.016 C
HETATM   12  C12 UNL     1      70.573  47.827   9.350  1.00  0.00     0.010 C
HETATM   13  C13 UNL     1      69.616  48.288   8.345  1.00  0.00     0.001 C
HETATM   14  C14 UNL     1      70.212  48.991   7.157  1.00  0.00     0.005 C
HETATM   15  C15 UNL     1      71.673  49.209   7.257  1.00  0.00    -0.014 C
HETATM   16  C16 UNL     1      72.077  50.396   8.062  1.00  0.00     0.010 C
HETATM   17  C17 UNL     1      72.441  47.940   7.674  1.00  0.00     0.000 C
HETATM   18  C18 UNL     1      72.604  47.089   6.473  1.00  0.00     0.044 C
HETATM   19  C19 UNL     1      72.844  45.632   6.629  1.00  0.00     0.179 C
HETATM   20  F1  UNL     1      74.027  45.361   5.914  1.00  0.00    -0.249 F
HETATM   21  C20 UNL     1      72.925  45.107   8.014  1.00  0.00     0.002 C
HETATM   22  C21 UNL     1      74.339  45.424   8.464  1.00  0.00     0.019 C
HETATM   23  C22 UNL     1      71.297  41.627   8.108  1.00  0.00     0.076 C
HETATM   24  C24 UNL     1      71.994  41.073   9.302  1.00  0.00     0.155 C
ENDROOT
BRANCH  23  25
HETATM   25  C23 UNL     1      71.125  40.468   7.161  1.00  0.00     0.176 C
BRANCH  25  26
HETATM   26  S1  UNL     1      69.551  39.850   6.835  1.00  0.00     0.102 S
HETATM   27  O4  UNL     1      69.281  40.145   5.342  1.00  0.00    -0.595 OA
HETATM   28  O5  UNL     1      69.508  38.315   6.858  1.00  0.00    -0.595 OA
HETATM   29  O6  UNL     1      68.258  40.490   7.632  1.00  0.00    -0.595 OA
ENDBRANCH  25  26
ENDBRANCH  23  25
BRANCH   5  30
HETATM   30  O2  UNL     1      71.931  42.734   6.203  1.00  0.00    -0.381 OA
ATOM     31  H2  UNL     1      71.125  42.583   5.725  1.00  0.00     0.211 HD
ENDBRANCH   5  30
BRANCH  24  32
HETATM   32  O7  UNL     1      71.090  40.358  10.118  1.00  0.00    -0.392 OA
ATOM     33  H7  UNL     1      70.734  39.628   9.624  1.00  0.00     0.210 HD
ENDBRANCH  24  32
BRANCH   1  34
HETATM   34  O1  UNL     1      74.115  41.668  10.274  1.00  0.00    -0.388 OA
HETATM   35  C1  UNL     1      74.580  42.070  11.516  1.00  0.00     0.202 C
ENDBRANCH   1  34
TORSDOF 5
ENDMDL