MODEL 1
REMARK VINA RESULT: -9.217504840      0.000      0.000
REMARK  11 active torsions:
REMARK  status: ('A' for Active; 'I' for Inactive)
REMARK    1  A    between atoms: C2_2  and  O2_4
REMARK    2  A    between atoms: O2_4  and  C3_5
REMARK    3  A    between atoms: C4_6  and  C5_7
REMARK    4  A    between atoms: C4_6  and  C19_25
REMARK    5  A    between atoms: C5_7  and  C6_8
REMARK    6  A    between atoms: C6_8  and  C7_9
REMARK    7  A    between atoms: C7_9  and  C8_10
REMARK    8  A    between atoms: C8_10  and  C10_12
REMARK    9  A    between atoms: C13_15  and  C15_17
REMARK   10  A    between atoms: C16_20  and  O5_21
REMARK   11  A    between atoms: C27_33  and  O6_34
ROOT
HETATM    1  C3  UNL     1      15.882 -41.106  10.756  1.00  0.00     0.153 C
HETATM    2  C4  UNL     1      17.322 -41.083  10.722  1.00  0.00    -0.033 C
ENDROOT
BRANCH   2   3
HETATM    3  C5  UNL     1      17.979 -40.018  11.610  1.00  0.00     0.041 C
BRANCH   3   4
HETATM    4  C6  UNL     1      17.374 -39.601  12.846  1.00  0.00     0.005 C
BRANCH   4   5
HETATM    5  C7  UNL     1      16.943 -38.304  13.321  1.00  0.00     0.005 C
BRANCH   5   6
HETATM    6  C8  UNL     1      15.841 -37.575  12.680  1.00  0.00    -0.011 C
HETATM    7  C9  UNL     1      15.995 -37.162  11.264  1.00  0.00     0.010 C
BRANCH   6   8
HETATM    8  C10 UNL     1      14.591 -38.442  12.745  1.00  0.00     0.018 C
HETATM    9  C11 UNL     1      14.260 -38.956  14.069  1.00  0.00    -0.024 C
HETATM   10  C12 UNL     1      13.089 -39.609  14.174  1.00  0.00    -0.008 C
HETATM   11  C13 UNL     1      12.177 -39.805  13.023  1.00  0.00     0.088 C
HETATM   12  C14 UNL     1      12.478 -41.177  12.411  1.00  0.00     0.034 C
HETATM   13  C16 UNL     1      12.327 -38.795  11.943  1.00  0.00     0.145 C
HETATM   14  C17 UNL     1      13.366 -37.724  12.228  1.00  0.00     0.020 C
HETATM   15  C18 UNL     1      12.890 -36.750  13.279  1.00  0.00     0.013 C
BRANCH  11  16
HETATM   16  C15 UNL     1      10.764 -39.857  13.460  1.00  0.00     0.188 C
HETATM   17  O3  UNL     1      10.483 -40.050  14.666  1.00  0.00    -0.647 OA
HETATM   18  O4  UNL     1       9.727 -39.697  12.559  1.00  0.00    -0.647 OA
ENDBRANCH  11  16
BRANCH  13  19
HETATM   19  O5  UNL     1      12.665 -39.367  10.717  1.00  0.00    -0.394 OA
ATOM     20  H5  UNL     1      12.797 -40.306  10.777  1.00  0.00     0.210 HD
ENDBRANCH  13  19
ENDBRANCH   6   8
ENDBRANCH   5   6
ENDBRANCH   4   5
ENDBRANCH   3   4
ENDBRANCH   2   3
BRANCH   2  21
HETATM   21  C19 UNL     1      18.137 -41.306   9.517  1.00  0.00    -0.063 C
HETATM   22  C20 UNL     1      18.581 -40.014   8.861  1.00  0.00     0.036 C
HETATM   23  C21 UNL     1      19.217 -40.727   7.617  1.00  0.00     0.011 C
HETATM   24  C22 UNL     1      20.188 -41.543   8.453  1.00  0.00     0.007 C
HETATM   25  C23 UNL     1      21.190 -42.111   7.595  1.00  0.00    -0.035 C
HETATM   26  C33 UNL     1      19.276 -42.252   9.387  1.00  0.00    -0.014 C
HETATM   27  C24 UNL     1      22.309 -42.904   8.201  1.00  0.00     0.016 C
HETATM   28  C25 UNL     1      21.888 -40.901   6.932  1.00  0.00     0.012 C
HETATM   29  C29 UNL     1      20.630 -42.919   6.459  1.00  0.00    -0.002 C
HETATM   30  C26 UNL     1      21.728 -40.837   5.461  1.00  0.00     0.032 C
HETATM   31  C27 UNL     1      22.309 -42.060   4.774  1.00  0.00     0.118 C
HETATM   32  C28 UNL     1      21.657 -43.248   5.373  1.00  0.00     0.037 C
HETATM   33  C30 UNL     1      19.942 -44.164   6.785  1.00  0.00     0.025 C
HETATM   34  C31 UNL     1      19.697 -44.489   8.223  1.00  0.00     0.083 C
HETATM   35 CL1  UNL     1      18.790 -46.071   8.132  1.00  0.00    -0.125 Cl
HETATM   36  C32 UNL     1      18.725 -43.538   8.789  1.00  0.00     0.034 C
HETATM   37  C34 UNL     1      19.955 -42.685  10.654  1.00  0.00     0.020 C
BRANCH  31  38
HETATM   38  O6  UNL     1      22.045 -41.918   3.404  1.00  0.00    -0.396 OA
ATOM     39  H6  UNL     1      22.832 -41.563   3.009  1.00  0.00     0.210 HD
ENDBRANCH  31  38
ENDBRANCH   2  21
BRANCH   1  40
HETATM   40  O2  UNL     1      15.145 -42.070  10.065  1.00  0.00    -0.291 OA
BRANCH  40  41
HETATM   41  C2  UNL     1      14.393 -41.835   8.924  1.00  0.00     0.259 C
HETATM   42  C1  UNL     1      15.091 -41.646   7.639  1.00  0.00     0.126 C
HETATM   43  O1  UNL     1      13.166 -41.788   8.998  1.00  0.00    -0.265 OA
ENDBRANCH  40  41
ENDBRANCH   1  40
TORSDOF 11
ENDMDL