MODEL 2
REMARK VINA RESULT: -7.206125509      1.466      1.568
REMARK  12 active torsions:
REMARK  status: ('A' for Active; 'I' for Inactive)
REMARK    1  A    between atoms: C5_5  and  O1_6
REMARK    2  A    between atoms: N1_21  and  N2_23
REMARK    3  A    between atoms: N2_23  and  C18_25
REMARK    4  A    between atoms: C18_25  and  N3_27
REMARK    5  A    between atoms: N3_27  and  C19_29
REMARK    6  A    between atoms: C19_29  and  C20_30
REMARK    7  A    between atoms: C20_30  and  C21_31
REMARK    8  A    between atoms: C21_31  and  C22_32
REMARK    9  A    between atoms: C22_32  and  C23_33
REMARK   10  A    between atoms: C23_33  and  C24_34
REMARK   11  A    between atoms: C24_34  and  C25_35
REMARK   12  A    between atoms: C25_35  and  C26_36
ROOT
HETATM    1  C1  UNL     1      17.071 -39.443  12.826  1.00  0.00     0.016 C
HETATM    2  C2  UNL     1      16.068 -39.770  11.746  1.00  0.00    -0.035 C
HETATM    3  C3  UNL     1      16.534 -41.103  11.143  1.00  0.00     0.012 C
HETATM    4  C4  UNL     1      17.898 -40.986  10.543  1.00  0.00     0.032 C
HETATM    5  C5  UNL     1      18.166 -39.740   9.780  1.00  0.00     0.118 C
HETATM    6  C6  UNL     1      17.575 -38.490  10.351  1.00  0.00     0.037 C
HETATM    7  C7  UNL     1      16.099 -38.785  10.606  1.00  0.00     0.003 C
HETATM    8  C8  UNL     1      15.274 -37.569  10.820  1.00  0.00     0.084 C
HETATM    9  C9  UNL     1      14.748 -37.460  12.220  1.00  0.00     0.132 C
HETATM   10  O2  UNL     1      14.635 -36.330  12.652  1.00  0.00    -0.298 OA
HETATM   11  C10 UNL     1      14.380 -38.601  13.054  1.00  0.00     0.069 C
HETATM   12  C11 UNL     1      14.728 -39.934  12.379  1.00  0.00     0.006 C
HETATM   13  C12 UNL     1      13.707 -40.369  11.392  1.00  0.00     0.007 C
HETATM   14  C13 UNL     1      12.296 -40.279  11.825  1.00  0.00     0.011 C
HETATM   15  C14 UNL     1      11.941 -39.126  12.688  1.00  0.00    -0.031 C
HETATM   16  C15 UNL     1      11.409 -37.997  11.790  1.00  0.00     0.016 C
HETATM   17  C16 UNL     1      10.719 -39.528  13.503  1.00  0.00     0.064 C
HETATM   18  C17 UNL     1      11.035 -40.657  14.389  1.00  0.00     0.004 C
HETATM   19  N1  UNL     1      10.118 -41.503  14.702  1.00  0.00    -0.307 N
ATOM     20  H1  UNL     1      10.345 -42.284  15.317  1.00  0.00     0.186 HD
HETATM   21  C27 UNL     1      12.425 -40.748  14.887  1.00  0.00     0.055 C
HETATM   22  C28 UNL     1      13.086 -39.397  14.930  1.00  0.00     0.016 C
HETATM   23  C29 UNL     1      13.002 -38.638  13.616  1.00  0.00    -0.025 C
HETATM   24  C30 UNL     1      12.609 -37.221  14.031  1.00  0.00     0.016 C
ENDROOT
BRANCH  19  25
HETATM   25  N2  UNL     1       8.809 -41.368  14.208  1.00  0.00    -0.277 N
ATOM     26  H2  UNL     1       8.583 -40.617  13.556  1.00  0.00     0.189 HD
BRANCH  25  27
HETATM   27  C18 UNL     1       7.817 -42.267  14.616  1.00  0.00     0.186 C
HETATM   28  S1  UNL     1       6.958 -41.914  15.973  1.00  0.00    -0.040 SA
BRANCH  27  29
HETATM   29  N3  UNL     1       7.511 -43.456  13.932  1.00  0.00    -0.366 N
ATOM     30  H3  UNL     1       6.647 -43.457  13.388  1.00  0.00     0.161 HD
BRANCH  29  31
HETATM   31  C19 UNL     1       8.277 -44.666  13.913  1.00  0.00     0.122 C
BRANCH  31  32
HETATM   32  C20 UNL     1       9.166 -44.932  12.796  1.00  0.00     0.020 C
BRANCH  32  33
HETATM   33  C21 UNL     1      10.636 -44.993  12.899  1.00  0.00     0.002 C
BRANCH  33  34
HETATM   34  C22 UNL     1      11.449 -43.919  12.352  1.00  0.00     0.000 C
BRANCH  34  35
HETATM   35  C23 UNL     1      12.086 -43.853  11.047  1.00  0.00     0.000 C
BRANCH  35  36
HETATM   36  C24 UNL     1      11.436 -43.199   9.896  1.00  0.00     0.001 C
BRANCH  36  37
HETATM   37  C25 UNL     1      11.423 -43.824   8.576  1.00  0.00     0.011 C
BRANCH  37  38
HETATM   38  C26 UNL     1      11.507 -45.369   8.709  1.00  0.00     0.085 C
HETATM   39 BR1  UNL     1       9.724 -46.049   9.008  1.00  0.00    -0.097 Br
ENDBRANCH  37  38
ENDBRANCH  36  37
ENDBRANCH  35  36
ENDBRANCH  34  35
ENDBRANCH  33  34
ENDBRANCH  32  33
ENDBRANCH  31  32
ENDBRANCH  29  31
ENDBRANCH  27  29
ENDBRANCH  25  27
ENDBRANCH  19  25
BRANCH   5  40
HETATM   40  O1  UNL     1      19.564 -39.544   9.718  1.00  0.00    -0.396 OA
ATOM     41  H1  UNL     1      19.952 -40.277   9.256  1.00  0.00     0.210 HD
ENDBRANCH   5  40
TORSDOF 12
ENDMDL