MODEL 3
REMARK VINA RESULT: -8.237537941      1.764      2.343
REMARK  12 active torsions:
REMARK  status: ('A' for Active; 'I' for Inactive)
REMARK    1  A    between atoms: C2_2  and  S1_4
REMARK    2  A    between atoms: S1_4  and  C3_5
REMARK    3  A    between atoms: C3_5  and  C4_6
REMARK    4  A    between atoms: C4_6  and  C5_7
REMARK    5  A    between atoms: C5_7  and  C6_8
REMARK    6  A    between atoms: C6_8  and  C7_9
REMARK    7  A    between atoms: C7_9  and  C8_10
REMARK    8  A    between atoms: C8_10  and  C9_11
REMARK    9  A    between atoms: C9_11  and  C10_12
REMARK       I    between atoms: C10_12  and  N1_14
REMARK   10  A    between atoms: N1_14  and  C11_16
REMARK   11  A    between atoms: C27_33  and  O3_34
REMARK   12  A    between atoms: C33_41  and  N2_43
ROOT
HETATM    1  C11 UNL     1      15.431 -37.687  11.236  1.00  0.00     0.124 C
HETATM    2  C12 UNL     1      14.820 -38.859  10.548  1.00  0.00     0.029 C
HETATM    3  C13 UNL     1      15.898 -39.379   9.576  1.00  0.00     0.012 C
HETATM    4  C14 UNL     1      16.927 -40.070  10.387  1.00  0.00    -0.031 C
HETATM    5  C15 UNL     1      16.138 -40.994  11.339  1.00  0.00     0.016 C
HETATM    6  C16 UNL     1      17.946 -40.890   9.696  1.00  0.00     0.034 C
HETATM    7  C17 UNL     1      19.344 -40.623  10.262  1.00  0.00     0.001 C
HETATM    8  C18 UNL     1      19.388 -40.587  11.738  1.00  0.00     0.006 C
HETATM    9  C19 UNL     1      18.442 -39.605  12.331  1.00  0.00     0.009 C
HETATM   10  C20 UNL     1      17.608 -38.985  11.203  1.00  0.00     0.036 C
HETATM   11  C21 UNL     1      16.764 -37.969  11.846  1.00  0.00     0.124 C
HETATM   12  C22 UNL     1      17.533 -36.648  11.889  1.00  0.00     0.054 C
HETATM   13  F1  UNL     1      16.546 -38.287  13.195  1.00  0.00    -0.241 F
HETATM   14  C23 UNL     1      20.331 -41.705   9.799  1.00  0.00    -0.035 C
HETATM   15  C24 UNL     1      19.973 -43.071  10.222  1.00  0.00     0.016 C
HETATM   16  C25 UNL     1      21.662 -41.342  10.443  1.00  0.00     0.012 C
HETATM   17  C26 UNL     1      22.798 -42.122   9.768  1.00  0.00     0.033 C
HETATM   18  C27 UNL     1      22.860 -41.689   8.345  1.00  0.00     0.126 C
HETATM   19  C28 UNL     1      21.572 -42.107   7.643  1.00  0.00    -0.017 C
HETATM   20  C29 UNL     1      21.674 -41.497   6.236  1.00  0.00     0.018 C
HETATM   21  C30 UNL     1      21.487 -43.586   7.464  1.00  0.00     0.018 C
HETATM   22  C31 UNL     1      20.416 -41.482   8.313  1.00  0.00     0.007 C
HETATM   23  C32 UNL     1      19.096 -41.834   7.741  1.00  0.00     0.045 C
HETATM   24  C33 UNL     1      17.974 -40.886   8.207  1.00  0.00     0.125 C
HETATM   25  C34 UNL     1      18.233 -39.591   7.535  1.00  0.00     0.046 C
ENDROOT
BRANCH   1  26
HETATM   26  N1  UNL     1      14.461 -37.202  12.199  1.00  0.00    -0.353 N
HETATM   27  C10 UNL     1      14.046 -35.882  12.336  1.00  0.00     0.217 C
HETATM   28  O2  UNL     1      14.506 -34.991  11.595  1.00  0.00    -0.274 OA
ATOM     29  H1  UNL     1      14.048 -37.888  12.831  1.00  0.00     0.163 HD
BRANCH  27  30
HETATM   30  C9  UNL     1      13.055 -35.514  13.358  1.00  0.00     0.103 C
BRANCH  30  31
HETATM   31  C8  UNL     1      11.991 -36.586  13.404  1.00  0.00     0.009 C
BRANCH  31  32
HETATM   32  C7  UNL     1      11.261 -36.699  12.054  1.00  0.00     0.000 C
BRANCH  32  33
HETATM   33  C6  UNL     1      10.609 -38.040  12.060  1.00  0.00     0.000 C
BRANCH  33  34
HETATM   34  C5  UNL     1      11.435 -39.216  11.762  1.00  0.00     0.001 C
BRANCH  34  35
HETATM   35  C4  UNL     1      11.235 -40.504  12.435  1.00  0.00     0.010 C
BRANCH  35  36
HETATM   36  C3  UNL     1      10.503 -40.570  13.721  1.00  0.00     0.082 C
BRANCH  36  37
HETATM   37  S1  UNL     1      11.556 -40.893  15.150  1.00  0.00    -0.093 SA
BRANCH  37  38
HETATM   38  C2  UNL     1      12.685 -39.582  15.456  1.00  0.00     0.182 C
HETATM   39  C1  UNL     1      13.981 -39.496  14.751  1.00  0.00     0.104 C
HETATM   40  O1  UNL     1      12.459 -38.679  16.265  1.00  0.00    -0.286 OA
ENDBRANCH  37  38
ENDBRANCH  36  37
ENDBRANCH  35  36
ENDBRANCH  34  35
ENDBRANCH  33  34
ENDBRANCH  32  33
ENDBRANCH  31  32
ENDBRANCH  30  31
ENDBRANCH  27  30
ENDBRANCH   1  26
BRANCH  24  41
HETATM   41  N2  UNL     1      16.809 -41.591   7.632  1.00  0.00    -0.070 N
ATOM     42  H23 UNL     1      16.112 -41.798   8.347  1.00  0.00     0.275 HD
ATOM     43  H22 UNL     1      16.255 -40.971   7.042  1.00  0.00     0.275 HD
ATOM     44  H21 UNL     1      17.085 -42.433   7.128  1.00  0.00     0.275 HD
ENDBRANCH  24  41
BRANCH  18  45
HETATM   45  O3  UNL     1      22.914 -40.297   8.294  1.00  0.00    -0.395 OA
ATOM     46  H3  UNL     1      23.521 -40.034   7.612  1.00  0.00     0.210 HD
ENDBRANCH  18  45
TORSDOF 12
ENDMDL