MODEL 3
REMARK VINA RESULT: -8.507447681      2.773      4.206
REMARK  10 active torsions:
REMARK  status: ('A' for Active; 'I' for Inactive)
REMARK    1  A    between atoms: C11_12  and  N1_13
REMARK    2  A    between atoms: N1_13  and  C12_15
REMARK    3  A    between atoms: C12_15  and  C13_16
REMARK    4  A    between atoms: C13_16  and  C14_17
REMARK    5  A    between atoms: C14_17  and  C15_18
REMARK    6  A    between atoms: C15_18  and  C16_19
REMARK    7  A    between atoms: C16_19  and  C17_20
REMARK    8  A    between atoms: C17_20  and  N2_21
REMARK       I    between atoms: N2_21  and  C18_23
REMARK    9  A    between atoms: C18_23  and  C19_25
REMARK   10  A    between atoms: C28_35  and  O3_36
ROOT
HETATM    1  C1  UNL     1      20.931 -42.771   6.902  1.00  0.00     0.023 C
HETATM    2  C2  UNL     1      20.695 -41.439   7.641  1.00  0.00     0.018 C
HETATM    3  C3  UNL     1      21.055 -40.383   6.602  1.00  0.00     0.023 C
HETATM    4  C4  UNL     1      21.805 -41.345   8.617  1.00  0.00     0.135 C
HETATM    5  O1  UNL     1      22.945 -41.500   8.167  1.00  0.00    -0.297 OA
HETATM    6  C5  UNL     1      21.646 -41.087  10.036  1.00  0.00     0.080 C
HETATM    7  C6  UNL     1      20.265 -40.604  10.381  1.00  0.00     0.018 C
HETATM    8  C7  UNL     1      19.211 -41.392   9.677  1.00  0.00    -0.031 C
HETATM    9  C8  UNL     1      19.379 -42.856  10.113  1.00  0.00     0.016 C
HETATM   10  C9  UNL     1      19.335 -41.342   8.204  1.00  0.00     0.015 C
HETATM   11  C10 UNL     1      18.640 -40.210   7.489  1.00  0.00     0.059 C
HETATM   12  C11 UNL     1      17.318 -39.782   8.016  1.00  0.00    -0.009 C
HETATM   13  C23 UNL     1      17.382 -39.713   9.524  1.00  0.00     0.044 C
HETATM   14  C24 UNL     1      16.212 -39.013  10.148  1.00  0.00     0.001 C
HETATM   15  C25 UNL     1      16.399 -37.544  10.009  1.00  0.00     0.006 C
HETATM   16  C26 UNL     1      16.821 -36.741  11.175  1.00  0.00     0.003 C
HETATM   17  C27 UNL     1      15.560 -36.212  11.821  1.00  0.00     0.032 C
HETATM   18  C28 UNL     1      14.582 -37.342  11.885  1.00  0.00     0.126 C
HETATM   19  C29 UNL     1      15.141 -38.629  12.438  1.00  0.00    -0.018 C
HETATM   20  C30 UNL     1      15.978 -38.350  13.631  1.00  0.00     0.018 C
HETATM   21  C31 UNL     1      13.861 -39.277  13.051  1.00  0.00     0.018 C
HETATM   22  C32 UNL     1      15.678 -39.564  11.405  1.00  0.00     0.001 C
HETATM   23  C33 UNL     1      16.525 -40.580  12.125  1.00  0.00     0.007 C
HETATM   24  C34 UNL     1      17.956 -40.649  11.631  1.00  0.00     0.011 C
HETATM   25  C35 UNL     1      17.821 -40.995  10.144  1.00  0.00    -0.027 C
HETATM   26  C36 UNL     1      16.920 -42.158   9.922  1.00  0.00     0.016 C
ENDROOT
BRANCH  12  27
HETATM   27  N1  UNL     1      16.135 -40.191   7.438  1.00  0.00    -0.376 N
ATOM     28  H1  UNL     1      15.654 -39.525   6.832  1.00  0.00     0.164 HD
BRANCH  27  29
HETATM   29  C12 UNL     1      15.541 -41.447   7.617  1.00  0.00     0.060 C
BRANCH  29  30
HETATM   30  C13 UNL     1      14.080 -41.624   7.704  1.00  0.00     0.044 C
BRANCH  30  31
HETATM   31  C14 UNL     1      13.622 -41.478   9.149  1.00  0.00     0.005 C
BRANCH  31  32
HETATM   32  C15 UNL     1      13.379 -42.752   9.867  1.00  0.00     0.002 C
BRANCH  32  33
HETATM   33  C16 UNL     1      12.512 -43.678   9.051  1.00  0.00     0.020 C
BRANCH  33  34
HETATM   34  C17 UNL     1      12.999 -45.079   8.925  1.00  0.00     0.122 C
BRANCH  34  35
HETATM   35  N2  UNL     1      14.448 -45.103   8.912  1.00  0.00    -0.361 N
HETATM   36  C18 UNL     1      15.146 -46.093   8.179  1.00  0.00     0.224 C
HETATM   37  O2  UNL     1      14.512 -46.955   7.529  1.00  0.00    -0.273 OA
ATOM     38  H2  UNL     1      14.970 -44.401   9.436  1.00  0.00     0.162 HD
BRANCH  36  39
HETATM   39  C19 UNL     1      16.642 -46.129   8.165  1.00  0.00     0.112 C
HETATM   40  C20 UNL     1      17.259 -44.887   7.570  1.00  0.00     0.020 C
HETATM   41  C21 UNL     1      18.020 -45.746   6.600  1.00  0.00     0.039 C
HETATM   42  C22 UNL     1      17.191 -46.929   7.015  1.00  0.00     0.183 C
HETATM   43  F1  UNL     1      17.944 -48.027   7.406  1.00  0.00    -0.249 F
ENDBRANCH  36  39
ENDBRANCH  34  35
ENDBRANCH  33  34
ENDBRANCH  32  33
ENDBRANCH  31  32
ENDBRANCH  30  31
ENDBRANCH  29  30
ENDBRANCH  27  29
ENDBRANCH  12  27
BRANCH  18  44
HETATM   44  O3  UNL     1      13.517 -36.880  12.660  1.00  0.00    -0.395 OA
ATOM     45  H3  UNL     1      12.866 -36.565  12.044  1.00  0.00     0.210 HD
ENDBRANCH  18  44
TORSDOF 10
ENDMDL