MODEL 4
REMARK VINA RESULT: -9.466034310      3.591     10.025
REMARK  10 active torsions:
REMARK  status: ('A' for Active; 'I' for Inactive)
REMARK    1  A    between atoms: C2_2  and  C3_3
REMARK    2  A    between atoms: C4_4  and  C5_5
REMARK    3  A    between atoms: C5_5  and  O1_6
REMARK    4  A    between atoms: C22_24  and  C23_25
REMARK    5  A    between atoms: C23_25  and  C24_27
REMARK    6  A    between atoms: C24_27  and  C25_28
REMARK       I    between atoms: C25_28  and  N1_30
REMARK    7  A    between atoms: N1_30  and  C26_32
REMARK    8  A    between atoms: C26_32  and  C27_33
REMARK    9  A    between atoms: C27_33  and  C28_34
REMARK   10  A    between atoms: C28_34  and  N2_35
REMARK       I    between atoms: N2_35  and  C29_37
ROOT
HETATM    1  C3  UNL     1      21.404 -41.840   6.483  1.00  0.00     0.018 C
HETATM    2  C4  UNL     1      22.195 -42.845   7.227  1.00  0.00     0.017 C
HETATM    3  C6  UNL     1      22.777 -42.330   8.501  1.00  0.00     0.008 C
HETATM    4  C7  UNL     1      21.586 -42.007   9.420  1.00  0.00     0.011 C
HETATM    5  C8  UNL     1      20.571 -41.110   8.766  1.00  0.00    -0.032 C
HETATM    6  C9  UNL     1      21.047 -39.686   8.989  1.00  0.00     0.016 C
HETATM    7  C10 UNL     1      20.242 -41.437   7.352  1.00  0.00     0.002 C
HETATM    8  C11 UNL     1      19.381 -40.352   6.809  1.00  0.00     0.006 C
HETATM    9  C12 UNL     1      18.032 -40.505   7.493  1.00  0.00     0.006 C
HETATM   10  C13 UNL     1      18.079 -40.680   8.951  1.00  0.00     0.003 C
HETATM   11  C14 UNL     1      16.865 -41.457   9.461  1.00  0.00    -0.036 C
HETATM   12  C15 UNL     1      16.436 -40.895  10.765  1.00  0.00     0.011 C
HETATM   13  C16 UNL     1      14.992 -41.204  11.150  1.00  0.00     0.011 C
HETATM   14  C17 UNL     1      14.033 -40.834  10.086  1.00  0.00    -0.032 C
HETATM   15  C18 UNL     1      13.991 -39.384   9.742  1.00  0.00     0.016 C
HETATM   16  C19 UNL     1      14.418 -41.688   8.875  1.00  0.00    -0.005 C
HETATM   17  C20 UNL     1      14.040 -43.113   9.302  1.00  0.00     0.006 C
HETATM   18  C21 UNL     1      12.947 -42.946  10.342  1.00  0.00     0.011 C
HETATM   19  C22 UNL     1      12.673 -41.443  10.346  1.00  0.00     0.035 C
HETATM   20  C31 UNL     1      15.798 -41.549   8.417  1.00  0.00     0.015 C
HETATM   21  C32 UNL     1      17.422 -42.848   9.730  1.00  0.00     0.011 C
HETATM   22  C33 UNL     1      18.919 -42.729   9.779  1.00  0.00     0.011 C
HETATM   23  C34 UNL     1      19.270 -41.299   9.556  1.00  0.00    -0.032 C
HETATM   24  C35 UNL     1      19.544 -40.676  10.929  1.00  0.00     0.016 C
ENDROOT
BRANCH  19  25
HETATM   25  C23 UNL     1      11.942 -40.991  11.507  1.00  0.00     0.001 C
HETATM   26  S1  UNL     1      12.064 -41.609  12.779  1.00  0.00    -0.089 SA
BRANCH  25  27
HETATM   27  C24 UNL     1      11.043 -39.816  11.413  1.00  0.00     0.149 C
BRANCH  27  28
HETATM   28  C25 UNL     1      11.283 -38.791  12.456  1.00  0.00     0.222 C
HETATM   29  O2  UNL     1      10.521 -38.593  13.438  1.00  0.00    -0.273 OA
HETATM   30  N1  UNL     1      12.438 -37.971  12.365  1.00  0.00    -0.360 N
ATOM     31  H1  UNL     1      13.080 -38.099  11.582  1.00  0.00     0.162 HD
BRANCH  30  32
HETATM   32  C26 UNL     1      12.729 -36.944  13.372  1.00  0.00     0.128 C
BRANCH  32  33
HETATM   33  C27 UNL     1      12.932 -35.610  12.762  1.00  0.00     0.064 C
BRANCH  33  34
HETATM   34  C28 UNL     1      14.303 -35.158  12.518  1.00  0.00     0.065 C
BRANCH  34  35
HETATM   35  N2  UNL     1      15.211 -35.869  11.721  1.00  0.00    -0.341 N
HETATM   36  C29 UNL     1      16.160 -36.860  11.944  1.00  0.00     0.217 C
HETATM   37  C30 UNL     1      16.996 -37.386  10.786  1.00  0.00     0.117 C
HETATM   38  O3  UNL     1      16.384 -37.362  13.057  1.00  0.00    -0.274 OA
ATOM     39  H2  UNL     1      15.163 -35.593  10.740  1.00  0.00     0.167 HD
ENDBRANCH  34  35
ENDBRANCH  33  34
ENDBRANCH  32  33
ENDBRANCH  30  32
ENDBRANCH  27  28
ENDBRANCH  25  27
ENDBRANCH  19  25
BRANCH   1  40
HETATM   40  C2  UNL     1      22.056 -40.739   5.807  1.00  0.00    -0.031 C
HETATM   41  C1  UNL     1      22.232 -40.444   4.560  1.00  0.00     0.007 C
ENDBRANCH   1  40
BRANCH   2  42
HETATM   42  C5  UNL     1      23.035 -43.774   6.428  1.00  0.00     0.169 C
BRANCH  42  43
HETATM   43  O1  UNL     1      22.684 -44.067   5.161  1.00  0.00    -0.400 OA
ATOM     44  H1  UNL     1      23.299 -44.522   4.597  1.00  0.00     0.209 HD
ENDBRANCH  42  43
ENDBRANCH   2  42
TORSDOF 10
ENDMDL