MODEL 1
REMARK VINA RESULT: -8.208461029      0.000      0.000
REMARK  10 active torsions:
REMARK  status: ('A' for Active; 'I' for Inactive)
REMARK    1  A    between atoms: C2_2  and  C3_3
REMARK    2  A    between atoms: C3_3  and  C4_4
REMARK    3  A    between atoms: C4_4  and  C5_5
REMARK    4  A    between atoms: C6_8  and  O1_9
REMARK    5  A    between atoms: C24_33  and  C25_34
REMARK       I    between atoms: C25_34  and  N4_36
REMARK    6  A    between atoms: N4_36  and  C26_38
REMARK    7  A    between atoms: C26_38  and  C27_39
REMARK    8  A    between atoms: C26_38  and  C31_43
REMARK    9  A    between atoms: C27_39  and  C28_40
REMARK   10  A    between atoms: C28_40  and  C29_41
ROOT
HETATM    1  C5  UNL     1      20.288 -43.046  10.911  1.00  0.00     0.176 C
HETATM    2  N1  UNL     1      20.892 -43.918   9.890  1.00  0.00    -0.357 N
ATOM      3  H1  UNL     1      21.833 -43.676   9.581  1.00  0.00     0.162 HD
HETATM    4  C6  UNL     1      20.303 -45.055   9.294  1.00  0.00     0.147 C
HETATM    5  C7  UNL     1      19.030 -45.332   8.623  1.00  0.00     0.018 A
HETATM    6  C8  UNL     1      19.236 -46.204   7.510  1.00  0.00     0.039 A
HETATM    7  C9  UNL     1      18.260 -46.638   6.673  1.00  0.00     0.037 A
HETATM    8 CL1  UNL     1      18.588 -47.712   5.323  1.00  0.00    -0.084 Cl
HETATM    9  C10 UNL     1      16.998 -46.181   6.953  1.00  0.00     0.053 A
HETATM   10  C11 UNL     1      16.711 -45.312   8.040  1.00  0.00     0.030 A
HETATM   11  C12 UNL     1      17.741 -44.899   8.867  1.00  0.00     0.045 A
HETATM   12  N2  UNL     1      15.315 -45.016   8.026  1.00  0.00    -0.386 N
ATOM     13  H2  UNL     1      14.714 -45.825   7.873  1.00  0.00     0.160 HD
HETATM   14  C13 UNL     1      14.599 -43.757   8.194  1.00  0.00     0.077 C
HETATM   15  C14 UNL     1      14.087 -43.646   9.607  1.00  0.00     0.032 C
HETATM   16  C15 UNL     1      15.464 -42.612   7.748  1.00  0.00     0.024 C
HETATM   17  C16 UNL     1      15.702 -41.668   8.908  1.00  0.00     0.002 C
HETATM   18  C17 UNL     1      16.312 -40.370   8.467  1.00  0.00     0.007 C
HETATM   19  C18 UNL     1      17.817 -40.468   8.569  1.00  0.00     0.021 C
HETATM   20  C19 UNL     1      18.468 -39.367   7.753  1.00  0.00    -0.011 C
HETATM   21  C20 UNL     1      17.958 -39.528   6.320  1.00  0.00     0.010 C
HETATM   22  C21 UNL     1      19.940 -39.708   7.675  1.00  0.00     0.024 C
HETATM   23  C22 UNL     1      20.529 -39.787   9.069  1.00  0.00     0.127 C
HETATM   24  N3  UNL     1      19.790 -40.697   9.907  1.00  0.00    -0.337 N
HETATM   25  C23 UNL     1      20.535 -41.621  10.714  1.00  0.00     0.243 C
HETATM   26  O2  UNL     1      21.524 -41.071  11.307  1.00  0.00    -0.271 OA
HETATM   27  C24 UNL     1      18.362 -40.645   9.941  1.00  0.00     0.183 C
ENDROOT
BRANCH  27  28
HETATM   28  C25 UNL     1      17.819 -39.755  10.977  1.00  0.00     0.241 C
HETATM   29  O3  UNL     1      18.044 -38.526  10.900  1.00  0.00    -0.271 OA
HETATM   30  N4  UNL     1      17.042 -40.177  12.086  1.00  0.00    -0.354 N
ATOM     31  H4  UNL     1      16.835 -41.172  12.178  1.00  0.00     0.162 HD
BRANCH  30  32
HETATM   32  C26 UNL     1      16.528 -39.283  13.090  1.00  0.00     0.087 C
BRANCH  32  33
HETATM   33  C27 UNL     1      17.511 -38.226  13.522  1.00  0.00     0.025 C
BRANCH  33  34
HETATM   34  C28 UNL     1      18.152 -38.567  14.857  1.00  0.00     0.002 C
BRANCH  34  35
HETATM   35  C29 UNL     1      19.656 -38.614  14.633  1.00  0.00    -0.004 C
HETATM   36  C30 UNL     1      20.046 -40.026  14.260  1.00  0.00     0.005 C
ENDBRANCH  34  35
ENDBRANCH  33  34
ENDBRANCH  32  33
BRANCH  32  37
HETATM   37  C31 UNL     1      15.317 -38.574  12.520  1.00  0.00     0.000 C
HETATM   38  C32 UNL     1      14.044 -39.056  13.184  1.00  0.00     0.011 C
HETATM   39  C33 UNL     1      15.446 -37.087  12.582  1.00  0.00     0.011 C
ENDBRANCH  32  37
ENDBRANCH  30  32
ENDBRANCH  27  28
BRANCH   1  40
HETATM   40  C4  UNL     1      20.835 -43.516  12.225  1.00  0.00     0.035 C
BRANCH  40  41
HETATM   41  C3  UNL     1      22.043 -44.371  12.200  1.00  0.00     0.002 C
BRANCH  41  42
HETATM   42  C2  UNL     1      22.130 -45.219  13.492  1.00  0.00    -0.004 C
HETATM   43  C1  UNL     1      21.175 -44.580  14.489  1.00  0.00     0.005 C
ENDBRANCH  41  42
ENDBRANCH  40  41
ENDBRANCH   1  40
BRANCH   4  44
HETATM   44  O1  UNL     1      21.151 -46.076   9.396  1.00  0.00    -0.346 OA
ATOM     45  H1  UNL     1      21.224 -46.495   8.547  1.00  0.00     0.219 HD
ENDBRANCH   4  44
TORSDOF 10
ENDMDL