MODEL 3
REMARK VINA RESULT: -10.026291094      2.545      6.368
REMARK  9 active torsions:
REMARK  status: ('A' for Active; 'I' for Inactive)
REMARK    1  A    between atoms: N1_6  and  C6_7
REMARK    2  A    between atoms: C6_7  and  C7_8
REMARK    3  A    between atoms: C7_8  and  C8_9
REMARK    4  A    between atoms: C8_9  and  C9_10
REMARK    5  A    between atoms: C16_17  and  C17_18
REMARK    6  A    between atoms: C17_18  and  N2_19
REMARK    7  A    between atoms: N2_19  and  C18_21
REMARK    8  A    between atoms: C21_24  and  N3_25
REMARK    9  A    between atoms: N3_25  and  C22_27
ROOT
HETATM    1  N2  UNL     1      15.954 -37.862  12.815  1.00  0.00    -0.393 N
ATOM      2  H2  UNL     1      16.420 -37.151  12.251  1.00  0.00     0.159 HD
ENDROOT
BRANCH   1   3
HETATM    3  C17 UNL     1      16.584 -38.479  13.897  1.00  0.00     0.097 C
BRANCH   3   4
HETATM    4  C16 UNL     1      18.019 -38.839  13.768  1.00  0.00     0.013 A
HETATM    5  C15 UNL     1      18.884 -38.475  14.819  1.00  0.00     0.015 A
HETATM    6  C14 UNL     1      20.110 -39.082  14.874  1.00  0.00     0.002 A
HETATM    7  C13 UNL     1      20.549 -40.035  13.949  1.00  0.00     0.010 A
HETATM    8  C12 UNL     1      19.687 -40.361  12.932  1.00  0.00    -0.024 A
HETATM    9  C11 UNL     1      20.090 -41.361  11.933  1.00  0.00     0.044 C
HETATM   10  C35 UNL     1      18.465 -39.765  12.868  1.00  0.00     0.087 A
HETATM   11  C10 UNL     1      19.342 -41.375  10.656  1.00  0.00     0.037 C
HETATM   12  C9  UNL     1      18.226 -40.332  10.542  1.00  0.00     0.129 C
HETATM   13  O1  UNL     1      17.636 -40.120  11.798  1.00  0.00    -0.344 OA
BRANCH  12  14
HETATM   14  C8  UNL     1      18.769 -39.224   9.769  1.00  0.00     0.034 C
BRANCH  14  15
HETATM   15  C7  UNL     1      19.127 -39.297   8.332  1.00  0.00     0.033 C
BRANCH  15  16
HETATM   16  C6  UNL     1      20.643 -38.960   8.225  1.00  0.00     0.272 C
BRANCH  16  17
HETATM   17  N1  UNL     1      21.340 -39.959   7.441  1.00  0.00     0.088 N
HETATM   18  C5  UNL     1      20.350 -40.925   6.947  1.00  0.00     0.272 C
HETATM   19  C4  UNL     1      21.021 -41.818   5.919  1.00  0.00     0.031 C
HETATM   20  C3  UNL     1      22.163 -42.526   6.567  1.00  0.00     0.007 C
HETATM   21  C2  UNL     1      22.072 -42.243   8.054  1.00  0.00     0.010 C
HETATM   22  C1  UNL     1      23.184 -43.002   8.743  1.00  0.00     0.011 C
HETATM   23  C36 UNL     1      22.252 -40.767   8.271  1.00  0.00     0.276 C
ENDBRANCH  16  17
ENDBRANCH  15  16
ENDBRANCH  14  15
ENDBRANCH  12  14
ENDBRANCH   3   4
ENDBRANCH   1   3
BRANCH   1  24
HETATM   24  C18 UNL     1      14.623 -38.285  12.548  1.00  0.00     0.083 C
HETATM   25  C19 UNL     1      13.978 -38.653  13.892  1.00  0.00     0.027 C
HETATM   26  C20 UNL     1      13.277 -39.938  13.757  1.00  0.00     0.027 C
HETATM   27  C21 UNL     1      13.253 -40.158  12.258  1.00  0.00     0.079 C
HETATM   28  C34 UNL     1      14.527 -39.631  11.782  1.00  0.00     0.049 C
BRANCH  27  29
HETATM   29  N3  UNL     1      12.705 -41.395  11.913  1.00  0.00    -0.413 N
ATOM     30  H3  UNL     1      12.490 -42.102  12.615  1.00  0.00     0.154 HD
BRANCH  29  31
HETATM   31  C22 UNL     1      12.456 -41.624  10.489  1.00  0.00     0.080 C
HETATM   32  C23 UNL     1      11.410 -42.715  10.422  1.00  0.00     0.036 C
HETATM   33  C24 UNL     1      11.294 -43.426   9.127  1.00  0.00     0.038 C
HETATM   34  C25 UNL     1      11.389 -42.524   7.908  1.00  0.00     0.123 C
HETATM   35  C33 UNL     1      12.332 -44.498   8.915  1.00  0.00    -0.044 A
HETATM   36  N4  UNL     1      12.688 -41.951   7.764  1.00  0.00    -0.412 N
HETATM   37  C26 UNL     1      13.731 -42.555   8.498  1.00  0.00     0.112 C
ATOM     38  H4  UNL     1      12.855 -41.146   7.160  1.00  0.00     0.153 HD
HETATM   39  C27 UNL     1      13.777 -42.131   9.957  1.00  0.00     0.054 C
HETATM   40  C28 UNL     1      13.575 -44.025   8.555  1.00  0.00    -0.028 A
HETATM   41  C29 UNL     1      14.595 -44.902   8.332  1.00  0.00     0.033 A
HETATM   42  C30 UNL     1      14.414 -46.282   8.462  1.00  0.00     0.034 A
HETATM   43 CL1  UNL     1      15.706 -47.424   8.184  1.00  0.00    -0.084 Cl
HETATM   44  C31 UNL     1      13.151 -46.694   8.826  1.00  0.00     0.024 A
HETATM   45  C32 UNL     1      12.085 -45.842   9.062  1.00  0.00     0.010 A
ENDBRANCH  29  31
ENDBRANCH  27  29
ENDBRANCH   1  24
TORSDOF 9
ENDMDL