MODEL 1
REMARK VINA RESULT: -9.120377821      0.000      0.000
REMARK  10 active torsions:
REMARK  status: ('A' for Active; 'I' for Inactive)
REMARK    1  A    between atoms: C2_2  and  C3_3
REMARK    2  A    between atoms: C2_2  and  C7_9
REMARK    3  A    between atoms: C3_3  and  C4_4
REMARK    4  A    between atoms: C4_4  and  C5_5
REMARK    5  A    between atoms: C5_5  and  C6_6
REMARK    6  A    between atoms: C23_26  and  N1_27
REMARK    7  A    between atoms: N1_27  and  C24_29
REMARK    8  A    between atoms: C24_29  and  C25_30
REMARK    9  A    between atoms: C25_30  and  N2_31
REMARK   10  A    between atoms: C28_34  and  O3_35
ROOT
HETATM    1  C7  UNL     1      20.681 -42.336   6.314  1.00  0.00    -0.003 C
HETATM    2  C8  UNL     1      20.788 -43.831   6.746  1.00  0.00     0.006 C
HETATM    3  C9  UNL     1      20.035 -43.940   8.051  1.00  0.00     0.010 C
HETATM    4  C10 UNL     1      20.422 -42.610   8.652  1.00  0.00    -0.033 C
HETATM    5  C11 UNL     1      21.808 -42.684   9.075  1.00  0.00     0.016 C
HETATM    6  C12 UNL     1      20.073 -41.761   7.457  1.00  0.00     0.033 C
HETATM    7  C13 UNL     1      20.059 -40.421   7.975  1.00  0.00     0.184 C
HETATM    8  F1  UNL     1      19.241 -39.501   7.302  1.00  0.00    -0.248 F
HETATM    9  C14 UNL     1      19.508 -40.588   9.413  1.00  0.00    -0.004 C
HETATM   10  C15 UNL     1      20.624 -40.030  10.315  1.00  0.00     0.019 C
HETATM   11  C16 UNL     1      19.475 -42.070   9.655  1.00  0.00     0.005 C
HETATM   12  C17 UNL     1      18.120 -42.674   9.633  1.00  0.00     0.007 C
HETATM   13  C18 UNL     1      17.153 -41.835  10.488  1.00  0.00     0.011 C
HETATM   14  C19 UNL     1      16.973 -40.546   9.761  1.00  0.00    -0.032 C
HETATM   15  C20 UNL     1      16.229 -40.687   8.462  1.00  0.00     0.011 C
HETATM   16  C21 UNL     1      14.923 -41.336   8.697  1.00  0.00     0.008 C
HETATM   17  C22 UNL     1      14.018 -40.648   9.731  1.00  0.00     0.019 C
HETATM   18  C23 UNL     1      12.994 -41.652  10.120  1.00  0.00     0.110 C
HETATM   19  C28 UNL     1      12.585 -41.749  11.543  1.00  0.00     0.140 C
HETATM   20  C29 UNL     1      13.067 -40.635  12.421  1.00  0.00     0.034 C
HETATM   21  C30 UNL     1      14.573 -40.476  12.177  1.00  0.00     0.012 C
HETATM   22  C31 UNL     1      14.726 -39.905  10.780  1.00  0.00    -0.034 C
HETATM   23  C32 UNL     1      14.042 -38.519  10.932  1.00  0.00     0.016 C
HETATM   24  C33 UNL     1      16.139 -39.518  10.493  1.00  0.00     0.003 C
HETATM   25  C34 UNL     1      16.975 -39.200  11.663  1.00  0.00     0.006 C
HETATM   26  C35 UNL     1      18.342 -39.181  11.081  1.00  0.00     0.007 C
HETATM   27  C36 UNL     1      18.277 -39.850   9.694  1.00  0.00     0.006 C
ENDROOT
BRANCH   1  28
HETATM   28  C2  UNL     1      21.961 -41.914   5.689  1.00  0.00    -0.014 C
HETATM   29  C1  UNL     1      22.707 -43.223   5.356  1.00  0.00     0.010 C
BRANCH  28  30
HETATM   30  C3  UNL     1      21.833 -41.144   4.420  1.00  0.00     0.005 C
BRANCH  30  31
HETATM   31  C4  UNL     1      20.524 -40.909   3.812  1.00  0.00     0.011 C
BRANCH  31  32
HETATM   32  C5  UNL     1      19.940 -41.688   2.727  1.00  0.00     0.113 C
BRANCH  32  33
HETATM   33  C6  UNL     1      20.395 -43.094   2.587  1.00  0.00     0.172 C
HETATM   34  O1  UNL     1      19.903 -43.988   3.282  1.00  0.00    -0.648 OA
HETATM   35  O2  UNL     1      21.380 -43.400   1.666  1.00  0.00    -0.648 OA
ENDBRANCH  32  33
ENDBRANCH  31  32
ENDBRANCH  30  31
ENDBRANCH  28  30
ENDBRANCH   1  28
BRANCH  18  36
HETATM   36  N1  UNL     1      11.791 -41.661   9.325  1.00  0.00    -0.413 N
ATOM     37  H1  UNL     1      11.060 -40.962   9.466  1.00  0.00     0.153 HD
BRANCH  36  38
HETATM   38  C24 UNL     1      11.656 -42.668   8.343  1.00  0.00     0.133 C
BRANCH  38  39
HETATM   39  C25 UNL     1      11.108 -43.967   8.903  1.00  0.00     0.135 C
BRANCH  39  40
HETATM   40  N2  UNL     1      11.724 -45.128   8.390  1.00  0.00    -0.419 N
HETATM   41  C26 UNL     1      11.348 -46.376   8.948  1.00  0.00     0.142 C
HETATM   42  C27 UNL     1      13.156 -45.006   8.202  1.00  0.00     0.142 C
ENDBRANCH  39  40
ENDBRANCH  38  39
ENDBRANCH  36  38
ENDBRANCH  18  36
BRANCH  19  43
HETATM   43  O3  UNL     1      11.220 -41.903  11.763  1.00  0.00    -0.394 OA
ATOM     44  H3  UNL     1      10.744 -41.102  11.947  1.00  0.00     0.210 HD
ENDBRANCH  19  43
TORSDOF 10
ENDMDL