MODEL 3
REMARK VINA RESULT: -7.817117748      1.453      1.791
REMARK  11 active torsions:
REMARK  status: ('A' for Active; 'I' for Inactive)
REMARK       I    between atoms: C2_2  and  N1_4
REMARK    1  A    between atoms: N1_4  and  C3_6
REMARK    2  A    between atoms: C3_6  and  C4_7
REMARK    3  A    between atoms: C3_6  and  C10_19
REMARK    4  A    between atoms: C4_7  and  C5_8
REMARK    5  A    between atoms: C5_8  and  C6_9
REMARK    6  A    between atoms: C6_9  and  C7_10
REMARK    7  A    between atoms: C7_10  and  C8_11
REMARK    8  A    between atoms: C8_11  and  C9_12
REMARK    9  A    between atoms: C9_12  and  O2_13
REMARK   10  A    between atoms: N2_15  and  O3_17
REMARK   11  A    between atoms: N3_26  and  C16_27
ROOT
HETATM    1  C10 UNL     1      15.782 -39.095  10.308  1.00  0.00     0.041 C
HETATM    2  C11 UNL     1      17.167 -38.482  10.237  1.00  0.00     0.011 C
HETATM    3  C12 UNL     1      17.781 -38.673   8.859  1.00  0.00     0.001 C
HETATM    4  C13 UNL     1      19.022 -39.523   8.944  1.00  0.00     0.009 C
HETATM    5  C14 UNL     1      19.170 -40.395   7.690  1.00  0.00     0.103 C
HETATM    6  C15 UNL     1      20.194 -41.450   7.848  1.00  0.00     0.220 C
HETATM    7  O4  UNL     1      21.378 -40.986   8.046  1.00  0.00    -0.273 OA
HETATM    8  N3  UNL     1      19.981 -42.856   7.800  1.00  0.00    -0.346 N
HETATM    9  C22 UNL     1      18.950 -43.548   8.582  1.00  0.00     0.142 C
HETATM   10  C23 UNL     1      17.756 -43.973   7.806  1.00  0.00     0.080 C
HETATM   11 BR1  UNL     1      17.923 -45.726   7.004  1.00  0.00    -0.089 Br
HETATM   12  C24 UNL     1      16.543 -43.982   8.752  1.00  0.00     0.056 C
HETATM   13  C25 UNL     1      15.961 -42.622   8.877  1.00  0.00    -0.057 A
HETATM   14  C26 UNL     1      15.001 -42.423   7.858  1.00  0.00     0.007 A
HETATM   15  C27 UNL     1      14.332 -41.242   7.668  1.00  0.00     0.001 A
HETATM   16  C28 UNL     1      14.658 -40.244   8.541  1.00  0.00     0.007 A
HETATM   17  C29 UNL     1      15.615 -40.393   9.581  1.00  0.00    -0.051 A
HETATM   18  C30 UNL     1      16.272 -41.593   9.752  1.00  0.00     0.014 A
ENDROOT
BRANCH   1  19
HETATM   19  C3  UNL     1      15.263 -39.032  11.698  1.00  0.00     0.092 C
BRANCH  19  20
HETATM   20  N1  UNL     1      14.979 -37.702  12.194  1.00  0.00    -0.356 N
HETATM   21  C2  UNL     1      13.662 -37.227  12.411  1.00  0.00     0.213 C
HETATM   22  C1  UNL     1      13.420 -35.876  12.912  1.00  0.00     0.117 C
HETATM   23  O1  UNL     1      12.691 -37.982  12.168  1.00  0.00    -0.274 OA
ATOM     24  H1  UNL     1      15.762 -37.079  12.396  1.00  0.00     0.162 HD
ENDBRANCH  19  20
BRANCH  19  25
HETATM   25  C4  UNL     1      16.205 -39.645  12.713  1.00  0.00     0.026 C
BRANCH  25  26
HETATM   26  C5  UNL     1      16.675 -38.566  13.662  1.00  0.00     0.002 C
BRANCH  26  27
HETATM   27  C6  UNL     1      18.206 -38.436  13.605  1.00  0.00     0.001 C
BRANCH  27  28
HETATM   28  C7  UNL     1      18.806 -38.714  14.949  1.00  0.00     0.008 C
BRANCH  28  29
HETATM   29  C8  UNL     1      20.270 -39.011  14.929  1.00  0.00     0.086 C
BRANCH  29  30
HETATM   30  C9  UNL     1      20.547 -40.367  14.466  1.00  0.00     0.135 C
HETATM   31  N2  UNL     1      20.704 -41.328  15.320  1.00  0.00    -0.251 N
ATOM     32  H2  UNL     1      20.634 -41.140  16.320  1.00  0.00     0.196 HD
BRANCH  30  33
HETATM   33  O2  UNL     1      20.645 -40.644  13.117  1.00  0.00    -0.348 OA
ATOM     34  H2  UNL     1      20.497 -41.524  12.791  1.00  0.00     0.219 HD
ENDBRANCH  30  33
BRANCH  31  35
HETATM   35  O3  UNL     1      20.960 -42.587  14.881  1.00  0.00    -0.288 OA
ATOM     36  H3  UNL     1      20.344 -43.287  15.063  1.00  0.00     0.244 HD
ENDBRANCH  31  35
ENDBRANCH  29  30
ENDBRANCH  28  29
ENDBRANCH  27  28
ENDBRANCH  26  27
ENDBRANCH  25  26
ENDBRANCH  19  25
ENDBRANCH   1  19
BRANCH   8  37
HETATM   37  C16 UNL     1      20.836 -43.648   6.953  1.00  0.00     0.087 C
HETATM   38  C17 UNL     1      22.037 -44.091   7.750  1.00  0.00     0.025 C
HETATM   39  C18 UNL     1      22.657 -45.197   6.862  1.00  0.00     0.002 C
HETATM   40  C19 UNL     1      23.331 -44.400   5.754  1.00  0.00     0.000 C
HETATM   41  C20 UNL     1      22.402 -43.548   4.975  1.00  0.00     0.002 C
HETATM   42  C21 UNL     1      21.166 -43.077   5.623  1.00  0.00     0.025 C
ENDBRANCH   8  37
TORSDOF 11
ENDMDL