MODEL 2
REMARK VINA RESULT: -9.036557781      2.880      6.046
REMARK  14 active torsions:
REMARK  status: ('A' for Active; 'I' for Inactive)
REMARK    1  A    between atoms: C4_4  and  C5_5
REMARK    2  A    between atoms: C10_10  and  C11_11
REMARK    3  A    between atoms: C11_11  and  C12_12
REMARK    4  A    between atoms: C12_12  and  C13_13
REMARK    5  A    between atoms: C13_13  and  O1_14
REMARK    6  A    between atoms: C13_13  and  C14_16
REMARK    7  A    between atoms: C14_16  and  C15_17
REMARK    8  A    between atoms: C15_17  and  C16_18
REMARK    9  A    between atoms: C16_18  and  C17_19
REMARK   10  A    between atoms: C18_20  and  C19_21
REMARK   11  A    between atoms: C19_21  and  O2_22
REMARK   12  A    between atoms: C19_21  and  C20_24
REMARK   13  A    between atoms: C25_29  and  O3_30
REMARK   14  A    between atoms: C35_41  and  C36_42
REMARK       I    between atoms: C36_42  and  N1_44
ROOT
HETATM    1  C14 UNL     1      19.235 -40.329   7.876  1.00  0.00     0.005 C
ENDROOT
BRANCH   1   2
HETATM    2  C13 UNL     1      18.100 -39.472   7.640  1.00  0.00     0.151 C
BRANCH   2   3
HETATM    3  C12 UNL     1      16.942 -39.465   8.621  1.00  0.00     0.116 C
BRANCH   3   4
HETATM    4  C11 UNL     1      17.075 -39.927   9.752  1.00  0.00    -0.171 C
BRANCH   4   5
HETATM    5  C10 UNL     1      17.250 -40.449  11.049  1.00  0.00     0.086 C
HETATM    6  C9  UNL     1      17.742 -39.585  12.122  1.00  0.00    -0.052 C
HETATM    7  C5  UNL     1      16.668 -38.696  12.527  1.00  0.00     0.031 C
HETATM    8  C8  UNL     1      18.826 -39.499  12.911  1.00  0.00    -0.021 C
HETATM    9  C6  UNL     1      16.953 -38.569  14.023  1.00  0.00     0.027 C
HETATM   10  C35 UNL     1      15.380 -39.563  12.234  1.00  0.00     0.006 C
HETATM   11  C7  UNL     1      18.505 -38.512  13.970  1.00  0.00     0.029 C
HETATM   12  C34 UNL     1      15.832 -40.835  11.643  1.00  0.00     0.062 C
BRANCH   7  13
HETATM   13  C4  UNL     1      16.430 -37.406  11.948  1.00  0.00    -0.006 C
HETATM   14  C2  UNL     1      15.711 -36.346  11.907  1.00  0.00    -0.090 C
HETATM   15  C1  UNL     1      16.277 -35.355  10.799  1.00  0.00     0.042 C
HETATM   16  C3  UNL     1      14.514 -35.793  12.528  1.00  0.00     0.042 C
ENDBRANCH   7  13
BRANCH  10  17
HETATM   17  C36 UNL     1      14.376 -39.475  13.222  1.00  0.00     0.246 C
HETATM   18  O4  UNL     1      14.412 -39.666  14.398  1.00  0.00    -0.268 OA
HETATM   19  N1  UNL     1      13.013 -39.085  12.706  1.00  0.00    -0.357 N
HETATM   20  C37 UNL     1      12.787 -38.903  11.303  1.00  0.00     0.152 C
HETATM   21  C38 UNL     1      12.016 -38.904  13.727  1.00  0.00     0.152 C
ENDBRANCH  10  17
ENDBRANCH   4   5
ENDBRANCH   3   4
ENDBRANCH   2   3
BRANCH   2  22
HETATM   22  O1  UNL     1      17.531 -39.747   6.355  1.00  0.00    -0.391 OA
ATOM     23  H1  UNL     1      18.091 -39.315   5.721  1.00  0.00     0.210 HD
ENDBRANCH   2  22
ENDBRANCH   1   2
BRANCH   1  24
HETATM   24  C15 UNL     1      20.475 -39.749   8.192  1.00  0.00    -0.005 C
BRANCH  24  25
HETATM   25  C16 UNL     1      21.656 -40.460   8.048  1.00  0.00    -0.017 C
BRANCH  25  26
HETATM   26  C17 UNL     1      22.194 -41.730   7.777  1.00  0.00     0.045 C
HETATM   27  C18 UNL     1      21.712 -42.950   7.303  1.00  0.00    -0.033 C
HETATM   28  C26 UNL     1      21.679 -43.886   8.552  1.00  0.00     0.027 C
HETATM   29  C27 UNL     1      23.131 -44.511   8.669  1.00  0.00     0.010 C
HETATM   30  C30 UNL     1      21.816 -42.933   9.703  1.00  0.00    -0.025 A
HETATM   31  C28 UNL     1      23.899 -43.198   8.747  1.00  0.00     0.007 C
HETATM   32  C29 UNL     1      22.918 -42.159   9.137  1.00  0.00     0.007 C
HETATM   33  C31 UNL     1      21.825 -43.371  11.115  1.00  0.00     0.016 A
HETATM   34  C32 UNL     1      20.720 -42.496  10.523  1.00  0.00    -0.008 A
HETATM   35  C33 UNL     1      19.382 -43.102  10.430  1.00  0.00     0.011 C
BRANCH  27  36
HETATM   36  C19 UNL     1      20.822 -43.569   6.338  1.00  0.00     0.082 C
BRANCH  36  37
HETATM   37  O2  UNL     1      19.736 -44.281   6.768  1.00  0.00    -0.359 OA
ATOM     38  H2  UNL     1      18.950 -43.827   7.047  1.00  0.00     0.217 HD
ENDBRANCH  36  37
BRANCH  36  39
HETATM   39  C20 UNL     1      20.606 -42.825   5.066  1.00  0.00     0.030 A
HETATM   40  C21 UNL     1      20.669 -41.495   4.908  1.00  0.00     0.017 A
HETATM   41  C22 UNL     1      20.446 -40.856   3.701  1.00  0.00     0.001 A
HETATM   42  C23 UNL     1      20.135 -41.533   2.571  1.00  0.00     0.003 A
HETATM   43  C24 UNL     1      20.038 -42.950   2.699  1.00  0.00     0.037 A
HETATM   44  C25 UNL     1      20.254 -43.603   3.880  1.00  0.00     0.078 A
BRANCH  44  45
HETATM   45  O3  UNL     1      20.171 -44.938   3.951  1.00  0.00    -0.360 OA
ATOM     46  H3  UNL     1      19.667 -45.421   3.306  1.00  0.00     0.217 HD
ENDBRANCH  44  45
ENDBRANCH  36  39
ENDBRANCH  27  36
ENDBRANCH  25  26
ENDBRANCH  24  25
ENDBRANCH   1  24
TORSDOF 14
ENDMDL