MODEL 1
REMARK VINA RESULT: -8.568627697      0.000      0.000
REMARK  13 active torsions:
REMARK  status: ('A' for Active; 'I' for Inactive)
REMARK    1  A    between atoms: C13_13  and  C14_14
REMARK    2  A    between atoms: C15_15  and  C16_16
REMARK    3  A    between atoms: C16_16  and  C17_18
REMARK    4  A    between atoms: C17_18  and  C19_20
REMARK    5  A    between atoms: C19_20  and  O2_21
REMARK    6  A    between atoms: C19_20  and  C20_23
REMARK    7  A    between atoms: C20_23  and  N1_24
REMARK    8  A    between atoms: C20_23  and  O3_31
REMARK    9  A    between atoms: C21_26  and  C22_27
REMARK   10  A    between atoms: C22_27  and  C23_28
REMARK   11  A    between atoms: C23_28  and  C24_29
REMARK   12  A    between atoms: O3_31  and  C26_32
REMARK   13  A    between atoms: C36_43  and  O5_44
ROOT
HETATM    1  C1  UNL     1      13.436  37.563 -13.480  1.00  0.00     0.015 C
HETATM    2  C2  UNL     1      14.003  38.519 -12.750  1.00  0.00    -0.074 C
HETATM    3  C3  UNL     1      13.276  39.771 -12.380  1.00  0.00     0.039 C
HETATM    4  C4  UNL     1      14.007  40.079 -11.059  1.00  0.00     0.040 C
HETATM    5  C5  UNL     1      15.442  39.872 -11.558  1.00  0.00    -0.061 C
HETATM    6  C6  UNL     1      16.504  40.347 -10.671  1.00  0.00    -0.067 C
HETATM    7  C7  UNL     1      17.667  40.752 -11.520  1.00  0.00     0.036 C
HETATM    8  C8  UNL     1      18.903  41.229 -10.826  1.00  0.00     0.011 C
HETATM    9  C9  UNL     1      19.106  40.309  -9.674  1.00  0.00     0.007 C
HETATM   10  C10 UNL     1      20.488  40.328  -9.055  1.00  0.00    -0.016 C
HETATM   11  C11 UNL     1      20.978  38.876  -8.768  1.00  0.00     0.020 C
HETATM   12  C12 UNL     1      21.434  40.807 -10.110  1.00  0.00     0.020 C
HETATM   13  C13 UNL     1      20.608  41.016  -7.783  1.00  0.00    -0.053 C
HETATM   14  C28 UNL     1      19.518  40.751  -6.964  1.00  0.00    -0.018 C
HETATM   15  C29 UNL     1      18.442  39.863  -7.452  1.00  0.00     0.038 C
HETATM   16  C30 UNL     1      17.958  40.405  -8.729  1.00  0.00    -0.025 C
HETATM   17  C31 UNL     1      17.548  41.852  -8.452  1.00  0.00     0.017 C
HETATM   18  C32 UNL     1      16.779  39.682  -9.376  1.00  0.00    -0.012 C
HETATM   19  C33 UNL     1      15.572  39.980  -8.461  1.00  0.00     0.021 C
HETATM   20  C34 UNL     1      16.954  38.224  -9.352  1.00  0.00     0.017 C
HETATM   21  C35 UNL     1      16.903  37.459 -10.639  1.00  0.00     0.034 C
HETATM   22  C36 UNL     1      15.538  37.390 -11.273  1.00  0.00     0.135 C
HETATM   23  C37 UNL     1      15.400  38.558 -12.182  1.00  0.00     0.028 C
HETATM   24  C38 UNL     1      16.247  38.400 -13.451  1.00  0.00     0.027 C
ENDROOT
BRANCH  13  25
HETATM   25  C14 UNL     1      21.603  41.857  -7.203  1.00  0.00     0.011 C
HETATM   26  C15 UNL     1      21.900  42.890  -6.549  1.00  0.00     0.051 C
BRANCH  26  27
HETATM   27  C16 UNL     1      21.480  44.041  -5.863  1.00  0.00     0.155 C
HETATM   28  O1  UNL     1      21.775  44.392  -4.713  1.00  0.00    -0.293 OA
BRANCH  27  29
HETATM   29  C17 UNL     1      20.521  45.031  -6.572  1.00  0.00     0.088 C
HETATM   30  C18 UNL     1      21.370  46.120  -7.135  1.00  0.00     0.021 C
BRANCH  29  31
HETATM   31  C19 UNL     1      19.585  45.581  -5.495  1.00  0.00     0.178 C
BRANCH  31  32
HETATM   32  O2  UNL     1      19.079  44.608  -4.705  1.00  0.00    -0.390 OA
ATOM     33  H2  UNL     1      19.318  44.721  -3.793  1.00  0.00     0.210 HD
ENDBRANCH  31  32
BRANCH  31  34
HETATM   34  C20 UNL     1      18.664  46.613  -6.037  1.00  0.00     0.259 C
BRANCH  34  35
HETATM   35  N1  UNL     1      17.463  46.300  -6.563  1.00  0.00    -0.374 N
HETATM   36  C21 UNL     1      17.041  45.835  -7.742  1.00  0.00     0.058 C
ATOM     37  H1  UNL     1      16.697  46.453  -5.906  1.00  0.00     0.161 HD
BRANCH  36  38
HETATM   38  C22 UNL     1      17.021  46.688  -8.969  1.00  0.00     0.044 C
BRANCH  38  39
HETATM   39  C23 UNL     1      18.336  46.368  -9.709  1.00  0.00     0.005 C
BRANCH  39  40
HETATM   40  C24 UNL     1      18.621  44.890  -9.719  1.00  0.00    -0.004 C
HETATM   41  C25 UNL     1      20.004  44.593 -10.249  1.00  0.00     0.005 C
ENDBRANCH  39  40
ENDBRANCH  38  39
ENDBRANCH  36  38
ENDBRANCH  34  35
BRANCH  34  42
HETATM   42  O3  UNL     1      18.526  47.591  -4.950  1.00  0.00    -0.293 OA
BRANCH  42  43
HETATM   43  C26 UNL     1      18.334  48.897  -5.219  1.00  0.00     0.256 C
HETATM   44  C27 UNL     1      19.447  49.907  -5.219  1.00  0.00     0.126 C
HETATM   45  O4  UNL     1      17.201  49.368  -5.491  1.00  0.00    -0.266 OA
ENDBRANCH  42  43
ENDBRANCH  34  42
ENDBRANCH  31  34
ENDBRANCH  29  31
ENDBRANCH  27  29
ENDBRANCH  26  27
ENDBRANCH  13  25
BRANCH  22  46
HETATM   46  O5  UNL     1      15.461  36.187 -11.968  1.00  0.00    -0.394 OA
ATOM     47  H5  UNL     1      15.991  36.277 -12.752  1.00  0.00     0.210 HD
ENDBRANCH  22  46
TORSDOF 13
ENDMDL