MODEL 5
REMARK VINA RESULT: -8.591860348      1.741      2.504
REMARK  13 active torsions:
REMARK  status: ('A' for Active; 'I' for Inactive)
REMARK    1  A    between atoms: C4_4  and  C5_5
REMARK    2  A    between atoms: C5_5  and  C6_6
REMARK    3  A    between atoms: C6_6  and  C7_7
REMARK    4  A    between atoms: C7_7  and  C8_8
REMARK    5  A    between atoms: C7_7  and  C36_42
REMARK    6  A    between atoms: C8_8  and  C9_9
REMARK    7  A    between atoms: C9_9  and  C10_10
REMARK    8  A    between atoms: C13_13  and  C15_15
REMARK    9  A    between atoms: C15_15  and  C16_16
REMARK   10  A    between atoms: C16_16  and  O1_17
REMARK   11  A    between atoms: C29_32  and  O3_33
REMARK   12  A    between atoms: C29_32  and  C30_35
REMARK   13  A    between atoms: C36_42  and  C37_43
ROOT
HETATM    1  C10 UNL     1      12.413  41.129 -11.186  1.00  0.00    -0.031 C
HETATM    2  C11 UNL     1      13.012  42.564 -10.939  1.00  0.00     0.016 C
HETATM    3  C12 UNL     1      11.636  41.302 -12.425  1.00  0.00     0.027 C
HETATM    4  C13 UNL     1      11.348  40.260 -13.390  1.00  0.00     0.024 C
HETATM    5  C14 UNL     1       9.861  40.160 -13.636  1.00  0.00     0.024 C
HETATM    6  C17 UNL     1      11.870  39.001 -12.808  1.00  0.00     0.164 C
HETATM    7  O2  UNL     1      11.238  37.938 -12.943  1.00  0.00    -0.292 OA
HETATM    8  C18 UNL     1      13.151  39.026 -12.069  1.00  0.00    -0.006 C
HETATM    9  C19 UNL     1      13.991  38.027 -12.248  1.00  0.00    -0.015 C
HETATM   10  C20 UNL     1      15.323  38.009 -11.523  1.00  0.00     0.033 C
HETATM   11  C21 UNL     1      15.818  39.395 -11.773  1.00  0.00     0.003 C
HETATM   12  C22 UNL     1      14.896  40.514 -11.405  1.00  0.00     0.004 C
HETATM   13  C23 UNL     1      15.621  41.329 -10.370  1.00  0.00     0.012 C
HETATM   14  C24 UNL     1      17.110  41.062 -10.664  1.00  0.00     0.005 C
HETATM   15  C25 UNL     1      17.195  39.689 -11.233  1.00  0.00    -0.035 C
HETATM   16  C26 UNL     1      18.219  39.734 -12.403  1.00  0.00     0.016 C
HETATM   17  C27 UNL     1      17.716  38.670 -10.290  1.00  0.00     0.013 C
HETATM   18  C28 UNL     1      17.691  39.035  -8.836  1.00  0.00     0.040 C
HETATM   19  C29 UNL     1      18.479  40.301  -8.673  1.00  0.00     0.077 C
HETATM   20  C31 UNL     1      18.026  41.420  -9.570  1.00  0.00    -0.011 C
HETATM   21  C32 UNL     1      19.250  42.152 -10.161  1.00  0.00     0.018 C
HETATM   22  C33 UNL     1      17.379  42.469  -8.687  1.00  0.00     0.018 C
HETATM   23  C34 UNL     1      13.491  40.109 -11.109  1.00  0.00    -0.002 C
HETATM   24  C35 UNL     1      13.584  39.475  -9.707  1.00  0.00     0.021 C
ENDROOT
BRANCH   1  25
HETATM   25  C9  UNL     1      11.415  41.173 -10.049  1.00  0.00     0.011 C
BRANCH  25  26
HETATM   26  C8  UNL     1      11.522  42.085  -8.933  1.00  0.00     0.006 C
BRANCH  26  27
HETATM   27  C7  UNL     1      10.931  43.495  -9.165  1.00  0.00    -0.004 C
BRANCH  27  28
HETATM   28  C6  UNL     1       9.519  43.432  -9.618  1.00  0.00     0.009 C
BRANCH  28  29
HETATM   29  C5  UNL     1       9.228  44.588 -10.535  1.00  0.00     0.028 C
BRANCH  29  30
HETATM   30  C4  UNL     1       9.500  44.276 -11.947  1.00  0.00    -0.025 C
HETATM   31  C2  UNL     1      10.502  44.792 -12.609  1.00  0.00    -0.091 C
HETATM   32  C1  UNL     1      10.701  44.410 -14.056  1.00  0.00     0.042 C
HETATM   33  C3  UNL     1      11.452  45.747 -11.975  1.00  0.00     0.042 C
ENDBRANCH  29  30
ENDBRANCH  28  29
ENDBRANCH  27  28
BRANCH  27  34
HETATM   34  C36 UNL     1      11.272  44.468  -8.115  1.00  0.00     0.117 C
BRANCH  34  35
HETATM   35  C37 UNL     1      12.511  45.206  -8.181  1.00  0.00     0.172 C
HETATM   36  O4  UNL     1      12.493  46.483  -8.332  1.00  0.00    -0.648 OA
HETATM   37  O5  UNL     1      13.790  44.686  -8.099  1.00  0.00    -0.648 OA
ENDBRANCH  34  35
ENDBRANCH  27  34
ENDBRANCH  26  27
ENDBRANCH  25  26
ENDBRANCH   1  25
BRANCH   4  38
HETATM   38  C15 UNL     1      11.940  40.461 -14.772  1.00  0.00     0.043 C
BRANCH  38  39
HETATM   39  C16 UNL     1      11.058  41.149 -15.729  1.00  0.00     0.165 C
BRANCH  39  40
HETATM   40  O1  UNL     1      10.972  40.641 -16.996  1.00  0.00    -0.401 OA
ATOM     41  H1  UNL     1      10.975  41.255 -17.721  1.00  0.00     0.209 HD
ENDBRANCH  39  40
ENDBRANCH  38  39
ENDBRANCH   4  38
BRANCH  19  42
HETATM   42  O3  UNL     1      19.799  39.985  -9.082  1.00  0.00    -0.388 OA
ATOM     43  H3  UNL     1      20.190  40.810  -9.345  1.00  0.00     0.210 HD
ENDBRANCH  19  42
BRANCH  19  44
HETATM   44  C30 UNL     1      18.598  40.705  -7.218  1.00  0.00     0.153 C
HETATM   45 CL1  UNL     1      17.369  39.739  -6.334  1.00  0.00    -0.127 Cl
ENDBRANCH  19  44
TORSDOF 13
ENDMDL