MODEL 3
REMARK VINA RESULT: -8.728628644      4.147      8.145
REMARK  14 active torsions:
REMARK  status: ('A' for Active; 'I' for Inactive)
REMARK    1  A    between atoms: C3_3  and  O1_4
REMARK    2  A    between atoms: O1_4  and  C4_5
REMARK    3  A    between atoms: C6_8  and  C7_9
REMARK    4  A    between atoms: C7_9  and  C8_10
REMARK    5  A    between atoms: C8_10  and  C10_12
REMARK    6  A    between atoms: C10_12  and  C11_13
REMARK    7  A    between atoms: C11_13  and  C12_14
REMARK    8  A    between atoms: C12_14  and  C13_15
REMARK    9  A    between atoms: C13_15  and  N1_17
REMARK       I    between atoms: N1_17  and  C15_19
REMARK   10  A    between atoms: C15_19  and  C16_21
REMARK   11  A    between atoms: C16_21  and  N2_22
REMARK   12  A    between atoms: C16_21  and  C17_26
REMARK   13  A    between atoms: C17_26  and  C19_28
REMARK   14  A    between atoms: C34_43  and  O4_44
ROOT
HETATM    1  C1  UNL     1      22.933  41.140  -8.232  1.00  0.00     0.017 C
HETATM    2  C2  UNL     1      21.757  41.730  -8.204  1.00  0.00    -0.055 C
HETATM    3  C3  UNL     1      21.594  42.990  -7.375  1.00  0.00     0.164 C
HETATM    4  C6  UNL     1      21.163  44.022  -8.398  1.00  0.00     0.020 C
HETATM    5  C21 UNL     1      19.757  43.543  -8.841  1.00  0.00     0.017 C
HETATM    6  C22 UNL     1      19.883  42.331  -9.736  1.00  0.00    -0.032 C
HETATM    7  C23 UNL     1      20.664  42.753 -10.949  1.00  0.00     0.016 C
HETATM    8  C24 UNL     1      20.571  41.272  -8.914  1.00  0.00     0.025 C
HETATM    9  C25 UNL     1      20.752  40.067  -9.772  1.00  0.00     0.011 C
HETATM   10  C26 UNL     1      19.354  39.507  -9.988  1.00  0.00     0.013 C
HETATM   11  C27 UNL     1      18.398  40.469 -10.597  1.00  0.00    -0.003 C
HETATM   12  C28 UNL     1      18.562  40.335 -12.114  1.00  0.00     0.019 C
HETATM   13  C29 UNL     1      18.521  41.881 -10.179  1.00  0.00     0.006 C
HETATM   14  C30 UNL     1      17.494  42.328  -9.145  1.00  0.00     0.007 C
HETATM   15  C31 UNL     1      16.079  42.074  -9.567  1.00  0.00     0.008 C
HETATM   16  C32 UNL     1      15.951  40.979 -10.573  1.00  0.00     0.029 C
HETATM   17  C33 UNL     1      14.587  40.416 -10.709  1.00  0.00     0.039 C
HETATM   18  C34 UNL     1      14.377  39.115  -9.976  1.00  0.00     0.118 C
HETATM   19  C35 UNL     1      15.428  38.094 -10.264  1.00  0.00     0.035 C
HETATM   20  C36 UNL     1      16.637  38.698 -10.994  1.00  0.00     0.047 C
HETATM   21  C37 UNL     1      16.996  39.942 -10.254  1.00  0.00     0.115 C
HETATM   22  F1  UNL     1      17.038  39.706  -8.871  1.00  0.00    -0.242 F
ENDROOT
BRANCH   4  23
HETATM   23  C7  UNL     1      21.105  45.413  -7.909  1.00  0.00     0.012 C
BRANCH  23  24
HETATM   24  C8  UNL     1      19.757  45.767  -7.362  1.00  0.00    -0.018 C
HETATM   25  C9  UNL     1      19.707  45.926  -5.880  1.00  0.00     0.010 C
BRANCH  24  26
HETATM   26  C10 UNL     1      19.232  47.039  -8.016  1.00  0.00     0.004 C
BRANCH  26  27
HETATM   27  C11 UNL     1      18.106  46.615  -8.972  1.00  0.00     0.002 C
BRANCH  27  28
HETATM   28  C12 UNL     1      16.995  45.990  -8.185  1.00  0.00     0.024 C
BRANCH  28  29
HETATM   29  C13 UNL     1      15.705  46.749  -8.318  1.00  0.00     0.080 C
HETATM   30  C14 UNL     1      15.745  47.885  -9.288  1.00  0.00     0.032 C
BRANCH  29  31
HETATM   31  N1  UNL     1      14.661  45.804  -8.759  1.00  0.00    -0.355 N
HETATM   32  C15 UNL     1      13.364  45.866  -8.231  1.00  0.00     0.248 C
HETATM   33  O3  UNL     1      13.165  46.781  -7.344  1.00  0.00    -0.271 OA
ATOM     34  H1  UNL     1      14.886  45.097  -9.459  1.00  0.00     0.162 HD
BRANCH  32  35
HETATM   35  C16 UNL     1      12.287  44.973  -8.639  1.00  0.00     0.278 C
BRANCH  35  36
HETATM   36  N2  UNL     1      11.581  44.533  -7.418  1.00  0.00    -0.066 N
ATOM     37  H23 UNL     1      10.786  43.926  -7.616  1.00  0.00     0.275 HD
ATOM     38  H22 UNL     1      12.122  43.869  -6.865  1.00  0.00     0.275 HD
ATOM     39  H21 UNL     1      11.322  45.368  -6.893  1.00  0.00     0.275 HD
ENDBRANCH  35  36
BRANCH  35  40
HETATM   40  C17 UNL     1      12.629  43.743  -9.404  1.00  0.00     0.021 C
HETATM   41  C18 UNL     1      12.144  43.733 -10.822  1.00  0.00     0.012 C
BRANCH  40  42
HETATM   42  C19 UNL     1      12.243  42.472  -8.715  1.00  0.00     0.002 C
HETATM   43  C20 UNL     1      11.285  41.741  -9.678  1.00  0.00     0.005 C
ENDBRANCH  40  42
ENDBRANCH  35  40
ENDBRANCH  32  35
ENDBRANCH  29  31
ENDBRANCH  28  29
ENDBRANCH  27  28
ENDBRANCH  26  27
ENDBRANCH  24  26
ENDBRANCH  23  24
ENDBRANCH   4  23
BRANCH   3  44
HETATM   44  O1  UNL     1      20.562  42.682  -6.463  1.00  0.00    -0.311 OA
BRANCH  44  45
HETATM   45  C4  UNL     1      20.812  42.335  -5.140  1.00  0.00     0.255 C
HETATM   46  C5  UNL     1      21.901  42.944  -4.336  1.00  0.00     0.126 C
HETATM   47  O2  UNL     1      20.065  41.465  -4.635  1.00  0.00    -0.266 OA
ENDBRANCH  44  45
ENDBRANCH   3  44
BRANCH  18  48
HETATM   48  O4  UNL     1      14.160  39.311  -8.603  1.00  0.00    -0.396 OA
ATOM     49  H4  UNL     1      13.330  39.738  -8.428  1.00  0.00     0.210 HD
ENDBRANCH  18  48
TORSDOF 14
ENDMDL