MODEL 4
REMARK VINA RESULT: -8.804641906      1.090      1.551
REMARK  14 active torsions:
REMARK  status: ('A' for Active; 'I' for Inactive)
REMARK    1  A    between atoms: C2_2  and  C4_4
REMARK    2  A    between atoms: C4_4  and  C5_5
REMARK    3  A    between atoms: C5_5  and  C6_6
REMARK    4  A    between atoms: C6_6  and  C7_7
REMARK    5  A    between atoms: C7_7  and  C8_8
REMARK    6  A    between atoms: C7_7  and  C15_17
REMARK    7  A    between atoms: C8_8  and  C9_9
REMARK    8  A    between atoms: C9_9  and  C10_10
REMARK    9  A    between atoms: C10_10  and  C12_12
REMARK   10  A    between atoms: C12_12  and  O1_15
REMARK   11  A    between atoms: C26_29  and  O2_30
REMARK   12  A    between atoms: C27_32  and  C29_34
REMARK   13  A    between atoms: C30_35  and  C31_36
REMARK   14  A    between atoms: C35_42  and  O5_43
ROOT
HETATM    1  C15 UNL     1      20.722  41.715  -8.117  1.00  0.00     0.000 C
HETATM    2  C16 UNL     1      19.670  41.401  -7.055  1.00  0.00     0.027 C
HETATM    3  C17 UNL     1      18.346  41.178  -7.786  1.00  0.00     0.096 C
HETATM    4 CL1  UNL     1      17.650  39.656  -7.315  1.00  0.00    -0.124 Cl
HETATM    5  C18 UNL     1      18.592  41.449  -9.211  1.00  0.00     0.004 C
HETATM    6  C19 UNL     1      18.273  42.911  -9.463  1.00  0.00     0.022 C
HETATM    7  C20 UNL     1      17.874  40.719 -10.232  1.00  0.00    -0.064 C
HETATM    8  C21 UNL     1      18.454  40.280 -11.333  1.00  0.00    -0.047 C
HETATM    9  C22 UNL     1      19.902  40.489 -11.636  1.00  0.00     0.038 C
HETATM   10  C23 UNL     1      20.533  41.467 -10.662  1.00  0.00     0.015 C
HETATM   11  C24 UNL     1      20.076  41.163  -9.295  1.00  0.00    -0.027 C
HETATM   12  C25 UNL     1      20.222  39.634  -9.143  1.00  0.00     0.016 C
HETATM   13  C26 UNL     1      17.705  39.550 -12.381  1.00  0.00     0.159 C
HETATM   14  C27 UNL     1      16.453  38.883 -11.936  1.00  0.00     0.004 C
HETATM   15  C28 UNL     1      16.586  37.397 -12.199  1.00  0.00     0.022 C
HETATM   16  C36 UNL     1      16.173  39.035 -10.461  1.00  0.00     0.020 C
HETATM   17  C37 UNL     1      16.420  40.451 -10.075  1.00  0.00     0.036 C
ENDROOT
BRANCH   1  18
HETATM   18  C7  UNL     1      21.251  43.066  -7.959  1.00  0.00    -0.010 C
BRANCH  18  19
HETATM   19  C6  UNL     1      21.053  43.509  -6.500  1.00  0.00     0.005 C
BRANCH  19  20
HETATM   20  C5  UNL     1      22.321  43.642  -5.730  1.00  0.00     0.001 C
BRANCH  20  21
HETATM   21  C4  UNL     1      22.269  42.623  -4.589  1.00  0.00     0.004 C
BRANCH  21  22
HETATM   22  C2  UNL     1      20.964  42.829  -3.818  1.00  0.00    -0.023 C
HETATM   23  C1  UNL     1      21.202  43.721  -2.617  1.00  0.00     0.009 C
HETATM   24  C3  UNL     1      20.347  41.525  -3.418  1.00  0.00     0.009 C
ENDBRANCH  21  22
ENDBRANCH  20  21
ENDBRANCH  19  20
ENDBRANCH  18  19
BRANCH  18  25
HETATM   25  C8  UNL     1      22.663  43.338  -8.279  1.00  0.00     0.005 C
BRANCH  25  26
HETATM   26  C9  UNL     1      22.829  44.452  -9.282  1.00  0.00     0.007 C
BRANCH  26  27
HETATM   27  C10 UNL     1      23.158  43.906 -10.665  1.00  0.00     0.015 C
HETATM   28  C11 UNL     1      24.586  44.118 -11.049  1.00  0.00     0.013 C
BRANCH  27  29
HETATM   29  C12 UNL     1      22.305  44.695 -11.643  1.00  0.00     0.054 C
HETATM   30  C13 UNL     1      23.056  45.893 -12.184  1.00  0.00     0.045 C
HETATM   31  C14 UNL     1      21.029  45.195 -11.041  1.00  0.00     0.045 C
BRANCH  29  32
HETATM   32  O1  UNL     1      22.041  43.857 -12.743  1.00  0.00    -0.390 OA
ATOM     33  H1  UNL     1      21.621  44.387 -13.410  1.00  0.00     0.210 HD
ENDBRANCH  29  32
ENDBRANCH  27  29
ENDBRANCH  26  27
ENDBRANCH  25  26
ENDBRANCH  18  25
ENDBRANCH   1  18
BRANCH  13  34
HETATM   34  O2  UNL     1      18.502  38.692 -13.140  1.00  0.00    -0.390 OA
ATOM     35  H2  UNL     1      18.724  37.885 -12.692  1.00  0.00     0.210 HD
ENDBRANCH  13  34
BRANCH  14  36
HETATM   36  C29 UNL     1      15.267  39.363 -12.682  1.00  0.00    -0.015 C
HETATM   37  C30 UNL     1      14.090  38.830 -12.437  1.00  0.00    -0.002 C
BRANCH  37  38
HETATM   38  C31 UNL     1      12.876  39.250 -13.132  1.00  0.00     0.016 C
HETATM   39  C32 UNL     1      11.685  38.794 -12.804  1.00  0.00     0.048 C
HETATM   40  C33 UNL     1      10.435  39.158 -13.439  1.00  0.00     0.292 C
HETATM   41  C35 UNL     1      11.338  37.815 -11.728  1.00  0.00     0.181 C
HETATM   42  O3  UNL     1      10.295  39.986 -14.396  1.00  0.00    -0.260 OA
HETATM   43  O4  UNL     1       9.403  38.436 -12.812  1.00  0.00    -0.315 OA
HETATM   44  C34 UNL     1       9.873  38.089 -11.502  1.00  0.00     0.215 C
BRANCH  41  45
HETATM   45  O5  UNL     1      11.563  36.517 -12.160  1.00  0.00    -0.389 OA
ATOM     46  H5  UNL     1      10.920  36.267 -12.813  1.00  0.00     0.210 HD
ENDBRANCH  41  45
ENDBRANCH  37  38
ENDBRANCH  14  36
TORSDOF 14
ENDMDL