MODEL 5
REMARK VINA RESULT: -7.905609195      3.307      9.475
REMARK  14 active torsions:
REMARK  status: ('A' for Active; 'I' for Inactive)
REMARK    1  A    between atoms: C2_2  and  C3_3
REMARK    2  A    between atoms: C2_2  and  C20_26
REMARK    3  A    between atoms: C5_5  and  O1_6
REMARK    4  A    between atoms: C8_10  and  C9_11
REMARK    5  A    between atoms: C14_18  and  O4_19
REMARK    6  A    between atoms: C23_29  and  C24_30
REMARK    7  A    between atoms: C24_30  and  C25_31
REMARK    8  A    between atoms: C24_30  and  C28_35
REMARK    9  A    between atoms: C25_31  and  C26_32
REMARK   10  A    between atoms: C28_35  and  O5_36
REMARK   11  A    between atoms: C28_35  and  C29_38
REMARK   12  A    between atoms: C29_38  and  C30_39
REMARK   13  A    between atoms: C30_39  and  C32_41
REMARK   14  A    between atoms: C32_41  and  C33_42
ROOT
HETATM    1  C1  UNL     1      19.754  39.953 -12.304  1.00  0.00     0.020 C
HETATM    2  C2  UNL     1      18.736  39.886 -11.432  1.00  0.00    -0.052 C
ENDROOT
BRANCH   2   3
HETATM    3  C3  UNL     1      18.793  40.825 -10.322  1.00  0.00    -0.012 A
HETATM    4  C4  UNL     1      18.081  41.994 -10.393  1.00  0.00     0.050 A
HETATM    5  C5  UNL     1      18.111  42.880  -9.314  1.00  0.00     0.075 A
HETATM    6  C6  UNL     1      18.836  42.589  -8.203  1.00  0.00     0.010 A
HETATM    7  C7  UNL     1      19.559  41.426  -8.103  1.00  0.00     0.093 A
HETATM    8  C19 UNL     1      18.896  43.520  -7.016  1.00  0.00     0.053 C
HETATM    9  C8  UNL     1      19.526  40.537  -9.192  1.00  0.00     0.046 A
HETATM   10  O3  UNL     1      20.298  41.136  -6.966  1.00  0.00    -0.339 OA
HETATM   11  C10 UNL     1      20.610  42.071  -5.951  1.00  0.00     0.069 C
HETATM   12  C11 UNL     1      19.821  41.726  -4.732  1.00  0.00     0.047 C
HETATM   13  C12 UNL     1      22.095  42.030  -5.683  1.00  0.00     0.041 C
HETATM   14  C18 UNL     1      20.298  43.442  -6.507  1.00  0.00     0.035 C
HETATM   15  C13 UNL     1      22.465  43.081  -4.668  1.00  0.00     0.035 C
HETATM   16  C14 UNL     1      22.012  44.454  -5.008  1.00  0.00     0.126 C
HETATM   17  C15 UNL     1      20.651  44.565  -5.586  1.00  0.00    -0.015 C
HETATM   18  C16 UNL     1      20.625  45.847  -6.435  1.00  0.00     0.018 C
HETATM   19  C17 UNL     1      19.648  44.781  -4.481  1.00  0.00     0.018 C
BRANCH   5  20
HETATM   20  O1  UNL     1      17.402  44.073  -9.354  1.00  0.00    -0.360 OA
ATOM     21  H1  UNL     1      17.439  44.685  -8.629  1.00  0.00     0.217 HD
ENDBRANCH   5  20
BRANCH   9  22
HETATM   22  C9  UNL     1      20.299  39.318  -9.013  1.00  0.00     0.273 C
HETATM   23  O2  UNL     1      21.486  39.141  -9.347  1.00  0.00    -0.301 OA
ENDBRANCH   9  22
BRANCH  16  24
HETATM   24  O4  UNL     1      22.052  45.226  -3.835  1.00  0.00    -0.395 OA
ATOM     25  H4  UNL     1      21.310  45.819  -3.850  1.00  0.00     0.210 HD
ENDBRANCH  16  24
ENDBRANCH   2   3
BRANCH   2  26
HETATM   26  C20 UNL     1      17.664  38.898 -11.617  1.00  0.00     0.025 C
HETATM   27  C21 UNL     1      16.691  39.402 -12.650  1.00  0.00     0.010 C
HETATM   28  C22 UNL     1      15.604  38.366 -12.923  1.00  0.00     0.013 C
HETATM   29  C23 UNL     1      14.790  38.338 -11.609  1.00  0.00     0.062 C
HETATM   30  C36 UNL     1      15.709  37.731 -10.634  1.00  0.00     0.132 C
HETATM   31  O6  UNL     1      15.523  36.693 -10.040  1.00  0.00    -0.298 OA
HETATM   32  C37 UNL     1      16.989  38.461 -10.351  1.00  0.00     0.088 C
BRANCH  29  33
HETATM   33  C24 UNL     1      13.460  37.721 -11.756  1.00  0.00     0.027 C
BRANCH  33  34
HETATM   34  C25 UNL     1      13.338  36.817 -12.914  1.00  0.00     0.027 C
BRANCH  34  35
HETATM   35  C26 UNL     1      13.129  35.370 -12.665  1.00  0.00     0.079 C
HETATM   36  C27 UNL     1      11.962  35.044 -11.763  1.00  0.00     0.026 C
HETATM   37 CL1  UNL     1      14.513  34.417 -12.211  1.00  0.00    -0.125 Cl
ENDBRANCH  34  35
ENDBRANCH  33  34
BRANCH  33  38
HETATM   38  C28 UNL     1      12.312  38.710 -11.634  1.00  0.00     0.123 C
BRANCH  38  39
HETATM   39  O5  UNL     1      11.298  38.429 -12.536  1.00  0.00    -0.395 OA
ATOM     40  H5  UNL     1      11.361  38.970 -13.315  1.00  0.00     0.210 HD
ENDBRANCH  38  39
BRANCH  38  41
HETATM   41  C29 UNL     1      12.711  40.123 -11.777  1.00  0.00     0.036 C
BRANCH  41  42
HETATM   42  C30 UNL     1      12.705  40.858 -10.442  1.00  0.00    -0.016 C
HETATM   43  C31 UNL     1      11.524  41.847 -10.495  1.00  0.00     0.010 C
BRANCH  42  44
HETATM   44  C32 UNL     1      13.949  41.613 -10.198  1.00  0.00     0.008 C
BRANCH  44  45
HETATM   45  C33 UNL     1      14.678  41.393  -8.927  1.00  0.00    -0.023 C
HETATM   46  C34 UNL     1      14.666  42.458  -7.905  1.00  0.00     0.009 C
HETATM   47  C35 UNL     1      14.285  40.083  -8.253  1.00  0.00     0.009 C
ENDBRANCH  44  45
ENDBRANCH  42  44
ENDBRANCH  41  42
ENDBRANCH  38  41
ENDBRANCH  33  38
ENDBRANCH  29  33
ENDBRANCH   2  26
TORSDOF 14
ENDMDL