MODEL 1
REMARK VINA RESULT: -8.902804536      0.000      0.000
REMARK  12 active torsions:
REMARK  status: ('A' for Active; 'I' for Inactive)
REMARK    1  A    between atoms: C2_2  and  C29_32
REMARK    2  A    between atoms: C3_3  and  C4_4
REMARK    3  A    between atoms: C5_5  and  C6_6
REMARK    4  A    between atoms: C8_8  and  O1_9
REMARK    5  A    between atoms: O1_9  and  C9_10
REMARK    6  A    between atoms: C9_10  and  C10_12
REMARK    7  A    between atoms: C29_32  and  N1_34
REMARK    8  A    between atoms: N1_34  and  C31_36
REMARK    9  A    between atoms: C31_36  and  C32_37
REMARK   10  A    between atoms: C31_36  and  C35_42
REMARK   11  A    between atoms: C32_37  and  C33_38
REMARK   12  A    between atoms: C33_38  and  C34_39
ROOT
HETATM    1  C6  UNL     1      20.017  41.458 -10.348  1.00  0.00     0.015 C
HETATM    2  C7  UNL     1      20.005  42.868 -10.779  1.00  0.00     0.042 C
HETATM    3  C8  UNL     1      21.214  43.706 -10.576  1.00  0.00     0.140 C
HETATM    4  C11 UNL     1      21.396  44.469  -9.322  1.00  0.00    -0.017 C
HETATM    5  C12 UNL     1      20.485  45.688  -9.327  1.00  0.00     0.018 C
HETATM    6  C13 UNL     1      22.794  45.121  -9.522  1.00  0.00     0.018 C
HETATM    7  C14 UNL     1      21.508  43.720  -8.043  1.00  0.00     0.005 C
HETATM    8  C15 UNL     1      22.670  42.741  -8.284  1.00  0.00     0.007 C
HETATM    9  C16 UNL     1      22.254  41.333  -8.474  1.00  0.00     0.011 C
HETATM   10  C17 UNL     1      20.892  40.994  -7.968  1.00  0.00    -0.032 C
HETATM   11  C18 UNL     1      21.027  39.538  -7.468  1.00  0.00     0.016 C
HETATM   12  C19 UNL     1      19.767  41.119  -8.915  1.00  0.00     0.002 C
HETATM   13  C20 UNL     1      18.608  41.983  -8.466  1.00  0.00     0.007 C
HETATM   14  C21 UNL     1      19.020  43.204  -7.735  1.00  0.00     0.011 C
HETATM   15  C22 UNL     1      20.428  43.215  -7.213  1.00  0.00    -0.028 C
HETATM   16  C23 UNL     1      20.252  44.044  -5.917  1.00  0.00     0.011 C
HETATM   17  C24 UNL     1      21.455  44.110  -5.068  1.00  0.00     0.001 C
HETATM   18  C25 UNL     1      22.085  42.804  -4.790  1.00  0.00     0.001 C
HETATM   19  C26 UNL     1      21.803  41.681  -5.708  1.00  0.00     0.011 C
HETATM   20  C27 UNL     1      20.686  41.799  -6.663  1.00  0.00    -0.028 C
HETATM   21  C28 UNL     1      19.494  41.174  -5.996  1.00  0.00     0.016 C
ENDROOT
BRANCH   1  22
HETATM   22  C5  UNL     1      18.911  40.792 -11.133  1.00  0.00    -0.022 C
HETATM   23  C4  UNL     1      18.598  39.533 -11.087  1.00  0.00    -0.003 C
BRANCH  23  24
HETATM   24  C3  UNL     1      17.519  38.961 -11.871  1.00  0.00     0.004 C
HETATM   25  C2  UNL     1      16.387  38.556 -11.350  1.00  0.00    -0.062 C
HETATM   26  C1  UNL     1      16.144  38.667  -9.887  1.00  0.00     0.045 C
BRANCH  25  27
HETATM   27  C29 UNL     1      15.319  38.006 -12.202  1.00  0.00     0.102 C
HETATM   28  C30 UNL     1      15.064  38.949 -13.365  1.00  0.00     0.037 C
BRANCH  27  29
HETATM   29  N1  UNL     1      15.454  36.645 -12.585  1.00  0.00    -0.401 N
ATOM     30  H1  UNL     1      16.066  36.367 -13.352  1.00  0.00     0.154 HD
BRANCH  29  31
HETATM   31  C31 UNL     1      14.700  35.687 -11.852  1.00  0.00     0.179 C
BRANCH  31  32
HETATM   32  C32 UNL     1      14.014  34.673 -12.756  1.00  0.00     0.046 C
BRANCH  32  33
HETATM   33  C33 UNL     1      12.631  35.096 -13.130  1.00  0.00     0.116 C
BRANCH  33  34
HETATM   34  C34 UNL     1      11.786  35.233 -11.920  1.00  0.00     0.172 C
HETATM   35  O3  UNL     1      11.564  34.279 -11.149  1.00  0.00    -0.648 OA
HETATM   36  O4  UNL     1      11.228  36.470 -11.647  1.00  0.00    -0.648 OA
ENDBRANCH  33  34
ENDBRANCH  32  33
ENDBRANCH  31  32
BRANCH  31  37
HETATM   37  C35 UNL     1      15.574  34.915 -10.934  1.00  0.00     0.196 C
HETATM   38  O5  UNL     1      16.815  35.068 -10.935  1.00  0.00    -0.646 OA
HETATM   39  O6  UNL     1      15.011  34.010 -10.058  1.00  0.00    -0.646 OA
ENDBRANCH  31  37
ENDBRANCH  29  31
ENDBRANCH  27  29
ENDBRANCH  25  27
ENDBRANCH  23  24
ENDBRANCH   1  22
BRANCH   3  40
HETATM   40  O1  UNL     1      21.108  44.753 -11.572  1.00  0.00    -0.314 OA
BRANCH  40  41
HETATM   41  C9  UNL     1      21.638  44.652 -12.842  1.00  0.00     0.273 C
HETATM   42  O2  UNL     1      20.981  44.070 -13.738  1.00  0.00    -0.264 OA
BRANCH  41  43
HETATM   43  C10 UNL     1      22.974  45.216 -13.184  1.00  0.00     0.225 C
HETATM   44 CL1  UNL     1      22.975  46.937 -12.751  1.00  0.00    -0.120 Cl
ENDBRANCH  41  43
ENDBRANCH  40  41
ENDBRANCH   3  40
TORSDOF 12
ENDMDL