MODEL 2
REMARK VINA RESULT: -8.411067519      0.872      2.409
REMARK  13 active torsions:
REMARK  status: ('A' for Active; 'I' for Inactive)
REMARK    1  A    between atoms: C2_2  and  C4_4
REMARK    2  A    between atoms: C5_5  and  O1_6
REMARK    3  A    between atoms: C9_11  and  C10_12
REMARK    4  A    between atoms: C11_13  and  C12_14
REMARK    5  A    between atoms: C12_14  and  O2_27
REMARK    6  A    between atoms: C13_15  and  C14_16
REMARK    7  A    between atoms: C15_17  and  C16_18
REMARK    8  A    between atoms: C18_20  and  C19_21
REMARK    9  A    between atoms: C19_21  and  C20_22
REMARK   10  A    between atoms: C21_23  and  C22_24
REMARK   11  A    between atoms: C22_24  and  C23_25
REMARK   12  A    between atoms: C29_33  and  O3_34
REMARK   13  A    between atoms: C31_37  and  O4_38
ROOT
HETATM    1  C4  UNL     1      21.633  43.912 -10.923  1.00  0.00    -0.038 C
HETATM    2  C5  UNL     1      22.697  42.944 -10.467  1.00  0.00     0.149 C
HETATM    3  C6  UNL     1      22.698  42.525  -9.033  1.00  0.00     0.042 C
HETATM    4  C7  UNL     1      21.460  42.748  -8.327  1.00  0.00    -0.000 C
HETATM    5  C8  UNL     1      20.244  43.118  -9.213  1.00  0.00     0.012 C
HETATM    6  C9  UNL     1      19.096  42.958  -8.332  1.00  0.00     0.033 C
HETATM    7  C26 UNL     1      19.299  42.376  -6.913  1.00  0.00     0.101 C
HETATM    8 CL1  UNL     1      18.869  40.658  -6.831  1.00  0.00    -0.123 Cl
HETATM    9  C27 UNL     1      20.595  42.691  -6.216  1.00  0.00     0.004 C
HETATM   10  C28 UNL     1      21.473  41.425  -6.081  1.00  0.00     0.020 C
HETATM   11  C29 UNL     1      20.636  43.285  -4.889  1.00  0.00     0.130 C
HETATM   12  C30 UNL     1      22.011  43.744  -4.579  1.00  0.00     0.065 C
HETATM   13  C31 UNL     1      22.931  44.167  -5.728  1.00  0.00     0.129 C
HETATM   14  C32 UNL     1      22.115  44.706  -6.790  1.00  0.00    -0.013 C
HETATM   15  C33 UNL     1      21.431  45.932  -6.121  1.00  0.00     0.018 C
HETATM   16  C34 UNL     1      22.565  45.272  -8.071  1.00  0.00     0.013 C
HETATM   17  C35 UNL     1      21.430  45.391  -9.011  1.00  0.00     0.015 C
HETATM   18  C36 UNL     1      20.760  44.393  -9.795  1.00  0.00    -0.013 C
HETATM   19  C37 UNL     1      19.540  45.096 -10.384  1.00  0.00     0.021 C
HETATM   20  C38 UNL     1      21.200  43.650  -7.221  1.00  0.00     0.013 C
ENDROOT
BRANCH   6  21
HETATM   21  C10 UNL     1      18.115  41.968  -8.942  1.00  0.00    -0.017 C
HETATM   22  C11 UNL     1      18.019  41.718 -10.194  1.00  0.00     0.033 C
BRANCH  22  23
HETATM   23  C12 UNL     1      17.062  40.757 -10.716  1.00  0.00     0.067 C
HETATM   24  C13 UNL     1      15.748  40.927 -10.544  1.00  0.00     0.037 C
BRANCH  24  25
HETATM   25  C14 UNL     1      14.764  39.995 -11.052  1.00  0.00     0.003 C
HETATM   26  C15 UNL     1      13.572  40.350 -11.466  1.00  0.00     0.006 C
BRANCH  26  27
HETATM   27  C16 UNL     1      12.554  39.469 -11.982  1.00  0.00    -0.066 C
HETATM   28  C17 UNL     1      11.165  39.389 -11.444  1.00  0.00     0.048 C
HETATM   29  C18 UNL     1      12.814  38.657 -13.003  1.00  0.00    -0.016 C
BRANCH  29  30
HETATM   30  C19 UNL     1      11.849  37.726 -13.597  1.00  0.00     0.054 C
BRANCH  30  31
HETATM   31  C20 UNL     1      12.254  36.304 -13.461  1.00  0.00    -0.027 C
HETATM   32  C21 UNL     1      13.390  35.942 -12.874  1.00  0.00    -0.030 C
BRANCH  32  33
HETATM   33  C22 UNL     1      13.825  34.547 -12.721  1.00  0.00     0.026 C
BRANCH  33  34
HETATM   34  C23 UNL     1      14.777  34.449 -11.565  1.00  0.00    -0.001 C
HETATM   35  C24 UNL     1      15.358  35.810 -11.218  1.00  0.00     0.005 C
ENDBRANCH  33  34
ENDBRANCH  32  33
ENDBRANCH  30  31
ENDBRANCH  29  30
ENDBRANCH  26  27
ENDBRANCH  24  25
BRANCH  23  36
HETATM   36  O2  UNL     1      17.432  39.620 -11.419  1.00  0.00    -0.356 OA
HETATM   37  C25 UNL     1      18.288  39.567 -12.513  1.00  0.00     0.210 C
ENDBRANCH  23  36
ENDBRANCH  22  23
ENDBRANCH   6  21
BRANCH   1  38
HETATM   38  C2  UNL     1      22.009  44.735 -12.039  1.00  0.00    -0.066 C
HETATM   39  C1  UNL     1      22.688  45.826 -12.129  1.00  0.00     0.019 C
HETATM   40  C3  UNL     1      21.557  44.287 -13.466  1.00  0.00     0.047 C
ENDBRANCH   1  38
BRANCH  11  41
HETATM   41  O3  UNL     1      19.579  44.088  -4.491  1.00  0.00    -0.395 OA
ATOM     42  H3  UNL     1      19.568  44.995  -4.776  1.00  0.00     0.210 HD
ENDBRANCH  11  41
BRANCH   2  43
HETATM   43  O1  UNL     1      23.988  43.406 -10.766  1.00  0.00    -0.391 OA
ATOM     44  H1  UNL     1      24.009  43.893 -11.581  1.00  0.00     0.210 HD
ENDBRANCH   2  43
BRANCH  13  45
HETATM   45  O4  UNL     1      23.692  45.243  -5.186  1.00  0.00    -0.395 OA
ATOM     46  H4  UNL     1      23.068  45.726  -4.658  1.00  0.00     0.210 HD
ENDBRANCH  13  45
TORSDOF 13
ENDMDL