MODEL 4
REMARK VINA RESULT: -8.361216264      3.288      5.574
REMARK  14 active torsions:
REMARK  status: ('A' for Active; 'I' for Inactive)
REMARK    1  A    between atoms: C4_4  and  C5_5
REMARK    2  A    between atoms: C5_5  and  C6_6
REMARK    3  A    between atoms: C6_6  and  C7_7
REMARK    4  A    between atoms: C9_9  and  C10_10
REMARK    5  A    between atoms: C10_10  and  C11_11
REMARK    6  A    between atoms: C11_11  and  C12_12
REMARK    7  A    between atoms: C16_17  and  O2_18
REMARK    8  A    between atoms: C17_20  and  C18_21
REMARK    9  A    between atoms: C18_21  and  C19_23
REMARK   10  A    between atoms: C20_24  and  C21_25
REMARK   11  A    between atoms: C30_35  and  C31_36
REMARK   12  A    between atoms: C31_36  and  C32_37
REMARK   13  A    between atoms: C35_40  and  O4_41
REMARK   14  A    between atoms: C35_40  and  C36_43
ROOT
HETATM    1  C12 UNL     1      20.268  41.044  -9.983  1.00  0.00    -0.033 C
HETATM    2  C13 UNL     1      20.781  39.629 -10.151  1.00  0.00     0.016 C
HETATM    3  C14 UNL     1      21.161  42.115 -10.496  1.00  0.00     0.091 C
HETATM    4  C15 UNL     1      21.926  42.835  -9.468  1.00  0.00     0.163 C
HETATM    5  O1  UNL     1      23.033  43.224  -9.753  1.00  0.00    -0.295 OA
HETATM    6  C16 UNL     1      21.408  43.107  -8.100  1.00  0.00     0.136 C
HETATM    7  C17 UNL     1      22.455  43.625  -7.190  1.00  0.00     0.102 C
HETATM    8  C24 UNL     1      21.860  43.912  -5.828  1.00  0.00     0.016 C
HETATM    9  C25 UNL     1      20.592  43.196  -5.572  1.00  0.00     0.006 C
HETATM   10  C26 UNL     1      20.567  41.797  -6.200  1.00  0.00    -0.007 C
HETATM   11  C27 UNL     1      21.581  41.064  -5.284  1.00  0.00     0.011 C
HETATM   12  C28 UNL     1      20.863  41.749  -7.638  1.00  0.00     0.003 C
HETATM   13  C29 UNL     1      22.033  40.784  -7.789  1.00  0.00     0.019 C
HETATM   14  C30 UNL     1      19.737  41.280  -8.545  1.00  0.00     0.006 C
ENDROOT
BRANCH   1  15
HETATM   15  C11 UNL     1      19.128  41.085 -11.012  1.00  0.00     0.013 C
BRANCH  15  16
HETATM   16  C10 UNL     1      19.410  39.985 -12.046  1.00  0.00     0.028 C
BRANCH  16  17
HETATM   17  C9  UNL     1      18.114  39.569 -12.674  1.00  0.00    -0.024 C
HETATM   18  C7  UNL     1      17.252  38.720 -12.208  1.00  0.00    -0.087 C
HETATM   19  C8  UNL     1      16.010  38.423 -12.967  1.00  0.00     0.043 C
BRANCH  18  20
HETATM   20  C6  UNL     1      17.450  38.018 -10.931  1.00  0.00     0.037 C
BRANCH  20  21
HETATM   21  C5  UNL     1      16.190  37.308 -10.464  1.00  0.00     0.031 C
BRANCH  21  22
HETATM   22  C4  UNL     1      16.584  35.954 -10.052  1.00  0.00    -0.024 C
HETATM   23  C2  UNL     1      15.973  34.880 -10.536  1.00  0.00    -0.091 C
HETATM   24  C1  UNL     1      14.868  35.072 -11.517  1.00  0.00     0.042 C
HETATM   25  C3  UNL     1      16.377  33.495 -10.111  1.00  0.00     0.042 C
ENDBRANCH  21  22
ENDBRANCH  20  21
ENDBRANCH  18  20
ENDBRANCH  16  17
ENDBRANCH  15  16
ENDBRANCH   1  15
BRANCH  14  26
HETATM   26  C31 UNL     1      18.528  42.051  -8.700  1.00  0.00     0.014 C
BRANCH  26  27
HETATM   27  C32 UNL     1      17.191  41.790  -8.173  1.00  0.00     0.031 C
HETATM   28  C33 UNL     1      16.307  40.771  -8.892  1.00  0.00     0.011 C
HETATM   29  C34 UNL     1      15.802  41.842  -9.814  1.00  0.00     0.050 C
HETATM   30  C35 UNL     1      16.195  42.843  -8.720  1.00  0.00     0.149 C
BRANCH  30  31
HETATM   31  O4  UNL     1      16.789  43.940  -9.301  1.00  0.00    -0.378 OA
ATOM     32  H4  UNL     1      16.275  44.737  -9.253  1.00  0.00     0.211 HD
ENDBRANCH  30  31
BRANCH  30  33
HETATM   33  C36 UNL     1      15.052  43.108  -7.860  1.00  0.00     0.209 C
HETATM   34  O5  UNL     1      14.815  42.436  -6.827  1.00  0.00    -0.646 OA
HETATM   35  O6  UNL     1      14.177  44.137  -8.170  1.00  0.00    -0.646 OA
ENDBRANCH  30  33
ENDBRANCH  26  27
ENDBRANCH  14  26
BRANCH   6  36
HETATM   36  O2  UNL     1      20.405  44.037  -8.232  1.00  0.00    -0.380 OA
ATOM     37  H2  UNL     1      19.605  43.621  -7.934  1.00  0.00     0.211 HD
ENDBRANCH   6  36
BRANCH   7  38
HETATM   38  C18 UNL     1      23.125  44.878  -7.647  1.00  0.00     0.156 C
HETATM   39  O3  UNL     1      22.439  45.802  -8.209  1.00  0.00    -0.293 OA
BRANCH  38  40
HETATM   40  C19 UNL     1      24.534  45.134  -7.498  1.00  0.00     0.051 C
HETATM   41  C20 UNL     1      25.450  45.328  -8.391  1.00  0.00     0.005 C
BRANCH  41  42
HETATM   42  C21 UNL     1      25.371  45.355  -9.826  1.00  0.00     0.019 C
HETATM   43  C22 UNL     1      26.160  44.639 -10.616  1.00  0.00     0.008 C
HETATM   44  C23 UNL     1      27.220  43.725 -10.109  1.00  0.00     0.062 C
HETATM   45 CL1  UNL     1      25.956  44.764 -12.344  1.00  0.00    -0.089 Cl
ENDBRANCH  41  42
ENDBRANCH  38  40
ENDBRANCH   7  38
TORSDOF 14
ENDMDL