MODEL 4
REMARK VINA RESULT: -8.710236338      4.978      9.826
REMARK  13 active torsions:
REMARK  status: ('A' for Active; 'I' for Inactive)
REMARK    1  A    between atoms: C2_2  and  C4_4
REMARK    2  A    between atoms: C4_4  and  C6_6
REMARK    3  A    between atoms: C6_6  and  O1_7
REMARK    4  A    between atoms: C6_6  and  C7_9
REMARK    5  A    between atoms: C7_9  and  C9_12
REMARK    6  A    between atoms: C9_12  and  C10_14
REMARK    7  A    between atoms: C10_14  and  C12_16
REMARK    8  A    between atoms: C12_16  and  C13_17
REMARK    9  A    between atoms: C13_17  and  C14_18
REMARK   10  A    between atoms: C14_18  and  C15_19
REMARK   11  A    between atoms: C15_19  and  C17_21
REMARK   12  A    between atoms: C26_30  and  O2_31
REMARK   13  A    between atoms: O2_31  and  S1_32
ROOT
HETATM    1  C7  UNL     1      19.683  45.822  -9.805  1.00  0.00     0.156 C
HETATM    2  C8  UNL     1      19.902  45.926 -11.293  1.00  0.00     0.069 C
HETATM    3  N1  UNL     1      20.025  46.002 -12.468  1.00  0.00    -0.197 NA
ENDROOT
BRANCH   1   4
HETATM    4  C6  UNL     1      18.289  46.391  -9.681  1.00  0.00     0.142 C
BRANCH   4   5
HETATM    5  C4  UNL     1      17.303  45.787  -8.792  1.00  0.00     0.015 C
HETATM    6  C5  UNL     1      17.840  44.336  -8.527  1.00  0.00     0.013 C
BRANCH   5   7
HETATM    7  C2  UNL     1      17.130  46.375  -7.429  1.00  0.00    -0.017 C
HETATM    8  C1  UNL     1      17.378  47.848  -7.306  1.00  0.00     0.010 C
HETATM    9  C3  UNL     1      17.884  45.626  -6.351  1.00  0.00     0.010 C
ENDBRANCH   5   7
ENDBRANCH   4   5
BRANCH   4  10
HETATM   10  O1  UNL     1      17.777  46.752 -10.937  1.00  0.00    -0.394 OA
ATOM     11  H1  UNL     1      18.100  47.585 -11.260  1.00  0.00     0.210 HD
ENDBRANCH   4  10
ENDBRANCH   1   4
BRANCH   1  12
HETATM   12  C9  UNL     1      20.722  46.621  -9.091  1.00  0.00     0.194 C
HETATM   13  F1  UNL     1      20.275  47.936  -8.815  1.00  0.00    -0.248 F
BRANCH  12  14
HETATM   14  C10 UNL     1      21.203  46.134  -7.769  1.00  0.00     0.017 C
HETATM   15  C11 UNL     1      21.163  47.393  -6.797  1.00  0.00     0.012 C
BRANCH  14  16
HETATM   16  C12 UNL     1      22.591  45.621  -7.680  1.00  0.00     0.007 C
BRANCH  16  17
HETATM   17  C13 UNL     1      22.740  44.322  -6.901  1.00  0.00     0.001 C
BRANCH  17  18
HETATM   18  C14 UNL     1      22.430  43.217  -7.849  1.00  0.00     0.005 C
BRANCH  18  19
HETATM   19  C15 UNL     1      21.365  42.253  -7.371  1.00  0.00    -0.014 C
HETATM   20  C16 UNL     1      20.609  42.904  -6.259  1.00  0.00     0.010 C
BRANCH  19  21
HETATM   21  C17 UNL     1      20.536  41.877  -8.571  1.00  0.00    -0.002 C
HETATM   22  C18 UNL     1      21.523  41.632  -9.703  1.00  0.00     0.006 C
HETATM   23  C19 UNL     1      21.151  40.376 -10.408  1.00  0.00     0.006 C
HETATM   24  C20 UNL     1      19.852  39.934  -9.805  1.00  0.00    -0.001 C
HETATM   25  C21 UNL     1      18.746  40.425 -10.749  1.00  0.00    -0.001 C
HETATM   26  C34 UNL     1      19.791  40.591  -8.446  1.00  0.00    -0.036 C
HETATM   27  C22 UNL     1      19.024  39.867 -12.100  1.00  0.00     0.033 C
HETATM   28  C31 UNL     1      17.381  40.296 -10.213  1.00  0.00     0.003 C
HETATM   29  C23 UNL     1      17.858  39.302 -12.810  1.00  0.00    -0.023 C
HETATM   30  C24 UNL     1      16.667  39.132 -12.300  1.00  0.00    -0.072 C
HETATM   31  C25 UNL     1      15.525  38.542 -13.093  1.00  0.00     0.068 C
HETATM   32  C29 UNL     1      16.365  39.497 -10.915  1.00  0.00    -0.017 C
HETATM   33  C26 UNL     1      14.851  37.445 -12.307  1.00  0.00     0.149 C
HETATM   34  C27 UNL     1      14.713  37.720 -10.846  1.00  0.00     0.035 C
HETATM   35  C28 UNL     1      16.002  38.198 -10.213  1.00  0.00     0.016 C
HETATM   36  C30 UNL     1      15.072  40.338 -10.962  1.00  0.00     0.020 C
HETATM   37  C32 UNL     1      17.412  39.898  -8.736  1.00  0.00     0.007 C
HETATM   38  C33 UNL     1      18.364  40.882  -8.047  1.00  0.00     0.010 C
HETATM   39  C35 UNL     1      20.424  39.626  -7.469  1.00  0.00     0.016 C
BRANCH  33  40
HETATM   40  O2  UNL     1      13.576  37.264 -12.841  1.00  0.00    -0.251 OA
BRANCH  40  41
HETATM   41  S1  UNL     1      13.130  35.647 -12.860  1.00  0.00     0.251 S
HETATM   42  O3  UNL     1      12.278  35.364 -11.650  1.00  0.00    -0.572 OA
HETATM   43  O4  UNL     1      12.416  35.373 -14.141  1.00  0.00    -0.572 OA
HETATM   44  O5  UNL     1      14.527  34.724 -12.719  1.00  0.00    -0.572 OA
ENDBRANCH  40  41
ENDBRANCH  33  40
ENDBRANCH  19  21
ENDBRANCH  18  19
ENDBRANCH  17  18
ENDBRANCH  16  17
ENDBRANCH  14  16
ENDBRANCH  12  14
ENDBRANCH   1  12
TORSDOF 13
ENDMDL