MODEL 1
REMARK VINA RESULT: -6.080311521      0.000      0.000
REMARK  6 active torsions:
REMARK  status: ('A' for Active; 'I' for Inactive)
REMARK    1  A    between atoms: C2_2  and  C3_3
REMARK    2  A    between atoms: C3_3  and  C4_4
REMARK    3  A    between atoms: C3_3  and  N1_6
REMARK    4  A    between atoms: N1_6  and  C6_8
REMARK    5  A    between atoms: C10_14  and  O1_15
REMARK    6  A    between atoms: C14_22  and  C15_23
ROOT
HETATM    1  C6  UNL     1     -27.064  -9.583 -25.509  1.00  0.00     0.043 A
HETATM    2  C7  UNL     1     -27.526  -8.787 -24.447  1.00  0.00     0.047 A
HETATM    3  C8  UNL     1     -28.355  -7.718 -24.678  1.00  0.00     0.090 A
HETATM    4  N2  UNL     1     -28.756  -7.389 -25.884  1.00  0.00    -0.363 N
ATOM      5  H2  UNL     1     -29.372  -6.588 -26.021  1.00  0.00     0.165 HD
HETATM    6  C9  UNL     1     -28.342  -8.123 -26.944  1.00  0.00     0.079 A
HETATM    7  C10 UNL     1     -28.812  -7.731 -28.179  1.00  0.00     0.095 A
HETATM    8  C11 UNL     1     -28.425  -8.464 -29.254  1.00  0.00     0.069 A
HETATM    9  C12 UNL     1     -27.596  -9.555 -29.123  1.00  0.00     0.046 A
HETATM   10  N3  UNL     1     -27.134 -10.387 -30.036  1.00  0.00    -0.364 N
ATOM     11  H3  UNL     1     -27.321 -10.341 -31.038  1.00  0.00     0.165 HD
HETATM   12  C13 UNL     1     -26.388 -11.287 -29.428  1.00  0.00     0.105 A
HETATM   13  C14 UNL     1     -26.336 -11.062 -28.012  1.00  0.00     0.076 A
HETATM   14  C16 UNL     1     -27.112  -9.958 -27.861  1.00  0.00     0.022 A
HETATM   15  C17 UNL     1     -27.490  -9.227 -26.746  1.00  0.00     0.033 A
ENDROOT
BRANCH   1  16
HETATM   16  N1  UNL     1     -26.314 -10.488 -25.116  1.00  0.00    -0.385 N
ATOM     17  H1  UNL     1     -26.292 -11.342 -25.671  1.00  0.00     0.160 HD
BRANCH  16  18
HETATM   18  C3  UNL     1     -25.464 -10.449 -23.941  1.00  0.00     0.081 C
BRANCH  18  19
HETATM   19  C2  UNL     1     -25.597 -11.701 -23.134  1.00  0.00     0.020 C
HETATM   20  C1  UNL     1     -26.110 -11.599 -21.746  1.00  0.00     0.007 C
ENDBRANCH  18  19
BRANCH  18  21
HETATM   21  C4  UNL     1     -24.051 -10.054 -24.239  1.00  0.00     0.020 C
HETATM   22  C5  UNL     1     -23.550  -8.836 -23.545  1.00  0.00     0.007 C
ENDBRANCH  18  21
ENDBRANCH  16  18
ENDBRANCH   1  16
BRANCH   7  23
HETATM   23  O1  UNL     1     -29.635  -6.664 -28.391  1.00  0.00    -0.358 OA
ATOM     24  H1  UNL     1     -30.580  -6.719 -28.471  1.00  0.00     0.217 HD
ENDBRANCH   7  23
BRANCH  13  25
HETATM   25  C15 UNL     1     -25.555 -11.923 -27.188  1.00  0.00     0.419 C
HETATM   26  F1  UNL     1     -25.144 -12.988 -28.153  1.00  0.00    -0.166 F
HETATM   27  F2  UNL     1     -24.208 -11.636 -26.982  1.00  0.00    -0.166 F
HETATM   28  F3  UNL     1     -26.151 -12.886 -26.397  1.00  0.00    -0.166 F
ENDBRANCH  13  25
TORSDOF 6
ENDMDL