MODEL 5
REMARK VINA RESULT: -6.375878272      2.754      6.963
REMARK  3 active torsions:
REMARK  status: ('A' for Active; 'I' for Inactive)
REMARK    1  A    between atoms: C2_2  and  C3_3
REMARK    2  A    between atoms: C3_3  and  C4_4
REMARK    3  A    between atoms: C7_8  and  C8_9
ROOT
HETATM    1  C8  UNL     1     -26.016 -10.663 -24.506  1.00  0.00    -0.003 C
HETATM    2  C9  UNL     1     -24.834 -11.175 -23.675  1.00  0.00     0.021 C
HETATM    3  C10 UNL     1     -27.165 -11.506 -24.001  1.00  0.00     0.089 C
HETATM    4  C11 UNL     1     -26.816 -12.933 -24.253  1.00  0.00     0.072 C
HETATM    5  N1  UNL     1     -26.849 -13.820 -23.324  1.00  0.00    -0.389 N
ATOM      6  H11 UNL     1     -26.611 -14.796 -23.495  1.00  0.00     0.157 HD
ATOM      7  H12 UNL     1     -27.114 -13.581 -22.369  1.00  0.00     0.157 HD
HETATM    8  N2  UNL     1     -26.450 -13.264 -25.572  1.00  0.00    -0.372 N
ATOM      9  H2  UNL     1     -26.676 -14.191 -25.934  1.00  0.00     0.161 HD
HETATM   10  C12 UNL     1     -25.768 -12.334 -26.418  1.00  0.00     0.025 C
HETATM   11  C13 UNL     1     -24.411 -12.994 -26.732  1.00  0.00     0.038 C
HETATM   12  C14 UNL     1     -26.498 -12.377 -27.771  1.00  0.00     0.038 C
HETATM   13  C15 UNL     1     -25.584 -10.965 -25.922  1.00  0.00     0.044 C
ENDROOT
BRANCH   1  14
HETATM   14  C7  UNL     1     -26.283  -9.229 -24.424  1.00  0.00     0.013 A
HETATM   15  C6  UNL     1     -25.267  -8.485 -23.786  1.00  0.00     0.125 A
HETATM   16  C5  UNL     1     -25.420  -7.125 -23.658  1.00  0.00     0.052 A
HETATM   17  F1  UNL     1     -24.147  -9.047 -23.290  1.00  0.00    -0.205 F
HETATM   18  C4  UNL     1     -26.533  -6.470 -24.133  1.00  0.00    -0.029 A
HETATM   19  C17 UNL     1     -27.503  -7.220 -24.749  1.00  0.00     0.075 A
HETATM   20  C16 UNL     1     -27.393  -8.612 -24.903  1.00  0.00     0.068 A
HETATM   21  N3  UNL     1     -28.667  -6.592 -25.253  1.00  0.00    -0.100 NA
HETATM   22 CL1  UNL     1     -28.688  -9.467 -25.706  1.00  0.00    -0.082 Cl
BRANCH  18  23
HETATM   23  C3  UNL     1     -26.716  -4.995 -24.001  1.00  0.00     0.040 C
BRANCH  23  24
HETATM   24  C2  UNL     1     -25.482  -4.262 -24.489  1.00  0.00     0.000 C
HETATM   25  C1  UNL     1     -25.409  -2.860 -23.948  1.00  0.00     0.005 C
ENDBRANCH  23  24
ENDBRANCH  18  23
ENDBRANCH   1  14
TORSDOF 3
ENDMDL