MODEL 3
REMARK VINA RESULT: -6.629606857      2.831      5.733
REMARK  4 active torsions:
REMARK  status: ('A' for Active; 'I' for Inactive)
REMARK    1  A    between atoms: N1_1  and  C1_4
REMARK    2  A    between atoms: C3_9  and  C4_10
REMARK    3  A    between atoms: C9_15  and  N3_16
REMARK    4  A    between atoms: N3_16  and  C10_18
ROOT
HETATM    1  C4  UNL     1     -28.669  -9.168 -25.174  1.00  0.00     0.044 C
HETATM    2  C5  UNL     1     -28.334 -10.075 -26.391  1.00  0.00     0.011 C
HETATM    3  C6  UNL     1     -27.623  -9.433 -27.491  1.00  0.00     0.001 C
HETATM    4  C7  UNL     1     -28.169  -8.085 -27.890  1.00  0.00     0.002 C
HETATM    5  C8  UNL     1     -28.692  -7.343 -26.682  1.00  0.00     0.026 C
HETATM    6  C9  UNL     1     -27.923  -7.862 -25.456  1.00  0.00     0.089 C
ENDROOT
BRANCH   1   7
HETATM    7  C3  UNL     1     -27.993  -9.918 -24.076  1.00  0.00    -0.010 A
HETATM    8  C2  UNL     1     -28.662 -10.198 -22.909  1.00  0.00     0.112 A
HETATM    9  N2  UNL     1     -28.059 -10.813 -21.857  1.00  0.00    -0.330 N
HETATM   10 CL1  UNL     1     -30.394  -9.808 -22.750  1.00  0.00    -0.064 Cl
HETATM   11  C1  UNL     1     -26.750 -11.172 -21.960  1.00  0.00     0.139 A
ATOM     12  H2  UNL     1     -28.581 -11.003 -21.001  1.00  0.00     0.168 HD
HETATM   13  C17 UNL     1     -26.079 -10.892 -23.113  1.00  0.00     0.160 A
HETATM   14  C16 UNL     1     -26.661 -10.269 -24.186  1.00  0.00     0.057 A
HETATM   15  F1  UNL     1     -24.749 -11.234 -23.188  1.00  0.00    -0.202 F
BRANCH  11  16
HETATM   16  N1  UNL     1     -26.185 -11.791 -20.989  1.00  0.00    -0.383 N
ATOM     17  H12 UNL     1     -25.423 -12.451 -21.149  1.00  0.00     0.157 HD
ATOM     18  H11 UNL     1     -26.518 -11.644 -20.037  1.00  0.00     0.157 HD
ENDBRANCH  11  16
ENDBRANCH   1   7
BRANCH   6  19
HETATM   19  N3  UNL     1     -27.769  -6.986 -24.471  1.00  0.00    -0.391 N
ATOM     20  H3  UNL     1     -28.443  -7.134 -23.721  1.00  0.00     0.159 HD
BRANCH  19  21
HETATM   21  C10 UNL     1     -26.929  -5.926 -24.206  1.00  0.00    -0.018 C
HETATM   22  C11 UNL     1     -25.747  -5.542 -25.003  1.00  0.00     0.052 C
HETATM   23  C12 UNL     1     -25.415  -4.087 -24.698  1.00  0.00     0.006 C
HETATM   24  C13 UNL     1     -25.401  -3.688 -23.286  1.00  0.00     0.001 C
HETATM   25  C14 UNL     1     -26.371  -4.373 -22.378  1.00  0.00     0.006 C
HETATM   26  C15 UNL     1     -26.484  -5.837 -22.741  1.00  0.00     0.052 C
ENDBRANCH  19  21
ENDBRANCH   6  19
TORSDOF 4
ENDMDL