MODEL 1
REMARK VINA RESULT: -7.123319887      0.000      0.000
REMARK  6 active torsions:
REMARK  status: ('A' for Active; 'I' for Inactive)
REMARK    1  A    between atoms: N1_1  and  C1_5
REMARK    2  A    between atoms: C1_5  and  C2_6
REMARK    3  A    between atoms: C2_6  and  N2_7
REMARK    4  A    between atoms: N2_7  and  C3_9
REMARK    5  A    between atoms: C4_10  and  O1_11
REMARK    6  A    between atoms: C5_13  and  C6_14
ROOT
HETATM    1  C3  UNL     1     -27.810  -4.958 -22.527  1.00  0.00     0.076 A
HETATM    2  C4  UNL     1     -28.372  -6.214 -22.593  1.00  0.00     0.116 A
HETATM    3  C5  UNL     1     -27.954  -7.148 -23.550  1.00  0.00     0.049 A
HETATM    4  N3  UNL     1     -26.997  -6.802 -24.402  1.00  0.00    -0.356 N
ATOM      5  H3  UNL     1     -26.698  -7.489 -25.094  1.00  0.00     0.166 HD
HETATM    6  C12 UNL     1     -26.400  -5.600 -24.403  1.00  0.00     0.048 A
HETATM    7  C13 UNL     1     -25.396  -5.302 -25.336  1.00  0.00     0.072 A
HETATM    8  C14 UNL     1     -24.800  -4.060 -25.318  1.00  0.00     0.118 A
HETATM    9  F1  UNL     1     -23.820  -3.723 -26.205  1.00  0.00    -0.206 F
HETATM   10  C15 UNL     1     -25.182  -3.120 -24.398  1.00  0.00     0.043 A
HETATM   11  C16 UNL     1     -26.189  -3.444 -23.477  1.00  0.00     0.019 A
HETATM   12  C17 UNL     1     -26.793  -4.678 -23.481  1.00  0.00     0.020 A
ENDROOT
BRANCH   1  13
HETATM   13  N2  UNL     1     -28.080  -4.041 -21.740  1.00  0.00    -0.385 N
ATOM     14  H2  UNL     1     -27.608  -3.196 -22.063  1.00  0.00     0.159 HD
BRANCH  13  15
HETATM   15  C2  UNL     1     -28.775  -3.730 -20.595  1.00  0.00     0.147 C
BRANCH  15  16
HETATM   16  C1  UNL     1     -27.889  -3.973 -19.366  1.00  0.00     0.249 C
BRANCH  16  17
HETATM   17  N1  UNL     1     -28.608  -3.664 -18.143  1.00  0.00    -0.078 N
ATOM     18  H13 UNL     1     -28.772  -2.662 -18.045  1.00  0.00     0.274 HD
ATOM     19  H12 UNL     1     -29.578  -3.976 -18.187  1.00  0.00     0.274 HD
ATOM     20  H11 UNL     1     -28.125  -4.049 -17.332  1.00  0.00     0.274 HD
ENDBRANCH  16  17
ENDBRANCH  15  16
ENDBRANCH  13  15
ENDBRANCH   1  13
BRANCH   2  21
HETATM   21  O1  UNL     1     -29.360  -6.563 -21.707  1.00  0.00    -0.357 OA
ATOM     22  H1  UNL     1     -29.774  -7.416 -21.776  1.00  0.00     0.218 HD
ENDBRANCH   2  21
BRANCH   3  23
HETATM   23  C6  UNL     1     -28.623  -8.467 -23.536  1.00  0.00     0.038 C
HETATM   24  C7  UNL     1     -29.119  -8.897 -24.884  1.00  0.00     0.011 C
HETATM   25  C8  UNL     1     -30.151 -10.010 -24.661  1.00  0.00     0.001 C
HETATM   26  C9  UNL     1     -29.605 -11.047 -23.701  1.00  0.00     0.000 C
HETATM   27  C10 UNL     1     -28.111 -10.917 -23.654  1.00  0.00     0.001 C
HETATM   28  C11 UNL     1     -27.750  -9.578 -22.996  1.00  0.00     0.011 C
ENDBRANCH   3  23
TORSDOF 6
ENDMDL