MODEL 4
REMARK VINA RESULT: -6.397361334      2.947      7.034
REMARK  5 active torsions:
REMARK  status: ('A' for Active; 'I' for Inactive)
REMARK    1  A    between atoms: C3_5  and  C4_6
REMARK    2  A    between atoms: C7_9  and  N2_10
REMARK    3  A    between atoms: C10_18  and  O1_19
REMARK    4  A    between atoms: C11_21  and  C12_22
REMARK    5  A    between atoms: C12_22  and  C13_23
ROOT
HETATM    1  C1  UNL     1     -24.635 -14.744 -27.474  1.00  0.00     0.069 C
HETATM    2  C2  UNL     1     -25.047 -13.400 -26.978  1.00  0.00     0.015 A
HETATM    3  N1  UNL     1     -24.511 -12.790 -25.886  1.00  0.00    -0.357 N
ATOM      4  H1  UNL     1     -23.778 -13.159 -25.279  1.00  0.00     0.166 HD
HETATM    5  C3  UNL     1     -25.136 -11.606 -25.765  1.00  0.00     0.078 A
HETATM    6  C10 UNL     1     -26.061 -11.469 -26.774  1.00  0.00     0.101 A
HETATM    7  C11 UNL     1     -26.010 -12.625 -27.564  1.00  0.00    -0.000 A
ENDROOT
BRANCH   5   8
HETATM    8  C4  UNL     1     -24.818 -10.654 -24.668  1.00  0.00     0.039 C
HETATM    9  C5  UNL     1     -23.708  -9.963 -24.668  1.00  0.00    -0.009 C
HETATM   10  C6  UNL     1     -23.355  -9.004 -23.593  1.00  0.00     0.061 C
HETATM   11  C7  UNL     1     -24.621  -8.333 -23.124  1.00  0.00     0.193 C
HETATM   12  C8  UNL     1     -25.486  -9.446 -22.567  1.00  0.00     0.117 C
HETATM   13  C9  UNL     1     -25.797 -10.497 -23.571  1.00  0.00     0.275 C
HETATM   14  F1  UNL     1     -27.070 -10.179 -24.076  1.00  0.00    -0.201 F
HETATM   15  F2  UNL     1     -25.948 -11.745 -22.949  1.00  0.00    -0.201 F
BRANCH  11  16
HETATM   16  N2  UNL     1     -25.212  -7.656 -24.237  1.00  0.00    -0.075 N
ATOM     17  H23 UNL     1     -24.604  -7.644 -25.056  1.00  0.00     0.274 HD
ATOM     18  H22 UNL     1     -25.987  -8.178 -24.646  1.00  0.00     0.274 HD
ATOM     19  H21 UNL     1     -25.484  -6.720 -23.936  1.00  0.00     0.274 HD
ENDBRANCH  11  16
ENDBRANCH   5   8
BRANCH   6  20
HETATM   20  O1  UNL     1     -26.918 -10.441 -27.047  1.00  0.00    -0.358 OA
ATOM     21  H1  UNL     1     -26.890  -9.788 -27.735  1.00  0.00     0.217 HD
ENDBRANCH   6  20
BRANCH   7  22
HETATM   22  C12 UNL     1     -26.821 -12.918 -28.756  1.00  0.00     0.048 C
BRANCH  22  23
HETATM   23  C13 UNL     1     -26.078 -12.641 -30.044  1.00  0.00    -0.010 C
HETATM   24  C14 UNL     1     -26.797 -13.292 -31.201  1.00  0.00     0.005 C
HETATM   25  C15 UNL     1     -26.584 -12.517 -32.493  1.00  0.00     0.000 C
HETATM   26  C16 UNL     1     -27.362 -11.243 -32.403  1.00  0.00     0.000 C
HETATM   27  C17 UNL     1     -27.296 -10.744 -30.993  1.00  0.00     0.000 C
HETATM   28  C18 UNL     1     -25.991 -11.160 -30.345  1.00  0.00     0.005 C
ENDBRANCH  22  23
ENDBRANCH   7  22
TORSDOF 5
ENDMDL