MODEL 1
REMARK VINA RESULT: -6.994417347      0.000      0.000
REMARK  5 active torsions:
REMARK  status: ('A' for Active; 'I' for Inactive)
REMARK    1  A    between atoms: C3_3  and  C4_4
REMARK    2  A    between atoms: C7_7  and  O1_8
REMARK    3  A    between atoms: O1_8  and  C8_9
REMARK    4  A    between atoms: C15_20  and  C16_21
REMARK    5  A    between atoms: C16_21  and  N2_24
ROOT
HETATM    1  C1  UNL     1     -29.920  -9.277 -25.638  1.00  0.00     0.051 C
HETATM    2  C2  UNL     1     -28.728  -8.376 -25.607  1.00  0.00    -0.024 A
HETATM    3  C3  UNL     1     -27.860  -8.021 -26.591  1.00  0.00     0.050 A
HETATM    4  N1  UNL     1     -26.949  -7.191 -25.983  1.00  0.00    -0.341 N
ATOM      5  H1  UNL     1     -26.161  -6.756 -26.464  1.00  0.00     0.167 HD
HETATM    6  C11 UNL     1     -27.215  -7.027 -24.702  1.00  0.00     0.108 A
HETATM    7  C12 UNL     1     -28.325  -7.749 -24.411  1.00  0.00    -0.006 A
HETATM    8  C13 UNL     1     -28.879  -7.763 -23.024  1.00  0.00     0.045 C
HETATM    9  C14 UNL     1     -28.799  -6.339 -22.515  1.00  0.00     0.032 C
HETATM   10  C15 UNL     1     -27.351  -5.896 -22.450  1.00  0.00     0.118 C
HETATM   11  N3  UNL     1     -26.613  -6.288 -23.620  1.00  0.00    -0.369 N
ATOM     12  H3  UNL     1     -25.627  -6.033 -23.688  1.00  0.00     0.161 HD
ENDROOT
BRANCH   3  13
HETATM   13  C4  UNL     1     -27.827  -8.419 -27.978  1.00  0.00    -0.009 A
HETATM   14  C5  UNL     1     -28.042  -7.627 -29.055  1.00  0.00     0.016 A
HETATM   15  C6  UNL     1     -28.031  -8.090 -30.387  1.00  0.00     0.038 A
HETATM   16  C7  UNL     1     -27.792  -9.402 -30.651  1.00  0.00     0.074 A
HETATM   17  C9  UNL     1     -27.565 -10.251 -29.569  1.00  0.00     0.038 A
HETATM   18  C10 UNL     1     -27.583  -9.771 -28.285  1.00  0.00     0.016 A
BRANCH  16  19
HETATM   19  O1  UNL     1     -27.762  -9.945 -31.925  1.00  0.00    -0.290 OA
BRANCH  19  20
HETATM   20  C8  UNL     1     -27.318 -11.206 -32.295  1.00  0.00     0.505 C
HETATM   21  F1  UNL     1     -27.442 -11.452 -33.652  1.00  0.00    -0.184 F
HETATM   22  F2  UNL     1     -25.959 -11.303 -32.000  1.00  0.00    -0.184 F
ENDBRANCH  19  20
ENDBRANCH  16  19
ENDBRANCH   3  13
BRANCH  10  23
HETATM   23  C16 UNL     1     -27.317  -4.400 -22.230  1.00  0.00     0.136 C
HETATM   24  C17 UNL     1     -26.362  -3.717 -23.165  1.00  0.00     0.048 C
HETATM   25  C18 UNL     1     -28.705  -3.841 -22.477  1.00  0.00     0.048 C
BRANCH  23  26
HETATM   26  N2  UNL     1     -26.976  -4.155 -20.839  1.00  0.00    -0.069 N
ATOM     27  H23 UNL     1     -27.612  -3.496 -20.387  1.00  0.00     0.275 HD
ATOM     28  H22 UNL     1     -27.164  -4.959 -20.240  1.00  0.00     0.275 HD
ATOM     29  H21 UNL     1     -26.003  -3.852 -20.800  1.00  0.00     0.275 HD
ENDBRANCH  23  26
ENDBRANCH  10  23
TORSDOF 5
ENDMDL