MODEL 4
REMARK VINA RESULT: -6.494853763      3.684      6.693
REMARK  4 active torsions:
REMARK  status: ('A' for Active; 'I' for Inactive)
REMARK    1  A    between atoms: C4_6  and  N2_7
REMARK    2  A    between atoms: C6_11  and  C7_12
REMARK    3  A    between atoms: C9_14  and  C10_15
REMARK    4  A    between atoms: C15_20  and  C16_21
ROOT
HETATM    1  C1  UNL     1     -26.230 -13.160 -32.557  1.00  0.00     0.021 C
HETATM    2  C2  UNL     1     -26.541 -12.325 -31.757  1.00  0.00    -0.041 C
HETATM    3  C3  UNL     1     -26.890 -11.314 -30.780  1.00  0.00     0.163 A
HETATM    4  N1  UNL     1     -26.727 -11.543 -29.453  1.00  0.00    -0.321 N
ATOM      5  H1  UNL     1     -26.353 -12.446 -29.160  1.00  0.00     0.169 HD
HETATM    6  C4  UNL     1     -27.032 -10.645 -28.507  1.00  0.00     0.116 A
HETATM    7  C5  UNL     1     -27.544  -9.403 -28.863  1.00  0.00     0.064 A
HETATM    8  C6  UNL     1     -27.923  -8.303 -28.148  1.00  0.00     0.008 A
HETATM    9  C17 UNL     1     -28.331  -7.371 -29.109  1.00  0.00     0.103 A
HETATM   10  N3  UNL     1     -28.193  -7.911 -30.320  1.00  0.00    -0.351 N
ATOM     11  H3  UNL     1     -28.420  -7.443 -31.197  1.00  0.00     0.166 HD
HETATM   12  C18 UNL     1     -27.705  -9.178 -30.216  1.00  0.00     0.122 A
HETATM   13  N4  UNL     1     -27.382 -10.117 -31.121  1.00  0.00    -0.320 N
ATOM     14  H4  UNL     1     -27.517  -9.908 -32.111  1.00  0.00     0.169 HD
ENDROOT
BRANCH   6  15
HETATM   15  N2  UNL     1     -26.819 -10.966 -27.298  1.00  0.00    -0.385 N
ATOM     16  H22 UNL     1     -27.213 -11.810 -26.882  1.00  0.00     0.157 HD
ATOM     17  H21 UNL     1     -26.244 -10.339 -26.735  1.00  0.00     0.157 HD
ENDBRANCH   6  15
BRANCH   8  18
HETATM   18  C7  UNL     1     -27.993  -8.143 -26.702  1.00  0.00    -0.011 A
HETATM   19  C8  UNL     1     -26.936  -7.541 -26.010  1.00  0.00     0.020 A
HETATM   20  C9  UNL     1     -26.928  -7.462 -24.616  1.00  0.00    -0.054 A
HETATM   21  C13 UNL     1     -28.001  -7.995 -23.941  1.00  0.00     0.008 A
HETATM   22  C14 UNL     1     -29.062  -8.595 -24.582  1.00  0.00     0.014 A
HETATM   23  C15 UNL     1     -29.044  -8.662 -25.983  1.00  0.00     0.017 A
BRANCH  20  24
HETATM   24  C10 UNL     1     -25.771  -6.804 -23.972  1.00  0.00     0.010 C
HETATM   25  C11 UNL     1     -25.006  -7.920 -23.237  1.00  0.00     0.015 C
HETATM   26  C12 UNL     1     -26.174  -5.802 -22.932  1.00  0.00     0.015 C
ENDBRANCH  20  24
BRANCH  23  27
HETATM   27  C16 UNL     1     -30.213  -9.273 -26.663  1.00  0.00     0.387 C
HETATM   28  F1  UNL     1     -29.935 -10.612 -26.860  1.00  0.00    -0.209 F
HETATM   29  F2  UNL     1     -31.321  -9.137 -25.827  1.00  0.00    -0.209 F
ENDBRANCH  23  27
ENDBRANCH   8  18
TORSDOF 4
ENDMDL