MODEL 1
REMARK VINA RESULT: -6.366107643      0.000      0.000
REMARK  4 active torsions:
REMARK  status: ('A' for Active; 'I' for Inactive)
REMARK    1  A    between atoms: C2_2  and  C3_3
REMARK    2  A    between atoms: C3_3  and  N1_4
REMARK    3  A    between atoms: C3_3  and  C4_8
REMARK    4  A    between atoms: C6_12  and  C7_13
ROOT
HETATM    1  C4  UNL     1     -28.122  -8.125 -26.953  1.00  0.00     0.056 A
HETATM    2  C5  UNL     1     -27.392  -8.857 -26.039  1.00  0.00     0.116 A
HETATM    3  N2  UNL     1     -27.404  -8.173 -24.882  1.00  0.00    -0.353 N
ATOM      4  H2  UNL     1     -26.941  -8.473 -24.023  1.00  0.00     0.166 HD
HETATM    5  C6  UNL     1     -28.113  -7.031 -25.017  1.00  0.00     0.090 A
HETATM    6  N4  UNL     1     -28.539  -7.031 -26.293  1.00  0.00    -0.346 N
ATOM      7  H4  UNL     1     -29.108  -6.293 -26.709  1.00  0.00     0.167 HD
ENDROOT
BRANCH   5   8
HETATM    8  C7  UNL     1     -28.357  -6.037 -23.948  1.00  0.00     0.090 C
HETATM    9  C8  UNL     1     -28.839  -6.768 -22.711  1.00  0.00     0.019 C
HETATM   10  C9  UNL     1     -28.848  -5.933 -21.483  1.00  0.00     0.033 C
HETATM   11  C10 UNL     1     -28.598  -4.479 -21.709  1.00  0.00     0.076 C
HETATM   12  C11 UNL     1     -28.382  -3.830 -20.343  1.00  0.00     0.039 C
HETATM   13 CL1  UNL     1     -29.958  -3.648 -22.452  1.00  0.00    -0.113 Cl
HETATM   14  C12 UNL     1     -27.336  -4.370 -22.498  1.00  0.00     0.041 A
HETATM   15  N3  UNL     1     -26.211  -3.647 -22.374  1.00  0.00    -0.365 N
HETATM   16  C15 UNL     1     -27.213  -5.162 -23.639  1.00  0.00     0.001 A
HETATM   17  C13 UNL     1     -25.388  -3.952 -23.388  1.00  0.00     0.112 A
ATOM     18  H3  UNL     1     -26.015  -2.975 -21.632  1.00  0.00     0.165 HD
HETATM   19  C14 UNL     1     -25.985  -4.899 -24.201  1.00  0.00     0.058 A
HETATM   20 CL2  UNL     1     -25.348  -5.637 -25.650  1.00  0.00    -0.082 Cl
ENDBRANCH   5   8
BRANCH   1  21
HETATM   21  C3  UNL     1     -28.381  -8.494 -28.370  1.00  0.00     0.234 C
BRANCH  21  22
HETATM   22  C2  UNL     1     -28.349  -7.248 -29.224  1.00  0.00     0.035 C
HETATM   23  C1  UNL     1     -26.929  -6.842 -29.539  1.00  0.00     0.007 C
ENDBRANCH  21  22
BRANCH  21  24
HETATM   24  N1  UNL     1     -27.341  -9.416 -28.796  1.00  0.00    -0.070 N
ATOM     25  H13 UNL     1     -27.510  -9.774 -29.736  1.00  0.00     0.275 HD
ATOM     26  H12 UNL     1     -26.458  -8.939 -28.974  1.00  0.00     0.275 HD
ATOM     27  H11 UNL     1     -27.239 -10.167 -28.113  1.00  0.00     0.275 HD
ENDBRANCH  21  24
ENDBRANCH   1  21
TORSDOF 4
ENDMDL