MODEL 2
REMARK VINA RESULT: -6.752385642      2.579      3.164
REMARK  3 active torsions:
REMARK  status: ('A' for Active; 'I' for Inactive)
REMARK    1  A    between atoms: C9_12  and  N2_13
REMARK    2  A    between atoms: C12_20  and  C13_21
REMARK    3  A    between atoms: C13_21  and  C14_22
ROOT
HETATM    1  C1  UNL     1     -31.049  -9.815 -21.026  1.00  0.00     0.077 C
HETATM    2  C2  UNL     1     -30.075  -8.885 -21.687  1.00  0.00     0.058 A
HETATM    3  O1  UNL     1     -29.922  -7.603 -21.335  1.00  0.00    -0.312 OA
HETATM    4  C3  UNL     1     -29.005  -7.035 -22.073  1.00  0.00     0.105 A
HETATM    5  C4  UNL     1     -28.325  -5.863 -22.319  1.00  0.00     0.070 A
HETATM    6  C5  UNL     1     -27.422  -6.089 -23.362  1.00  0.00     0.045 A
HETATM    7  C6  UNL     1     -26.521  -5.107 -23.918  1.00  0.00    -0.004 A
HETATM    8  C7  UNL     1     -26.503  -3.830 -23.425  1.00  0.00     0.031 A
HETATM    9  C8  UNL     1     -25.629  -2.872 -23.963  1.00  0.00     0.090 A
HETATM   10  N1  UNL     1     -24.829  -3.264 -24.964  1.00  0.00    -0.353 N
ATOM     11  H1  UNL     1     -24.193  -2.570 -25.356  1.00  0.00     0.166 HD
HETATM   12  C9  UNL     1     -24.799  -4.501 -25.493  1.00  0.00     0.099 A
HETATM   13  C10 UNL     1     -25.674  -5.434 -24.943  1.00  0.00     0.061 A
HETATM   14  N3  UNL     1     -27.593  -7.379 -23.699  1.00  0.00    -0.353 N
ATOM     15  H3  UNL     1     -27.068  -7.846 -24.438  1.00  0.00     0.166 HD
HETATM   16  C11 UNL     1     -28.528  -7.981 -22.955  1.00  0.00     0.075 A
HETATM   17  C12 UNL     1     -29.221  -9.176 -22.706  1.00  0.00     0.001 A
ENDROOT
BRANCH  12  18
HETATM   18  N2  UNL     1     -23.994  -4.796 -26.462  1.00  0.00    -0.385 N
ATOM     19  H22 UNL     1     -23.024  -4.480 -26.479  1.00  0.00     0.157 HD
ATOM     20  H21 UNL     1     -24.304  -5.362 -27.252  1.00  0.00     0.157 HD
ENDBRANCH  12  18
BRANCH  17  21
HETATM   21  C13 UNL     1     -28.990 -10.374 -23.484  1.00  0.00     0.048 C
BRANCH  21  22
HETATM   22  C14 UNL     1     -29.565 -10.491 -24.837  1.00  0.00    -0.004 C
HETATM   23  C15 UNL     1     -30.068 -11.960 -24.925  1.00  0.00     0.011 C
HETATM   24  C16 UNL     1     -31.400 -11.854 -24.263  1.00  0.00     0.079 C
HETATM   25  C17 UNL     1     -31.972 -10.569 -24.800  1.00  0.00     0.244 C
HETATM   26  F1  UNL     1     -32.777  -9.933 -23.880  1.00  0.00    -0.206 F
HETATM   27  F2  UNL     1     -32.762 -10.929 -25.898  1.00  0.00    -0.206 F
HETATM   28  C18 UNL     1     -30.772  -9.744 -25.216  1.00  0.00     0.084 C
ENDBRANCH  21  22
ENDBRANCH  17  21
TORSDOF 3
ENDMDL