MODEL 1
REMARK VINA RESULT: -6.501841152      0.000      0.000
REMARK  6 active torsions:
REMARK  status: ('A' for Active; 'I' for Inactive)
REMARK    1  A    between atoms: C4_4  and  C5_5
REMARK    2  A    between atoms: C5_5  and  C7_7
REMARK    3  A    between atoms: C10_14  and  N3_15
REMARK    4  A    between atoms: C13_20  and  O1_21
REMARK    5  A    between atoms: O1_21  and  C14_22
REMARK    6  A    between atoms: C14_22  and  C17_25
ROOT
HETATM    1  C1  UNL     1     -27.154 -11.034 -25.053  1.00  0.00     0.051 C
HETATM    2  C2  UNL     1     -27.114  -9.619 -25.497  1.00  0.00    -0.028 A
HETATM    3  C3  UNL     1     -26.537  -8.694 -24.623  1.00  0.00     0.017 A
HETATM    4  C4  UNL     1     -26.435  -7.349 -24.934  1.00  0.00    -0.049 A
HETATM    5  C11 UNL     1     -26.936  -6.956 -26.164  1.00  0.00     0.011 A
HETATM    6  C12 UNL     1     -27.506  -7.844 -27.039  1.00  0.00     0.038 A
HETATM    7  C13 UNL     1     -27.597  -9.190 -26.705  1.00  0.00     0.076 A
ENDROOT
BRANCH   4   8
HETATM    8  C5  UNL     1     -25.827  -6.417 -23.978  1.00  0.00     0.053 C
HETATM    9  C6  UNL     1     -25.273  -7.103 -22.751  1.00  0.00     0.020 C
BRANCH   8  10
HETATM   10  C7  UNL     1     -26.731  -5.295 -23.577  1.00  0.00     0.018 A
HETATM   11  C8  UNL     1     -26.462  -3.932 -23.715  1.00  0.00     0.032 A
HETATM   12  C9  UNL     1     -25.190  -3.410 -24.299  1.00  0.00     0.070 C
HETATM   13  N1  UNL     1     -27.518  -3.253 -23.241  1.00  0.00    -0.303 N
HETATM   14  N2  UNL     1     -28.438  -4.099 -22.812  1.00  0.00    -0.285 N
ATOM     15  H1  UNL     1     -27.599  -2.236 -23.215  1.00  0.00     0.186 HD
HETATM   16  C10 UNL     1     -27.975  -5.348 -23.009  1.00  0.00     0.122 A
ATOM     17  H2  UNL     1     -29.339  -3.850 -22.405  1.00  0.00     0.188 HD
BRANCH  16  18
HETATM   18  N3  UNL     1     -28.635  -6.401 -22.696  1.00  0.00    -0.384 N
ATOM     19  H32 UNL     1     -28.912  -7.112 -23.374  1.00  0.00     0.157 HD
ATOM     20  H31 UNL     1     -28.962  -6.667 -21.768  1.00  0.00     0.157 HD
ENDBRANCH  16  18
ENDBRANCH   8  10
ENDBRANCH   4   8
BRANCH   7  21
HETATM   21  O1  UNL     1     -28.172 -10.035 -27.601  1.00  0.00    -0.331 OA
BRANCH  21  22
HETATM   22  C14 UNL     1     -27.598 -10.771 -28.623  1.00  0.00     0.158 C
HETATM   23  C15 UNL     1     -26.184 -11.200 -28.437  1.00  0.00     0.056 C
HETATM   24  C16 UNL     1     -28.400 -12.013 -28.985  1.00  0.00     0.056 C
BRANCH  22  25
HETATM   25  C17 UNL     1     -27.635  -9.893 -29.880  1.00  0.00     0.418 C
HETATM   26  F1  UNL     1     -26.474  -9.175 -30.004  1.00  0.00    -0.168 F
HETATM   27  F2  UNL     1     -28.668  -8.980 -29.752  1.00  0.00    -0.168 F
HETATM   28  F3  UNL     1     -27.798 -10.666 -31.017  1.00  0.00    -0.168 F
ENDBRANCH  22  25
ENDBRANCH  21  22
ENDBRANCH   7  21
TORSDOF 6
ENDMDL