MODEL 2
REMARK VINA RESULT: -6.785047420      2.536      6.336
REMARK  18 active torsions:
REMARK  status: ('A' for Active; 'I' for Inactive)
REMARK    1  A    between atoms: C2_2  and  C3_3
REMARK    2  A    between atoms: C3_3  and  O1_4
REMARK    3  A    between atoms: O1_4  and  C4_5
REMARK    4  A    between atoms: C4_5  and  C5_6
REMARK    5  A    between atoms: C5_6  and  O2_7
REMARK    6  A    between atoms: C5_6  and  C6_9
REMARK    7  A    between atoms: C9_14  and  O5_16
REMARK    8  A    between atoms: C12_20  and  O7_21
REMARK    9  A    between atoms: C13_24  and  O9_25
REMARK   10  A    between atoms: C16_28  and  C17_29
REMARK   11  A    between atoms: C17_29  and  N1_30
REMARK   12  A    between atoms: C17_29  and  C18_34
REMARK       I    between atoms: C18_34  and  N2_36
REMARK       I    between atoms: N2_36  and  C19_38
REMARK   13  A    between atoms: C19_38  and  O12_40
REMARK   14  A    between atoms: O12_40  and  C20_41
REMARK   15  A    between atoms: C26_49  and  O15_50
REMARK   16  A    between atoms: O15_50  and  C27_51
REMARK   17  A    between atoms: C27_51  and  C28_53
REMARK   18  A    between atoms: C28_53  and  O17_54
ROOT
HETATM    1  C4  UNL     1      21.874 -10.190 -25.981  1.00  0.00     0.160 C
HETATM    2  C7  UNL     1      21.769 -10.586 -27.364  1.00  0.00     0.043 C
HETATM    3  C8  UNL     1      20.643 -10.808 -28.298  1.00  0.00     0.048 C
HETATM    4  C9  UNL     1      21.461 -11.067 -29.633  1.00  0.00     0.081 C
HETATM    5  C10 UNL     1      21.118 -10.029 -30.665  1.00  0.00     0.049 C
HETATM    6  C11 UNL     1      22.809 -10.975 -29.201  1.00  0.00     0.170 C
HETATM    7  O6  UNL     1      24.047 -10.821 -29.505  1.00  0.00    -0.322 OA
HETATM    8  C12 UNL     1      24.810 -10.875 -28.369  1.00  0.00     0.313 C
HETATM    9  O8  UNL     1      24.914  -9.537 -27.907  1.00  0.00    -0.299 OA
HETATM   10  C13 UNL     1      23.705  -8.926 -28.041  1.00  0.00     0.272 C
HETATM   11  C15 UNL     1      22.578  -9.785 -28.240  1.00  0.00     0.081 C
HETATM   12  C16 UNL     1      24.656 -11.784 -27.255  1.00  0.00     0.258 C
HETATM   13  O13 UNL     1      23.699 -11.765 -26.341  1.00  0.00    -0.334 OA
HETATM   14  C24 UNL     1      23.247 -10.787 -25.546  1.00  0.00     0.229 C
HETATM   15  O14 UNL     1      24.213  -9.877 -25.137  1.00  0.00    -0.347 OA
HETATM   16  C25 UNL     1      24.730 -10.566 -24.056  1.00  0.00     0.209 C
HETATM   17  C26 UNL     1      23.287 -11.164 -24.075  1.00  0.00     0.221 C
ENDROOT
BRANCH  12  18
HETATM   18  C17 UNL     1      25.014 -13.189 -27.650  1.00  0.00     0.311 C
BRANCH  18  19
HETATM   19  N1  UNL     1      23.954 -13.805 -28.449  1.00  0.00    -0.064 N
ATOM     20  H13 UNL     1      23.563 -14.623 -27.984  1.00  0.00     0.275 HD
ATOM     21  H12 UNL     1      23.118 -13.222 -28.472  1.00  0.00     0.275 HD
ATOM     22  H11 UNL     1      24.280 -14.029 -29.389  1.00  0.00     0.275 HD
ENDBRANCH  18  19
BRANCH  18  23
HETATM   23  C18 UNL     1      25.352 -14.164 -26.625  1.00  0.00     0.259 C
HETATM   24  O10 UNL     1      25.469 -15.410 -26.936  1.00  0.00    -0.271 OA
HETATM   25  N2  UNL     1      25.587 -13.865 -25.238  1.00  0.00    -0.271 N
HETATM   26  C19 UNL     1      25.926 -14.894 -24.329  1.00  0.00     0.368 C
ATOM     27  H2  UNL     1      25.509 -12.903 -24.907  1.00  0.00     0.174 HD
HETATM   28  O11 UNL     1      26.017 -16.105 -24.728  1.00  0.00    -0.238 OA
BRANCH  26  29
HETATM   29  O12 UNL     1      26.179 -14.690 -22.982  1.00  0.00    -0.294 OA
BRANCH  29  30
HETATM   30  C20 UNL     1      27.412 -14.099 -22.545  1.00  0.00     0.061 C
HETATM   31  C21 UNL     1      27.867 -14.805 -21.310  1.00  0.00     0.046 C
HETATM   32  C22 UNL     1      27.214 -12.638 -22.212  1.00  0.00     0.046 C
HETATM   33  C23 UNL     1      28.468 -14.209 -23.619  1.00  0.00     0.046 C
ENDBRANCH  29  30
ENDBRANCH  26  29
ENDBRANCH  18  23
ENDBRANCH  12  18
BRANCH   8  34
HETATM   34  O7  UNL     1      26.153 -10.943 -28.897  1.00  0.00    -0.341 OA
ATOM     35  H7  UNL     1      26.062 -10.527 -29.746  1.00  0.00     0.215 HD
ENDBRANCH   8  34
BRANCH  10  36
HETATM   36  O9  UNL     1      23.976  -8.102 -29.200  1.00  0.00    -0.365 OA
HETATM   37  C14 UNL     1      25.004  -7.229 -28.956  1.00  0.00     0.204 C
ENDBRANCH  10  36
BRANCH   1  38
HETATM   38  O1  UNL     1      21.806  -8.863 -25.812  1.00  0.00    -0.367 OA
BRANCH  38  39
HETATM   39  C3  UNL     1      22.040  -8.183 -24.708  1.00  0.00     0.196 C
BRANCH  39  40
HETATM   40  C2  UNL     1      22.431  -6.773 -25.121  1.00  0.00    -0.011 C
HETATM   41  C1  UNL     1      23.677  -6.426 -25.353  1.00  0.00     0.009 C
ENDBRANCH  39  40
ENDBRANCH  38  39
ENDBRANCH   1  38
BRANCH   1  42
HETATM   42  C5  UNL     1      20.735 -10.836 -25.248  1.00  0.00     0.259 C
BRANCH  42  43
HETATM   43  O2  UNL     1      20.271 -12.001 -25.874  1.00  0.00    -0.382 OA
ATOM     44  H2  UNL     1      19.483 -11.859 -26.387  1.00  0.00     0.210 HD
ENDBRANCH  42  43
BRANCH  42  45
HETATM   45  C6  UNL     1      19.551  -9.973 -25.110  1.00  0.00     0.206 C
HETATM   46  O3  UNL     1      19.187  -9.498 -23.993  1.00  0.00    -0.646 OA
HETATM   47  O4  UNL     1      18.695  -9.573 -26.141  1.00  0.00    -0.646 OA
ENDBRANCH  42  45
ENDBRANCH   1  42
BRANCH  17  48
HETATM   48  O15 UNL     1      23.292 -12.519 -23.735  1.00  0.00    -0.306 OA
BRANCH  48  49
HETATM   49  C27 UNL     1      22.842 -13.032 -22.548  1.00  0.00     0.283 C
HETATM   50  O16 UNL     1      22.944 -14.252 -22.328  1.00  0.00    -0.263 OA
BRANCH  49  51
HETATM   51  C28 UNL     1      22.242 -12.061 -21.569  1.00  0.00     0.275 C
BRANCH  51  52
HETATM   52  O17 UNL     1      21.552 -12.700 -20.569  1.00  0.00    -0.391 OA
ATOM     53  H17 UNL     1      21.048 -12.092 -20.040  1.00  0.00     0.210 HD
ENDBRANCH  51  52
ENDBRANCH  49  51
ENDBRANCH  48  49
ENDBRANCH  17  48
BRANCH   4  54
HETATM   54  O5  UNL     1      21.054 -12.298 -30.175  1.00  0.00    -0.388 OA
ATOM     55  H5  UNL     1      21.108 -12.244 -31.122  1.00  0.00     0.210 HD
ENDBRANCH   4  54
TORSDOF 18
ENDMDL