MODEL 3
REMARK VINA RESULT: -5.763292009      2.479      5.210
REMARK  13 active torsions:
REMARK  status: ('A' for Active; 'I' for Inactive)
REMARK    1  A    between atoms: N1_2  and  C2_5
REMARK    2  A    between atoms: C2_5  and  N2_6
REMARK    3  A    between atoms: C7_14  and  C8_15
REMARK    4  A    between atoms: C9_18  and  C10_19
REMARK    5  A    between atoms: C10_19  and  N4_20
REMARK    6  A    between atoms: C12_22  and  C13_23
REMARK    7  A    between atoms: C14_26  and  S1_27
REMARK    8  A    between atoms: C16_31  and  O5_32
REMARK    9  A    between atoms: C17_37  and  S3_38
REMARK   10  A    between atoms: S3_38  and  N8_39
REMARK   11  A    between atoms: N9_44  and  C18_45
REMARK   12  A    between atoms: C18_45  and  C19_46
REMARK   13  A    between atoms: C19_46  and  S4_47
ROOT
HETATM    1  N2  UNL     1      23.347  -8.883 -28.836  1.00  0.00    -0.258 N
HETATM    2  C3  UNL     1      24.323  -7.899 -28.829  1.00  0.00     0.334 A
HETATM    3  O1  UNL     1      24.960  -7.789 -29.939  1.00  0.00    -0.246 OA
HETATM    4  N3  UNL     1      24.610  -7.123 -27.814  1.00  0.00    -0.270 N
HETATM    5  C4  UNL     1      25.644  -6.112 -27.877  1.00  0.00     0.164 C
HETATM    6  C5  UNL     1      23.937  -7.261 -26.688  1.00  0.00     0.266 A
HETATM    7  O2  UNL     1      24.193  -6.523 -25.702  1.00  0.00    -0.267 OA
HETATM    8  C6  UNL     1      22.942  -8.211 -26.575  1.00  0.00     0.096 A
HETATM    9  C7  UNL     1      22.127  -8.594 -25.567  1.00  0.00     0.088 A
HETATM   10  C9  UNL     1      21.317  -9.671 -26.056  1.00  0.00     0.074 A
HETATM   11  N9  UNL     1      21.663  -9.903 -27.328  1.00  0.00    -0.308 N
HETATM   12  C20 UNL     1      22.657  -9.035 -27.699  1.00  0.00     0.136 A
ENDROOT
BRANCH  10  13
HETATM   13  C10 UNL     1      20.414 -10.258 -25.125  1.00  0.00     0.131 C
BRANCH  13  14
HETATM   14  N4  UNL     1      20.335 -10.129 -23.716  1.00  0.00    -0.287 N
HETATM   15  C11 UNL     1      21.227 -10.754 -22.813  1.00  0.00     0.101 A
HETATM   16  C12 UNL     1      22.264 -11.523 -22.850  1.00  0.00     0.073 C
HETATM   17  S2  UNL     1      20.584 -10.163 -21.165  1.00  0.00     0.006 SA
HETATM   18  N7  UNL     1      19.322  -9.217 -21.842  1.00  0.00    -0.299 N
HETATM   19  C17 UNL     1      19.328  -9.303 -23.090  1.00  0.00     0.237 A
ATOM     20  H7  UNL     1      18.660  -8.662 -21.301  1.00  0.00     0.176 HD
BRANCH  16  21
HETATM   21  C13 UNL     1      23.008 -12.118 -23.906  1.00  0.00     0.088 A
HETATM   22  N5  UNL     1      22.893 -13.211 -24.617  1.00  0.00    -0.333 N
HETATM   23  C14 UNL     1      23.861 -13.368 -25.522  1.00  0.00     0.146 A
ATOM     24  H5  UNL     1      22.133 -13.881 -24.491  1.00  0.00     0.168 HD
HETATM   25  N6  UNL     1      24.664 -12.301 -25.389  1.00  0.00    -0.316 N
HETATM   26  C16 UNL     1      24.194 -11.508 -24.423  1.00  0.00     0.169 A
ATOM     27  H6  UNL     1      25.503 -12.122 -25.941  1.00  0.00     0.170 HD
BRANCH  23  28
HETATM   28  S1  UNL     1      24.052 -14.716 -26.661  1.00  0.00    -0.098 SA
HETATM   29  C15 UNL     1      22.644 -15.866 -26.569  1.00  0.00     0.099 C
ENDBRANCH  23  28
BRANCH  26  30
HETATM   30  O5  UNL     1      24.748 -10.311 -23.993  1.00  0.00    -0.344 OA
ATOM     31  H5  UNL     1      25.674 -10.100 -23.973  1.00  0.00     0.219 HD
ENDBRANCH  26  30
ENDBRANCH  16  21
BRANCH  19  32
HETATM   32  S3  UNL     1      18.122  -8.345 -24.014  1.00  0.00     0.290 S
HETATM   33  O6  UNL     1      16.795  -8.393 -23.310  1.00  0.00    -0.198 OA
HETATM   34  O7  UNL     1      18.025  -8.793 -25.428  1.00  0.00    -0.198 OA
BRANCH  32  35
HETATM   35  N8  UNL     1      18.609  -6.687 -24.045  1.00  0.00    -0.322 N
ATOM     36  H82 UNL     1      18.414  -6.014 -23.303  1.00  0.00     0.169 HD
ATOM     37  H81 UNL     1      19.113  -6.498 -24.911  1.00  0.00     0.169 HD
ENDBRANCH  32  35
ENDBRANCH  19  32
ENDBRANCH  13  14
ENDBRANCH  10  13
BRANCH   9  38
HETATM   38  C8  UNL     1      22.098  -8.099 -24.177  1.00  0.00     0.212 C
HETATM   39  O3  UNL     1      21.473  -6.840 -24.112  1.00  0.00    -0.644 OA
HETATM   40  O4  UNL     1      23.165  -8.186 -23.386  1.00  0.00    -0.644 OA
ENDBRANCH   9  38
BRANCH  11  41
HETATM   41  C18 UNL     1      21.133 -10.893 -28.175  1.00  0.00     0.089 C
BRANCH  41  42
HETATM   42  C19 UNL     1      21.553 -12.328 -27.956  1.00  0.00     0.210 C
BRANCH  42  43
HETATM   43  S4  UNL     1      21.489 -13.242 -29.484  1.00  0.00     0.106 S
HETATM   44  O8  UNL     1      20.912 -12.401 -30.567  1.00  0.00    -0.595 OA
HETATM   45  O9  UNL     1      22.929 -13.529 -29.865  1.00  0.00    -0.595 OA
HETATM   46  O10 UNL     1      20.713 -14.673 -29.254  1.00  0.00    -0.595 OA
ENDBRANCH  42  43
ENDBRANCH  41  42
ENDBRANCH  11  41
BRANCH   1  47
HETATM   47  C2  UNL     1      23.214  -9.646 -30.022  1.00  0.00     0.367 C
BRANCH  47  48
HETATM   48  N1  UNL     1      24.192 -10.728 -30.124  1.00  0.00    -0.063 N
HETATM   49  C1  UNL     1      24.478 -10.925 -31.524  1.00  0.00     0.269 C
ATOM     50  H12 UNL     1      23.890 -11.582 -29.656  1.00  0.00     0.278 HD
ATOM     51  H11 UNL     1      25.031 -10.560 -29.568  1.00  0.00     0.278 HD
ENDBRANCH  47  48
ENDBRANCH   1  47
TORSDOF 13
ENDMDL