MODEL 1
REMARK VINA RESULT: -9.956842688      0.000      0.000
REMARK  17 active torsions:
REMARK  status: ('A' for Active; 'I' for Inactive)
REMARK    1  A    between atoms: C3_3  and  C4_4
REMARK    2  A    between atoms: C5_5  and  C6_6
REMARK       I    between atoms: C6_6  and  N1_8
REMARK    3  A    between atoms: N1_8  and  C7_10
REMARK    4  A    between atoms: C9_12  and  C10_13
REMARK       I    between atoms: C10_13  and  N2_15
REMARK    5  A    between atoms: N2_15  and  C11_17
REMARK    6  A    between atoms: C15_27  and  O4_28
REMARK    7  A    between atoms: C16_30  and  C17_31
REMARK    8  A    between atoms: C17_31  and  O5_32
REMARK    9  A    between atoms: C18_34  and  O6_35
REMARK   10  A    between atoms: N8_40  and  C19_41
REMARK   11  A    between atoms: N12_48  and  C20_49
REMARK   12  A    between atoms: C20_49  and  O7_50
REMARK   13  A    between atoms: O7_50  and  C21_51
REMARK   14  A    between atoms: C21_51  and  C22_53
REMARK   15  A    between atoms: C22_53  and  O9_54
REMARK   16  A    between atoms: O9_54  and  S1_55
REMARK   17  A    between atoms: S1_55  and  N13_56
ROOT
HETATM    1  C6  UNL     1      22.592 -10.092 -18.876  1.00  0.00     0.245 C
HETATM    2  O1  UNL     1      22.903  -8.891 -18.993  1.00  0.00    -0.268 OA
HETATM    3  N1  UNL     1      22.087 -10.819 -19.967  1.00  0.00    -0.321 N
ATOM      4  H1  UNL     1      21.850 -11.798 -19.810  1.00  0.00     0.169 HD
ENDROOT
BRANCH   1   5
HETATM    5  C5  UNL     1      22.774 -10.723 -17.558  1.00  0.00     0.077 C
HETATM    6  C4  UNL     1      23.000 -10.075 -16.443  1.00  0.00     0.038 C
BRANCH   6   7
HETATM    7  C3  UNL     1      23.157 -10.869 -15.217  1.00  0.00     0.070 A
HETATM    8  C2  UNL     1      24.147 -10.691 -14.275  1.00  0.00     0.074 A
HETATM    9  C1  UNL     1      25.226  -9.678 -14.321  1.00  0.00     0.073 C
HETATM   10  N8  UNL     1      23.994 -11.592 -13.277  1.00  0.00    -0.070 N
HETATM   11  N7  UNL     1      22.932 -12.312 -13.595  1.00  0.00     0.000 NA
HETATM   12  N6  UNL     1      22.419 -11.890 -14.755  1.00  0.00    -0.281 N
ATOM     13  H6  UNL     1      21.598 -12.282 -15.216  1.00  0.00     0.184 HD
BRANCH  10  14
HETATM   14  C19 UNL     1      24.827 -11.710 -12.133  1.00  0.00     0.738 A
HETATM   15  N9  UNL     1      24.691 -11.072 -10.966  1.00  0.00    -0.113 N
HETATM   16  N10 UNL     1      25.644 -11.427 -10.137  1.00  0.00    -0.213 N
ATOM     17  H9  UNL     1      23.950 -10.405 -10.751  1.00  0.00     0.207 HD
HETATM   18  N11 UNL     1      26.385 -12.290 -10.781  1.00  0.00    -0.209 N
ATOM     19  H10 UNL     1      25.781 -11.095  -9.182  1.00  0.00     0.210 HD
HETATM   20  N12 UNL     1      25.936 -12.496 -11.987  1.00  0.00    -0.081 N
ATOM     21  H11 UNL     1      27.209 -12.745 -10.390  1.00  0.00     0.210 HD
BRANCH  20  22
HETATM   22  C20 UNL     1      26.476 -13.351 -13.014  1.00  0.00     0.348 C
BRANCH  22  23
HETATM   23  O7  UNL     1      27.209 -12.619 -13.937  1.00  0.00    -0.297 OA
BRANCH  23  24
HETATM   24  C21 UNL     1      26.992 -12.601 -15.291  1.00  0.00     0.285 C
HETATM   25  O8  UNL     1      25.917 -13.013 -15.780  1.00  0.00    -0.263 OA
BRANCH  24  26
HETATM   26  C22 UNL     1      28.046 -12.081 -16.221  1.00  0.00     0.302 C
BRANCH  26  27
HETATM   27  O9  UNL     1      27.511 -11.921 -17.512  1.00  0.00    -0.250 OA
BRANCH  27  28
HETATM   28  S1  UNL     1      28.729 -12.119 -18.649  1.00  0.00     0.356 S
HETATM   29  O10 UNL     1      28.951 -10.800 -19.317  1.00  0.00    -0.176 OA
HETATM   30  O11 UNL     1      29.967 -12.560 -17.905  1.00  0.00    -0.176 OA
BRANCH  28  31
HETATM   31  N13 UNL     1      28.316 -13.355 -19.785  1.00  0.00    -0.306 N
ATOM     32 2H13 UNL     1      27.810 -14.206 -19.537  1.00  0.00     0.171 HD
ATOM     33 1H13 UNL     1      28.646 -13.114 -20.719  1.00  0.00     0.171 HD
ENDBRANCH  28  31
ENDBRANCH  27  28
ENDBRANCH  26  27
ENDBRANCH  24  26
ENDBRANCH  23  24
ENDBRANCH  22  23
ENDBRANCH  20  22
ENDBRANCH  10  14
ENDBRANCH   6   7
ENDBRANCH   1   5
BRANCH   3  34
HETATM   34  C7  UNL     1      21.882 -10.302 -21.259  1.00  0.00     0.070 A
HETATM   35  C8  UNL     1      22.813 -10.134 -22.239  1.00  0.00     0.052 A
HETATM   36  C9  UNL     1      22.527  -9.614 -23.512  1.00  0.00     0.069 A
HETATM   37  C15 UNL     1      21.232  -9.256 -23.786  1.00  0.00     0.092 A
HETATM   38  C16 UNL     1      20.250  -9.402 -22.841  1.00  0.00     0.035 A
HETATM   39  C18 UNL     1      20.577  -9.920 -21.593  1.00  0.00     0.103 A
BRANCH  36  40
HETATM   40  C10 UNL     1      23.598  -9.478 -24.482  1.00  0.00     0.272 C
HETATM   41  O2  UNL     1      23.797 -10.323 -25.379  1.00  0.00    -0.267 OA
HETATM   42  N2  UNL     1      24.452  -8.344 -24.413  1.00  0.00    -0.155 N
ATOM     43  H2  UNL     1      25.162  -8.297 -23.681  1.00  0.00     0.187 HD
BRANCH  42  44
HETATM   44  C11 UNL     1      24.346  -7.368 -25.261  1.00  0.00     0.689 A
HETATM   45  N3  UNL     1      23.388  -6.442 -25.078  1.00  0.00    -0.178 N
HETATM   46  C12 UNL     1      23.250  -5.408 -25.948  1.00  0.00     0.137 A
ATOM     47  H3  UNL     1      22.760  -6.517 -24.278  1.00  0.00     0.185 HD
HETATM   48  N4  UNL     1      22.248  -4.423 -25.771  1.00  0.00    -0.082 NA
HETATM   49  C13 UNL     1      24.092  -5.303 -27.024  1.00  0.00     0.120 A
HETATM   50  C14 UNL     1      25.070  -6.265 -27.194  1.00  0.00     0.262 A
HETATM   51  O3  UNL     1      25.848  -6.183 -28.174  1.00  0.00    -0.268 OA
HETATM   52  N5  UNL     1      25.170  -7.267 -26.312  1.00  0.00    -0.156 N
ATOM     53  H5  UNL     1      25.895  -7.973 -26.444  1.00  0.00     0.187 HD
ENDBRANCH  42  44
ENDBRANCH  36  40
BRANCH  37  54
HETATM   54  O4  UNL     1      20.908  -8.745 -25.018  1.00  0.00    -0.359 OA
ATOM     55  H4  UNL     1      20.002  -8.551 -25.229  1.00  0.00     0.217 HD
ENDBRANCH  37  54
BRANCH  38  56
HETATM   56  C17 UNL     1      18.848  -9.025 -23.103  1.00  0.00     0.208 C
BRANCH  56  57
HETATM   57  O5  UNL     1      18.795  -7.744 -23.602  1.00  0.00    -0.396 OA
ATOM     58  H5  UNL     1      17.893  -7.503 -23.776  1.00  0.00     0.209 HD
ENDBRANCH  56  57
ENDBRANCH  38  56
BRANCH  39  59
HETATM   59  O6  UNL     1      19.575 -10.048 -20.686  1.00  0.00    -0.358 OA
ATOM     60  H6  UNL     1      18.714 -10.336 -20.963  1.00  0.00     0.217 HD
ENDBRANCH  39  59
ENDBRANCH   3  34
TORSDOF 17
ENDMDL