MODEL 4
REMARK VINA RESULT: -9.152939520      2.236      9.960
REMARK  15 active torsions:
REMARK  status: ('A' for Active; 'I' for Inactive)
REMARK    1  A    between atoms: C2_2  and  C3_3
REMARK    2  A    between atoms: C3_3  and  C4_4
REMARK    3  A    between atoms: C4_4  and  N1_5
REMARK    4  A    between atoms: N2_10  and  C8_11
REMARK    5  A    between atoms: C11_16  and  N3_17
REMARK       I    between atoms: N3_17  and  C12_18
REMARK    6  A    between atoms: N3_17  and  C13_21
REMARK    7  A    between atoms: C14_22  and  O5_23
REMARK    8  A    between atoms: C15_25  and  O6_26
REMARK    9  A    between atoms: C15_25  and  N4_28
REMARK   10  A    between atoms: N4_28  and  C16_31
REMARK   11  A    between atoms: C16_31  and  C17_32
REMARK   12  A    between atoms: C20_42  and  C21_43
REMARK   13  A    between atoms: C24_50  and  C25_51
REMARK   14  A    between atoms: C25_51  and  O8_52
REMARK   15  A    between atoms: N10_54  and  N11_56
ROOT
HETATM    1  N3  UNL     1      22.009 -10.849 -20.161  1.00  0.00    -0.298 N
HETATM    2  C12 UNL     1      21.500 -12.124 -20.419  1.00  0.00     0.287 C
HETATM    3  O3  UNL     1      21.084 -12.882 -19.444  1.00  0.00    -0.630 OA
HETATM    4  O4  UNL     1      21.360 -12.732 -21.645  1.00  0.00    -0.630 OA
ENDROOT
BRANCH   1   5
HETATM    5  C11 UNL     1      21.912 -10.395 -18.748  1.00  0.00     0.190 C
HETATM    6  S1  UNL     1      23.627  -9.861 -18.382  1.00  0.00    -0.081 SA
HETATM    7  C7  UNL     1      23.903 -10.156 -16.660  1.00  0.00     0.110 A
HETATM    8  C6  UNL     1      23.181 -11.139 -16.044  1.00  0.00     0.132 A
HETATM    9  N2  UNL     1      24.815  -9.462 -15.981  1.00  0.00    -0.292 N
HETATM   10  C5  UNL     1      23.443 -11.376 -14.694  1.00  0.00     0.281 A
HETATM   11  N12 UNL     1      22.207 -11.863 -16.760  1.00  0.00    -0.368 N
HETATM   12  N1  UNL     1      24.361 -10.683 -13.999  1.00  0.00    -0.264 N
HETATM   13  O1  UNL     1      22.773 -12.289 -14.113  1.00  0.00    -0.265 OA
HETATM   14  C10 UNL     1      25.036  -9.723 -14.678  1.00  0.00     0.332 A
HETATM   15  O2  UNL     1      25.901  -9.054 -14.059  1.00  0.00    -0.246 OA
HETATM   16  C24 UNL     1      21.342 -11.332 -17.796  1.00  0.00     0.192 C
ATOM     17  H12 UNL     1      22.101 -12.850 -16.528  1.00  0.00     0.161 HD
BRANCH  12  18
HETATM   18  C4  UNL     1      24.640 -10.944 -12.604  1.00  0.00     0.137 C
BRANCH  18  19
HETATM   19  C3  UNL     1      25.524 -12.114 -12.343  1.00  0.00     0.020 C
BRANCH  19  20
HETATM   20  C2  UNL     1      26.854 -11.557 -11.821  1.00  0.00    -0.003 C
HETATM   21  C1  UNL     1      27.951 -11.877 -12.814  1.00  0.00     0.005 C
ENDBRANCH  19  20
ENDBRANCH  18  19
ENDBRANCH  12  18
BRANCH  16  22
HETATM   22  C25 UNL     1      20.267 -10.607 -17.008  1.00  0.00     0.156 C
HETATM   23  N10 UNL     1      19.638  -9.596 -17.440  1.00  0.00    -0.288 N
ATOM     24  H10 UNL     1      19.838  -9.221 -18.367  1.00  0.00     0.188 HD
BRANCH  22  25
HETATM   25  O8  UNL     1      20.015 -11.141 -15.752  1.00  0.00    -0.347 OA
ATOM     26  H8  UNL     1      19.715 -10.509 -15.109  1.00  0.00     0.219 HD
ENDBRANCH  22  25
BRANCH  23  27
HETATM   27  N11 UNL     1      18.670  -9.001 -16.636  1.00  0.00    -0.343 N
ATOM     28 2H11 UNL     1      17.735  -9.406 -16.597  1.00  0.00     0.176 HD
ATOM     29 1H11 UNL     1      18.911  -8.169 -16.098  1.00  0.00     0.176 HD
ENDBRANCH  23  27
ENDBRANCH  16  22
BRANCH   9  30
HETATM   30  C8  UNL     1      25.567  -8.397 -16.667  1.00  0.00     0.130 C
HETATM   31  C9  UNL     1      24.797  -7.120 -16.431  1.00  0.00     0.027 C
ENDBRANCH   9  30
ENDBRANCH   1   5
BRANCH   1  32
HETATM   32  C13 UNL     1      22.738 -10.012 -21.036  1.00  0.00     0.191 A
HETATM   33  C14 UNL     1      23.875 -10.769 -21.721  1.00  0.00     0.211 A
HETATM   34  C15 UNL     1      22.894  -9.851 -22.445  1.00  0.00     0.277 A
BRANCH  33  35
HETATM   35  O5  UNL     1      23.864 -12.111 -21.836  1.00  0.00    -0.388 OA
ATOM     36  H5  UNL     1      23.096 -12.579 -22.142  1.00  0.00     0.210 HD
ENDBRANCH  33  35
BRANCH  34  37
HETATM   37  O6  UNL     1      23.474  -8.576 -22.832  1.00  0.00    -0.361 OA
ATOM     38  H6  UNL     1      23.533  -7.949 -22.121  1.00  0.00     0.212 HD
ENDBRANCH  34  37
BRANCH  34  39
HETATM   39  N4  UNL     1      22.256 -10.432 -23.570  1.00  0.00    -0.020 N
ATOM     40  H42 UNL     1      22.930 -10.645 -24.305  1.00  0.00     0.282 HD
ATOM     41  H41 UNL     1      21.934 -11.377 -23.361  1.00  0.00     0.282 HD
BRANCH  39  42
HETATM   42  C16 UNL     1      21.151  -9.598 -24.090  1.00  0.00     0.212 C
HETATM   43  C18 UNL     1      20.154  -9.571 -22.913  1.00  0.00     0.052 C
HETATM   44  C19 UNL     1      18.866  -8.895 -23.347  1.00  0.00     0.044 C
HETATM   45  C20 UNL     1      18.315  -9.601 -24.572  1.00  0.00     0.254 C
HETATM   46  N9  UNL     1      19.307  -9.472 -25.640  1.00  0.00    -0.061 N
HETATM   47  C23 UNL     1      20.473 -10.280 -25.238  1.00  0.00     0.280 C
ATOM     48  H92 UNL     1      18.943  -9.721 -26.559  1.00  0.00     0.278 HD
ATOM     49  H91 UNL     1      19.544  -8.503 -25.853  1.00  0.00     0.278 HD
BRANCH  42  50
HETATM   50  C17 UNL     1      21.519  -8.223 -24.363  1.00  0.00     0.148 A
HETATM   51  N5  UNL     1      21.123  -7.073 -23.743  1.00  0.00    -0.273 N
HETATM   52  N6  UNL     1      21.695  -6.023 -24.287  1.00  0.00    -0.225 N
ATOM     53  H5  UNL     1      20.469  -7.034 -22.962  1.00  0.00     0.189 HD
HETATM   54  N7  UNL     1      22.472  -6.478 -25.270  1.00  0.00    -0.005 NA
ATOM     55  H6  UNL     1      21.568  -5.049 -24.011  1.00  0.00     0.205 HD
HETATM   56  N8  UNL     1      22.366  -7.800 -25.316  1.00  0.00    -0.268 N
ATOM     57  H8  UNL     1      22.855  -8.405 -25.977  1.00  0.00     0.185 HD
ENDBRANCH  42  50
BRANCH  45  58
HETATM   58  C21 UNL     1      17.058  -8.968 -24.984  1.00  0.00     0.153 C
HETATM   59  C22 UNL     1      16.234  -8.119 -24.068  1.00  0.00     0.093 C
HETATM   60  O7  UNL     1      16.666  -9.145 -26.141  1.00  0.00    -0.296 OA
ENDBRANCH  45  58
ENDBRANCH  39  42
ENDBRANCH  34  39
ENDBRANCH   1  32
TORSDOF 15
ENDMDL