MODEL 2
REMARK VINA RESULT: -11.467923050      1.578      2.632
REMARK  10 active torsions:
REMARK  status: ('A' for Active; 'I' for Inactive)
REMARK    1  A    between atoms: C2_2  and  N1_3
REMARK    2  A    between atoms: C2_2  and  C17_40
REMARK    3  A    between atoms: N1_3  and  C3_5
REMARK    4  A    between atoms: C6_8  and  O1_9
REMARK    5  A    between atoms: O1_9  and  S1_10
REMARK    6  A    between atoms: C7_14  and  C8_15
REMARK    7  A    between atoms: C9_17  and  N2_18
REMARK    8  A    between atoms: C11_20  and  C12_21
REMARK    9  A    between atoms: C12_21  and  N3_22
REMARK   10  A    between atoms: C15_34  and  C16_35
REMARK       I    between atoms: C17_40  and  N11_42
ROOT
HETATM    1  C3  UNL     1      21.629  -8.778 -21.456  1.00  0.00     0.102 A
HETATM    2  C4  UNL     1      20.509  -9.409 -21.930  1.00  0.00     0.051 A
HETATM    3  C5  UNL     1      19.847 -10.339 -21.151  1.00  0.00     0.044 A
HETATM    4  C6  UNL     1      20.349 -10.612 -19.880  1.00  0.00     0.117 A
HETATM    5  C7  UNL     1      21.464  -9.986 -19.404  1.00  0.00     0.076 A
HETATM    6  N10 UNL     1      22.073  -9.092 -20.195  1.00  0.00    -0.342 N
ATOM      7  H10 UNL     1      22.907  -8.622 -19.844  1.00  0.00     0.167 HD
ENDROOT
BRANCH   5   8
HETATM    8  C8  UNL     1      21.996 -10.244 -18.078  1.00  0.00     0.189 C
HETATM    9  O5  UNL     1      23.373 -10.082 -17.936  1.00  0.00    -0.353 OA
HETATM   10  C9  UNL     1      23.470 -10.215 -16.531  1.00  0.00     0.246 C
HETATM   11  C14 UNL     1      22.577  -9.103 -16.084  1.00  0.00     0.072 C
HETATM   12  C15 UNL     1      21.428  -9.207 -17.089  1.00  0.00     0.114 C
BRANCH  10  13
HETATM   13  N2  UNL     1      24.808 -10.161 -16.046  1.00  0.00    -0.258 N
HETATM   14  C10 UNL     1      25.232 -10.627 -14.850  1.00  0.00     0.143 A
HETATM   15  C11 UNL     1      26.579 -10.403 -14.728  1.00  0.00     0.064 A
HETATM   16  N7  UNL     1      26.942  -9.792 -15.886  1.00  0.00    -0.287 N
HETATM   17  N8  UNL     1      25.860  -9.668 -16.640  1.00  0.00    -0.238 N
ATOM     18  H7  UNL     1      27.883  -9.482 -16.131  1.00  0.00     0.188 HD
ATOM     19  H8  UNL     1      25.850  -9.242 -17.567  1.00  0.00     0.208 HD
BRANCH  15  20
HETATM   20  C12 UNL     1      27.488 -10.738 -13.595  1.00  0.00     0.209 C
BRANCH  20  21
HETATM   21  N3  UNL     1      26.726 -10.779 -12.345  1.00  0.00    -0.246 N
HETATM   22  N4  UNL     1      26.034  -9.795 -11.795  1.00  0.00    -0.004 NA
HETATM   23  N5  UNL     1      25.490 -10.228 -10.672  1.00  0.00    -0.006 NA
HETATM   24  N6  UNL     1      25.832 -11.499 -10.492  1.00  0.00    -0.261 N
HETATM   25  C13 UNL     1      26.599 -11.842 -11.529  1.00  0.00     0.204 A
ATOM     26  H6  UNL     1      25.561 -12.097  -9.711  1.00  0.00     0.186 HD
HETATM   27  S2  UNL     1      27.257 -13.342 -11.729  1.00  0.00    -0.038 SA
ENDBRANCH  20  21
ENDBRANCH  15  20
ENDBRANCH  10  13
BRANCH  12  28
HETATM   28  C16 UNL     1      20.222  -9.820 -16.491  1.00  0.00     0.238 C
HETATM   29  N9  UNL     1      18.972  -9.169 -16.595  1.00  0.00    -0.062 NA
HETATM   30  O6  UNL     1      20.379 -10.935 -15.896  1.00  0.00    -0.276 OA
ENDBRANCH  12  28
ENDBRANCH   5   8
BRANCH   4  31
HETATM   31  O1  UNL     1      19.685 -11.534 -19.112  1.00  0.00    -0.212 OA
BRANCH  31  32
HETATM   32  S1  UNL     1      20.163 -13.162 -19.150  1.00  0.00     0.257 S
HETATM   33  O2  UNL     1      21.103 -13.450 -17.974  1.00  0.00    -0.572 OA
HETATM   34  O3  UNL     1      20.984 -13.481 -20.369  1.00  0.00    -0.572 OA
HETATM   35  O4  UNL     1      18.875 -14.221 -18.955  1.00  0.00    -0.572 OA
ENDBRANCH  31  32
ENDBRANCH   4  31
BRANCH   1  36
HETATM   36  N1  UNL     1      22.382  -7.820 -22.158  1.00  0.00    -0.363 N
ATOM     37  H1  UNL     1      22.526  -6.920 -21.702  1.00  0.00     0.162 HD
BRANCH  36  38
HETATM   38  C2  UNL     1      22.962  -7.994 -23.452  1.00  0.00     0.173 C
HETATM   39  C1  UNL     1      22.348  -9.164 -24.170  1.00  0.00     0.042 C
BRANCH  38  40
HETATM   40  C17 UNL     1      22.876  -6.773 -24.260  1.00  0.00     0.269 C
HETATM   41  O7  UNL     1      23.933  -6.425 -24.893  1.00  0.00    -0.269 OA
HETATM   42  N11 UNL     1      21.727  -5.943 -24.406  1.00  0.00    -0.167 N
HETATM   43  N12 UNL     1      20.597  -6.242 -23.814  1.00  0.00    -0.248 N
HETATM   44  C20 UNL     1      21.821  -4.806 -25.161  1.00  0.00     0.351 A
HETATM   45  C18 UNL     1      19.539  -5.404 -23.967  1.00  0.00     0.328 A
ATOM     46  H12 UNL     1      20.514  -7.087 -23.249  1.00  0.00     0.191 HD
HETATM   47  O8  UNL     1      18.463  -5.712 -23.388  1.00  0.00    -0.261 OA
HETATM   48  C19 UNL     1      19.654  -4.274 -24.726  1.00  0.00     0.319 A
HETATM   49  O9  UNL     1      18.644  -3.518 -24.844  1.00  0.00    -0.262 OA
HETATM   50  N13 UNL     1      20.807  -3.959 -25.337  1.00  0.00    -0.269 N
ATOM     51  H13 UNL     1      20.903  -3.117 -25.905  1.00  0.00     0.174 HD
HETATM   52  O10 UNL     1      22.914  -4.536 -25.724  1.00  0.00    -0.244 OA
ENDBRANCH  38  40
ENDBRANCH  36  38
ENDBRANCH   1  36
TORSDOF 10
ENDMDL