MODEL 5
REMARK VINA RESULT: -7.827662205      1.229      1.702
REMARK  16 active torsions:
REMARK  status: ('A' for Active; 'I' for Inactive)
REMARK    1  A    between atoms: C2_2  and  C3_4
REMARK    2  A    between atoms: C3_4  and  O2_5
REMARK    3  A    between atoms: C3_4  and  C4_7
REMARK    4  A    between atoms: C4_7  and  O3_8
REMARK    5  A    between atoms: C4_7  and  C5_10
REMARK    6  A    between atoms: C5_10  and  O4_11
REMARK    7  A    between atoms: C5_10  and  O12_44
REMARK    8  A    between atoms: O4_11  and  C6_12
REMARK    9  A    between atoms: C10_17  and  S1_18
REMARK   10  A    between atoms: S1_18  and  C11_19
REMARK   11  A    between atoms: C12_22  and  S2_23
REMARK   12  A    between atoms: S2_23  and  N2_24
REMARK   13  A    between atoms: C14_32  and  C15_33
REMARK   14  A    between atoms: C16_37  and  O10_38
REMARK   15  A    between atoms: C17_40  and  O11_42
REMARK   16  A    between atoms: O12_44  and  S4_45
ROOT
HETATM    1  C6  UNL     1      22.661 -10.712 -15.958  1.00  0.00     0.207 C
HETATM    2  C7  UNL     1      23.261 -10.252 -17.218  1.00  0.00     0.200 C
HETATM    3  O5  UNL     1      24.402 -10.051 -17.727  1.00  0.00    -0.375 OA
HETATM    4  C8  UNL     1      24.162 -10.048 -19.140  1.00  0.00     0.209 C
HETATM    5  C9  UNL     1      22.777  -9.697 -19.521  1.00  0.00     0.001 C
HETATM    6  C10 UNL     1      22.729  -9.059 -20.683  1.00  0.00     0.064 C
HETATM    7  C14 UNL     1      21.406  -9.887 -18.911  1.00  0.00     0.102 C
HETATM    8  N4  UNL     1      21.228  -9.658 -17.563  1.00  0.00    -0.211 NA
HETATM    9  C16 UNL     1      22.505  -8.939 -17.277  1.00  0.00     0.252 C
HETATM   10  C17 UNL     1      21.235 -10.472 -16.435  1.00  0.00     0.145 C
HETATM   11  C18 UNL     1      20.413 -11.715 -16.377  1.00  0.00     0.067 C
ENDROOT
BRANCH   1  12
HETATM   12  O4  UNL     1      23.074 -10.142 -14.825  1.00  0.00    -0.345 OA
BRANCH  12  13
HETATM   13  C5  UNL     1      24.091 -10.615 -14.092  1.00  0.00     0.313 C
BRANCH  13  14
HETATM   14  C4  UNL     1      23.761 -11.818 -13.293  1.00  0.00     0.210 C
BRANCH  14  15
HETATM   15  C3  UNL     1      24.405 -13.116 -13.727  1.00  0.00     0.220 C
BRANCH  15  16
HETATM   16  C2  UNL     1      25.884 -13.009 -13.883  1.00  0.00     0.154 C
HETATM   17  C1  UNL     1      26.544 -12.775 -15.196  1.00  0.00     0.093 C
HETATM   18  O1  UNL     1      26.592 -13.117 -12.908  1.00  0.00    -0.295 OA
ENDBRANCH  15  16
BRANCH  15  19
HETATM   19  O2  UNL     1      24.213 -13.971 -12.590  1.00  0.00    -0.385 OA
ATOM     20  H2  UNL     1      24.948 -14.573 -12.609  1.00  0.00     0.210 HD
ENDBRANCH  15  19
ENDBRANCH  14  15
BRANCH  14  21
HETATM   21  O3  UNL     1      24.208 -11.675 -11.947  1.00  0.00    -0.388 OA
ATOM     22  H3  UNL     1      24.949 -11.087 -12.031  1.00  0.00     0.210 HD
ENDBRANCH  14  21
ENDBRANCH  13  14
BRANCH  13  23
HETATM   23  O12 UNL     1      24.639  -9.690 -13.190  1.00  0.00    -0.221 OA
BRANCH  23  24
HETATM   24  S4  UNL     1      26.105  -9.088 -13.672  1.00  0.00     0.254 S
HETATM   25  O13 UNL     1      26.199  -7.661 -13.155  1.00  0.00    -0.572 OA
HETATM   26  O14 UNL     1      26.271  -9.117 -15.161  1.00  0.00    -0.572 OA
HETATM   27  O15 UNL     1      27.317  -9.997 -12.906  1.00  0.00    -0.572 OA
ENDBRANCH  23  24
ENDBRANCH  13  23
ENDBRANCH  12  13
ENDBRANCH   1  12
BRANCH  10  28
HETATM   28  O11 UNL     1      20.650  -9.657 -15.404  1.00  0.00    -0.373 OA
ATOM     29  H11 UNL     1      20.405  -8.855 -15.851  1.00  0.00     0.212 HD
ENDBRANCH  10  28
BRANCH   9  30
HETATM   30  O10 UNL     1      22.352  -8.295 -16.098  1.00  0.00    -0.284 OA
HETATM   31  S3  UNL     1      23.513  -7.069 -15.841  1.00  0.00     0.095 SA
ENDBRANCH   9  30
BRANCH   7  32
HETATM   32  C15 UNL     1      20.643 -10.919 -19.624  1.00  0.00     0.222 C
HETATM   33  O8  UNL     1      19.399 -11.007 -19.676  1.00  0.00    -0.643 OA
HETATM   34  O9  UNL     1      21.298 -11.948 -20.338  1.00  0.00    -0.643 OA
ENDBRANCH   7  32
BRANCH   6  35
HETATM   35  S1  UNL     1      21.241  -8.481 -21.455  1.00  0.00    -0.065 SA
BRANCH  35  36
HETATM   36  C11 UNL     1      21.645  -7.606 -22.984  1.00  0.00     0.149 A
HETATM   37  N1  UNL     1      22.547  -7.978 -23.906  1.00  0.00    -0.325 N
HETATM   38  C12 UNL     1      22.520  -7.038 -24.869  1.00  0.00     0.166 A
ATOM     39  H1  UNL     1      23.137  -8.809 -23.881  1.00  0.00     0.169 HD
HETATM   40  C13 UNL     1      21.587  -6.104 -24.501  1.00  0.00     0.134 A
HETATM   41  N3  UNL     1      21.041  -6.460 -23.321  1.00  0.00    -0.344 N
ATOM     42  H3  UNL     1      20.320  -5.964 -22.797  1.00  0.00     0.167 HD
BRANCH  38  43
HETATM   43  S2  UNL     1      23.500  -7.015 -26.327  1.00  0.00     0.273 S
HETATM   44  O6  UNL     1      24.912  -7.297 -25.971  1.00  0.00    -0.199 OA
HETATM   45  O7  UNL     1      22.934  -8.060 -27.246  1.00  0.00    -0.199 OA
BRANCH  43  46
HETATM   46  N2  UNL     1      23.292  -5.471 -27.067  1.00  0.00    -0.323 N
ATOM     47  H22 UNL     1      22.595  -5.243 -27.776  1.00  0.00     0.169 HD
ATOM     48  H21 UNL     1      23.987  -4.843 -26.665  1.00  0.00     0.169 HD
ENDBRANCH  43  46
ENDBRANCH  38  43
ENDBRANCH  35  36
ENDBRANCH   6  35
TORSDOF 16
ENDMDL