MODEL 3
REMARK VINA RESULT: -9.330138782      1.162      1.854
REMARK  16 active torsions:
REMARK  status: ('A' for Active; 'I' for Inactive)
REMARK    1  A    between atoms: C3_3  and  C4_4
REMARK    2  A    between atoms: C5_5  and  C6_6
REMARK    3  A    between atoms: C8_8  and  C9_9
REMARK    4  A    between atoms: C14_17  and  O3_18
REMARK    5  A    between atoms: C17_24  and  C18_25
REMARK    6  A    between atoms: C18_25  and  O6_26
REMARK    7  A    between atoms: C18_25  and  C19_28
REMARK    8  A    between atoms: C19_28  and  O7_29
REMARK    9  A    between atoms: C19_28  and  C20_31
REMARK   10  A    between atoms: C20_31  and  O8_32
REMARK   11  A    between atoms: C21_35  and  C22_36
REMARK   12  A    between atoms: C22_36  and  N2_37
REMARK   13  A    between atoms: C22_36  and  C23_41
REMARK   14  A    between atoms: C23_41  and  O11_43
REMARK   15  A    between atoms: O11_43  and  C24_44
REMARK   16  A    between atoms: C24_44  and  N3_45
ROOT
HETATM    1  C9  UNL     1      20.926 -11.040 -19.686  1.00  0.00     0.044 A
HETATM    2  C10 UNL     1      20.822 -12.357 -20.039  1.00  0.00     0.065 A
HETATM    3  C11 UNL     1      19.951 -13.252 -19.300  1.00  0.00     0.100 C
HETATM    4  N1  UNL     1      19.273 -13.983 -18.706  1.00  0.00    -0.191 NA
HETATM    5  C12 UNL     1      21.583 -12.889 -21.083  1.00  0.00     0.106 A
HETATM    6  C13 UNL     1      22.438 -12.026 -21.729  1.00  0.00     0.291 A
HETATM    7  O1  UNL     1      23.115 -12.551 -22.676  1.00  0.00    -0.260 OA
HETATM    8  O2  UNL     1      22.539 -10.783 -21.396  1.00  0.00    -0.251 OA
HETATM    9  C14 UNL     1      21.829 -10.274 -20.421  1.00  0.00     0.198 A
ENDROOT
BRANCH   1  10
HETATM   10  C8  UNL     1      20.111 -10.450 -18.646  1.00  0.00     0.024 C
HETATM   11  C6  UNL     1      20.405 -10.287 -17.402  1.00  0.00    -0.061 C
HETATM   12  C7  UNL     1      19.412  -9.639 -16.484  1.00  0.00     0.048 C
BRANCH  11  13
HETATM   13  C5  UNL     1      21.681 -10.689 -16.759  1.00  0.00     0.003 C
HETATM   14  C4  UNL     1      22.473  -9.834 -16.201  1.00  0.00    -0.015 C
BRANCH  14  15
HETATM   15  C3  UNL     1      23.732  -9.889 -15.524  1.00  0.00     0.063 C
HETATM   16  C2  UNL     1      24.981  -9.682 -16.294  1.00  0.00    -0.046 C
HETATM   17  C1  UNL     1      25.144  -9.015 -17.373  1.00  0.00     0.018 C
HETATM   18  C28 UNL     1      26.214 -10.265 -15.569  1.00  0.00     0.209 C
HETATM   19  C16 UNL     1      26.035  -9.827 -14.129  1.00  0.00     0.296 C
HETATM   20  O15 UNL     1      26.234 -11.602 -15.784  1.00  0.00    -0.344 OA
HETATM   21  O4  UNL     1      25.246  -8.705 -14.082  1.00  0.00    -0.357 OA
HETATM   22  O5  UNL     1      25.566 -10.785 -13.278  1.00  0.00    -0.326 OA
HETATM   23  C15 UNL     1      23.903  -8.845 -14.388  1.00  0.00     0.184 C
HETATM   24  C17 UNL     1      26.178 -12.022 -13.409  1.00  0.00     0.297 C
HETATM   25  O9  UNL     1      27.477 -11.923 -13.952  1.00  0.00    -0.326 OA
HETATM   26  C21 UNL     1      27.373 -12.230 -15.291  1.00  0.00     0.304 C
BRANCH  24  27
HETATM   27  C18 UNL     1      26.148 -12.890 -12.193  1.00  0.00     0.204 C
BRANCH  27  28
HETATM   28  O6  UNL     1      27.460 -12.738 -11.623  1.00  0.00    -0.388 OA
ATOM     29  H6  UNL     1      27.346 -12.989 -10.714  1.00  0.00     0.210 HD
ENDBRANCH  27  28
BRANCH  27  30
HETATM   30  C19 UNL     1      25.218 -12.490 -11.104  1.00  0.00     0.175 C
BRANCH  30  31
HETATM   31  O7  UNL     1      25.601 -11.367 -10.389  1.00  0.00    -0.391 OA
ATOM     32  H7  UNL     1      25.074 -11.181  -9.621  1.00  0.00     0.210 HD
ENDBRANCH  30  31
BRANCH  30  33
HETATM   33  C20 UNL     1      23.761 -12.573 -11.400  1.00  0.00     0.198 C
BRANCH  33  34
HETATM   34  O8  UNL     1      23.504 -13.626 -12.258  1.00  0.00    -0.398 OA
ATOM     35  H8  UNL     1      24.101 -13.605 -12.997  1.00  0.00     0.209 HD
ENDBRANCH  33  34
ENDBRANCH  30  33
ENDBRANCH  27  30
ENDBRANCH  24  27
BRANCH  26  36
HETATM   36  C22 UNL     1      28.575 -11.877 -16.107  1.00  0.00     0.337 C
BRANCH  36  37
HETATM   37  N2  UNL     1      28.705 -10.433 -16.118  1.00  0.00    -0.061 N
ATOM     38  H23 UNL     1      29.668 -10.125 -16.251  1.00  0.00     0.275 HD
ATOM     39  H22 UNL     1      28.307 -10.008 -16.956  1.00  0.00     0.275 HD
ATOM     40  H21 UNL     1      28.292 -10.070 -15.259  1.00  0.00     0.275 HD
ENDBRANCH  36  37
BRANCH  36  41
HETATM   41  C23 UNL     1      28.486 -12.370 -17.490  1.00  0.00     0.296 C
HETATM   42  O10 UNL     1      29.180 -13.355 -17.896  1.00  0.00    -0.263 OA
BRANCH  41  43
HETATM   43  O11 UNL     1      27.641 -11.765 -18.382  1.00  0.00    -0.299 OA
BRANCH  43  44
HETATM   44  C24 UNL     1      28.067 -11.027 -19.510  1.00  0.00     0.319 C
BRANCH  44  45
HETATM   45  N3  UNL     1      27.998 -11.913 -20.656  1.00  0.00    -0.228 N
HETATM   46  C25 UNL     1      26.864 -12.230 -21.298  1.00  0.00     0.336 A
HETATM   47  O12 UNL     1      25.791 -11.730 -20.886  1.00  0.00    -0.246 OA
HETATM   48  N4  UNL     1      26.808 -13.049 -22.357  1.00  0.00    -0.260 N
HETATM   49  C26 UNL     1      27.940 -13.601 -22.825  1.00  0.00     0.332 A
ATOM     50  H4  UNL     1      25.913 -13.252 -22.804  1.00  0.00     0.175 HD
HETATM   51  O13 UNL     1      27.920 -14.376 -23.818  1.00  0.00    -0.246 OA
HETATM   52  N5  UNL     1      29.087 -13.301 -22.202  1.00  0.00    -0.260 N
HETATM   53  C27 UNL     1      29.138 -12.482 -21.145  1.00  0.00     0.336 A
ATOM     54  H5  UNL     1      29.954 -13.712 -22.546  1.00  0.00     0.175 HD
HETATM   55  O14 UNL     1      30.240 -12.237 -20.602  1.00  0.00    -0.246 OA
ENDBRANCH  44  45
ENDBRANCH  43  44
ENDBRANCH  41  43
ENDBRANCH  36  41
ENDBRANCH  26  36
ENDBRANCH  14  15
ENDBRANCH  11  13
ENDBRANCH   1  10
BRANCH   9  56
HETATM   56  O3  UNL     1      21.937  -8.934 -20.061  1.00  0.00    -0.340 OA
ATOM     57  H3  UNL     1      21.309  -8.340 -20.455  1.00  0.00     0.220 HD
ENDBRANCH   9  56
TORSDOF 16
ENDMDL