MODEL 2
REMARK VINA RESULT: -9.843443124      3.373      8.917
REMARK  14 active torsions:
REMARK  status: ('A' for Active; 'I' for Inactive)
REMARK       I    between atoms: C2_2  and  N1_4
REMARK    1  A    between atoms: N1_4  and  C3_6
REMARK    2  A    between atoms: C3_6  and  C4_7
REMARK    3  A    between atoms: C3_6  and  C11_26
REMARK    4  A    between atoms: C4_7  and  N2_8
REMARK    5  A    between atoms: C5_9  and  C6_10
REMARK    6  A    between atoms: C8_16  and  N4_17
REMARK       I    between atoms: C11_26  and  N7_28
REMARK    7  A    between atoms: N7_28  and  C12_30
REMARK    8  A    between atoms: N11_37  and  C13_38
REMARK    9  A    between atoms: C16_41  and  O5_42
REMARK   10  A    between atoms: O5_42  and  S1_43
REMARK   11  A    between atoms: C17_47  and  C18_48
REMARK   12  A    between atoms: N14_53  and  C19_54
REMARK   13  A    between atoms: C19_54  and  C20_55
REMARK   14  A    between atoms: C20_55  and  O9_56
ROOT
HETATM    1  C12 UNL     1      19.981 -11.989 -19.415  1.00  0.00     0.724 A
HETATM    2  N8  UNL     1      19.229 -13.130 -19.708  1.00  0.00    -0.114 N
ATOM      3  H8  UNL     1      18.890 -13.393 -20.634  1.00  0.00     0.207 HD
HETATM    4  N9  UNL     1      19.034 -13.796 -18.622  1.00  0.00    -0.213 N
ATOM      5  H9  UNL     1      18.515 -14.671 -18.557  1.00  0.00     0.210 HD
HETATM    6  N10 UNL     1      19.598 -13.185 -17.622  1.00  0.00    -0.206 N
ATOM      7  H10 UNL     1      19.594 -13.497 -16.652  1.00  0.00     0.211 HD
HETATM    8  N11 UNL     1      20.189 -12.067 -18.090  1.00  0.00    -0.069 N
ENDROOT
BRANCH   1   9
HETATM    9  N7  UNL     1      20.331 -11.184 -20.276  1.00  0.00    -0.151 N
HETATM   10  C11 UNL     1      21.214 -10.432 -20.931  1.00  0.00     0.284 C
HETATM   11  O4  UNL     1      21.713  -9.413 -20.325  1.00  0.00    -0.265 OA
ATOM     12  H7  UNL     1      19.457 -10.975 -20.758  1.00  0.00     0.188 HD
BRANCH  10  13
HETATM   13  C3  UNL     1      21.651 -10.729 -22.331  1.00  0.00     0.099 C
BRANCH  13  14
HETATM   14  N1  UNL     1      23.076 -10.812 -22.518  1.00  0.00    -0.325 N
HETATM   15  C2  UNL     1      23.787 -12.072 -22.465  1.00  0.00     0.218 C
HETATM   16  C1  UNL     1      25.267 -12.099 -22.675  1.00  0.00     0.117 C
HETATM   17  O1  UNL     1      23.226 -13.169 -22.247  1.00  0.00    -0.274 OA
ATOM     18  H1  UNL     1      23.602  -9.956 -22.694  1.00  0.00     0.169 HD
ENDBRANCH  13  14
BRANCH  13  19
HETATM   19  C4  UNL     1      20.836 -10.254 -23.454  1.00  0.00     0.195 C
BRANCH  19  20
HETATM   20  N2  UNL     1      20.554  -8.871 -23.621  1.00  0.00    -0.306 N
HETATM   21  C5  UNL     1      21.303  -7.809 -23.732  1.00  0.00     0.188 A
HETATM   22  N3  UNL     1      20.490  -6.697 -23.890  1.00  0.00    -0.331 N
HETATM   23  C7  UNL     1      19.254  -7.109 -23.868  1.00  0.00     0.123 A
ATOM     24  H3  UNL     1      20.803  -5.733 -24.003  1.00  0.00     0.168 HD
HETATM   25  C8  UNL     1      18.007  -6.463 -23.965  1.00  0.00     0.131 A
HETATM   26  C10 UNL     1      19.238  -8.448 -23.702  1.00  0.00     0.141 A
HETATM   27  N5  UNL     1      16.881  -7.158 -23.892  1.00  0.00    -0.337 N
HETATM   28  C9  UNL     1      16.890  -8.494 -23.724  1.00  0.00     0.183 A
ATOM     29  H5  UNL     1      15.989  -6.670 -23.965  1.00  0.00     0.168 HD
HETATM   30  N6  UNL     1      18.055  -9.123 -23.633  1.00  0.00    -0.336 N
ATOM     31  H6  UNL     1      18.066 -10.135 -23.509  1.00  0.00     0.168 HD
BRANCH  21  32
HETATM   32  C6  UNL     1      22.766  -7.617 -23.656  1.00  0.00     0.245 C
HETATM   33  O2  UNL     1      23.332  -7.726 -22.491  1.00  0.00    -0.642 OA
HETATM   34  O3  UNL     1      23.624  -7.339 -24.664  1.00  0.00    -0.642 OA
ENDBRANCH  21  32
BRANCH  25  35
HETATM   35  N4  UNL     1      17.982  -5.190 -24.131  1.00  0.00    -0.383 N
ATOM     36  H42 UNL     1      17.324  -4.763 -24.784  1.00  0.00     0.157 HD
ATOM     37  H41 UNL     1      18.634  -4.612 -23.601  1.00  0.00     0.157 HD
ENDBRANCH  25  35
ENDBRANCH  19  20
ENDBRANCH  13  19
ENDBRANCH  10  13
ENDBRANCH   1   9
BRANCH   8  38
HETATM   38  C13 UNL     1      20.927 -11.174 -17.245  1.00  0.00     0.077 A
HETATM   39  C14 UNL     1      20.643  -9.827 -17.276  1.00  0.00     0.035 A
HETATM   40  C15 UNL     1      21.399  -8.930 -16.519  1.00  0.00     0.041 A
HETATM   41  C16 UNL     1      22.421  -9.444 -15.753  1.00  0.00     0.106 A
HETATM   42  C17 UNL     1      22.710 -10.770 -15.710  1.00  0.00     0.048 A
HETATM   43  C21 UNL     1      21.950 -11.670 -16.471  1.00  0.00     0.050 A
BRANCH  41  44
HETATM   44  O5  UNL     1      23.171  -8.514 -15.003  1.00  0.00    -0.213 OA
BRANCH  44  45
HETATM   45  S1  UNL     1      24.570  -7.825 -15.732  1.00  0.00     0.257 S
HETATM   46  O6  UNL     1      25.720  -8.204 -14.828  1.00  0.00    -0.572 OA
HETATM   47  O7  UNL     1      24.392  -6.330 -15.772  1.00  0.00    -0.572 OA
HETATM   48  O8  UNL     1      24.878  -8.423 -17.252  1.00  0.00    -0.572 OA
ENDBRANCH  44  45
ENDBRANCH  41  44
BRANCH  42  49
HETATM   49  C18 UNL     1      23.802 -11.316 -14.891  1.00  0.00     0.150 A
HETATM   50  N12 UNL     1      24.440 -12.499 -15.130  1.00  0.00    -0.268 N
HETATM   51  N13 UNL     1      25.358 -12.639 -14.175  1.00  0.00    -0.224 N
ATOM     52  H12 UNL     1      24.252 -13.150 -15.893  1.00  0.00     0.190 HD
HETATM   53  N14 UNL     1      25.325 -11.619 -13.366  1.00  0.00    -0.216 N
ATOM     54  H13 UNL     1      25.995 -13.430 -14.089  1.00  0.00     0.210 HD
HETATM   55  N15 UNL     1      24.362 -10.797 -13.804  1.00  0.00    -0.266 N
ATOM     56  H15 UNL     1      24.100  -9.911 -13.370  1.00  0.00     0.190 HD
BRANCH  53  57
HETATM   57  C19 UNL     1      26.167 -11.411 -12.217  1.00  0.00     0.197 C
BRANCH  57  58
HETATM   58  C20 UNL     1      25.784 -10.189 -11.404  1.00  0.00     0.187 C
BRANCH  58  59
HETATM   59  O9  UNL     1      26.143  -9.017 -12.057  1.00  0.00    -0.399 OA
ATOM     60  H9  UNL     1      25.400  -8.432 -12.147  1.00  0.00     0.209 HD
ENDBRANCH  58  59
ENDBRANCH  57  58
ENDBRANCH  53  57
ENDBRANCH  42  49
ENDBRANCH   8  38
TORSDOF 14
ENDMDL