MODEL 1
REMARK VINA RESULT: -10.882079173      0.000      0.000
REMARK  12 active torsions:
REMARK  status: ('A' for Active; 'I' for Inactive)
REMARK    1  A    between atoms: C2_2  and  C7_16
REMARK    2  A    between atoms: N1_3  and  O1_5
REMARK    3  A    between atoms: O1_5  and  C3_6
REMARK    4  A    between atoms: C3_6  and  C5_8
REMARK    5  A    between atoms: C3_6  and  C6_13
REMARK    6  A    between atoms: C5_8  and  S1_9
REMARK       I    between atoms: C7_16  and  N2_18
REMARK    7  A    between atoms: C8_20  and  C9_21
REMARK    8  A    between atoms: C9_21  and  N3_22
REMARK    9  A    between atoms: C10_25  and  C11_26
REMARK       I    between atoms: C11_26  and  N5_28
REMARK   10  A    between atoms: N5_28  and  C12_30
REMARK   11  A    between atoms: C14_34  and  N7_35
REMARK   12  A    between atoms: C15_40  and  N9_41
REMARK       I    between atoms: N10_44  and  C18_45
ROOT
HETATM    1  N3  UNL     1      23.807  -9.693 -17.697  1.00  0.00    -0.114 N
HETATM    2  N4  UNL     1      24.041  -9.934 -18.967  1.00  0.00    -0.262 N
ATOM      3  H4  UNL     1      24.949 -10.178 -19.361  1.00  0.00     0.189 HD
HETATM    4  C10 UNL     1      22.893  -9.811 -19.676  1.00  0.00     0.230 A
HETATM    5  N13 UNL     1      21.909  -9.481 -18.834  1.00  0.00    -0.044 N
HETATM    6  N14 UNL     1      20.632  -9.193 -18.647  1.00  0.00    -0.204 N
ATOM      7  H14 UNL     1      19.917  -9.159 -19.374  1.00  0.00     0.211 HD
HETATM    8  N15 UNL     1      20.440  -8.962 -17.380  1.00  0.00    -0.213 N
ATOM      9  H15 UNL     1      19.539  -8.718 -16.969  1.00  0.00     0.210 HD
HETATM   10  N16 UNL     1      21.554  -9.082 -16.698  1.00  0.00    -0.113 N
ATOM     11  H16 UNL     1      21.683  -8.954 -15.695  1.00  0.00     0.207 HD
HETATM   12  C21 UNL     1      22.496  -9.413 -17.614  1.00  0.00     0.739 A
ENDROOT
BRANCH   4  13
HETATM   13  C11 UNL     1      22.747 -10.023 -21.133  1.00  0.00     0.294 C
HETATM   14  O8  UNL     1      22.493 -11.216 -21.505  1.00  0.00    -0.264 OA
HETATM   15  N5  UNL     1      22.883  -8.944 -22.016  1.00  0.00    -0.316 N
ATOM     16  H5  UNL     1      23.082  -8.033 -21.603  1.00  0.00     0.169 HD
BRANCH  15  17
HETATM   17  C12 UNL     1      22.771  -8.998 -23.432  1.00  0.00     0.096 A
HETATM   18  C13 UNL     1      23.910  -9.313 -24.171  1.00  0.00     0.139 A
HETATM   19  N6  UNL     1      23.824  -9.239 -25.522  1.00  0.00    -0.200 N
HETATM   20  C14 UNL     1      22.701  -8.876 -26.161  1.00  0.00     0.677 A
ATOM     21  H6  UNL     1      24.649  -9.468 -26.077  1.00  0.00     0.183 HD
HETATM   22  N8  UNL     1      21.621  -8.579 -25.429  1.00  0.00    -0.175 N
HETATM   23  C15 UNL     1      21.599  -8.626 -24.059  1.00  0.00     0.147 A
ATOM     24  H8  UNL     1      20.768  -8.304 -25.916  1.00  0.00     0.186 HD
BRANCH  20  25
HETATM   25  N7  UNL     1      22.714  -8.830 -27.445  1.00  0.00    -0.234 N
ATOM     26  H72 UNL     1      23.574  -8.785 -27.993  1.00  0.00     0.174 HD
ATOM     27  H71 UNL     1      21.824  -8.840 -27.941  1.00  0.00     0.174 HD
ENDBRANCH  20  25
BRANCH  23  28
HETATM   28  N9  UNL     1      20.394  -8.386 -23.380  1.00  0.00    -0.362 N
HETATM   29  C16 UNL     1      19.766  -7.066 -23.663  1.00  0.00     0.144 C
HETATM   30  C17 UNL     1      18.599  -7.352 -24.580  1.00  0.00     0.145 C
HETATM   31  N10 UNL     1      17.903  -8.516 -24.092  1.00  0.00    -0.353 N
HETATM   32  C18 UNL     1      16.847  -9.015 -24.910  1.00  0.00     0.184 C
HETATM   33  C19 UNL     1      18.183  -9.180 -22.871  1.00  0.00     0.145 C
HETATM   34  N11 UNL     1      15.703  -9.298 -24.373  1.00  0.00    -0.374 N
HETATM   35  N12 UNL     1      17.048  -9.197 -26.301  1.00  0.00    -0.064 NA
ATOM     36 2H11 UNL     1      15.558  -9.167 -23.371  1.00  0.00     0.158 HD
ATOM     37 1H11 UNL     1      14.948  -9.655 -24.958  1.00  0.00     0.158 HD
HETATM   38  C20 UNL     1      19.656  -9.246 -22.514  1.00  0.00     0.144 C
ENDBRANCH  23  28
ENDBRANCH  15  17
ENDBRANCH   4  13
BRANCH   1  39
HETATM   39  C9  UNL     1      24.804  -9.762 -16.632  1.00  0.00     0.212 C
BRANCH  39  40
HETATM   40  C8  UNL     1      25.821  -8.713 -16.832  1.00  0.00     0.086 C
HETATM   41  N2  UNL     1      26.972  -8.950 -17.256  1.00  0.00    -0.334 N
HETATM   42  C7  UNL     1      27.449 -10.237 -17.594  1.00  0.00     0.269 C
ATOM     43  H2  UNL     1      27.611  -8.162 -17.365  1.00  0.00     0.168 HD
HETATM   44  O7  UNL     1      27.176 -10.709 -18.765  1.00  0.00    -0.266 OA
BRANCH  42  45
HETATM   45  C2  UNL     1      28.236 -11.067 -16.698  1.00  0.00     0.096 C
HETATM   46  C1  UNL     1      29.355 -11.868 -17.379  1.00  0.00     0.076 C
HETATM   47  N1  UNL     1      28.118 -11.179 -15.446  1.00  0.00    -0.264 N
ATOM     48  H1  UNL     1      28.790 -11.800 -14.993  1.00  0.00     0.194 HD
BRANCH  47  49
HETATM   49  O1  UNL     1      27.232 -10.594 -14.632  1.00  0.00    -0.257 OA
BRANCH  49  50
HETATM   50  C3  UNL     1      26.512 -11.302 -13.636  1.00  0.00     0.188 C
HETATM   51  C4  UNL     1      27.455 -11.603 -12.485  1.00  0.00     0.062 C
BRANCH  50  52
HETATM   52  C5  UNL     1      25.184 -10.814 -13.254  1.00  0.00     0.217 C
BRANCH  52  53
HETATM   53  S1  UNL     1      24.964  -9.152 -12.799  1.00  0.00     0.105 S
HETATM   54  O2  UNL     1      24.601  -8.978 -11.344  1.00  0.00    -0.595 OA
HETATM   55  O3  UNL     1      23.828  -8.590 -13.652  1.00  0.00    -0.595 OA
HETATM   56  O4  UNL     1      26.323  -8.244 -13.164  1.00  0.00    -0.595 OA
ENDBRANCH  52  53
ENDBRANCH  50  52
BRANCH  50  57
HETATM   57  C6  UNL     1      26.250 -12.683 -14.248  1.00  0.00     0.212 C
HETATM   58  O5  UNL     1      25.472 -12.861 -15.196  1.00  0.00    -0.646 OA
HETATM   59  O6  UNL     1      26.939 -13.728 -13.671  1.00  0.00    -0.646 OA
ENDBRANCH  50  57
ENDBRANCH  49  50
ENDBRANCH  47  49
ENDBRANCH  42  45
ENDBRANCH  39  40
ENDBRANCH   1  39
TORSDOF 12
ENDMDL