MODEL 1
REMARK VINA RESULT: -6.401244476      0.000      0.000
REMARK  15 active torsions:
REMARK  status: ('A' for Active; 'I' for Inactive)
REMARK    1  A    between atoms: C2_2  and  C3_3
REMARK    2  A    between atoms: C3_3  and  N1_4
REMARK    3  A    between atoms: C3_3  and  C4_8
REMARK       I    between atoms: C4_8  and  N2_10
REMARK    4  A    between atoms: N2_10  and  C5_12
REMARK    5  A    between atoms: C5_12  and  N3_13
REMARK    6  A    between atoms: C5_12  and  C6_17
REMARK    7  A    between atoms: C10_28  and  C11_29
REMARK    8  A    between atoms: C11_29  and  O3_31
REMARK    9  A    between atoms: C13_33  and  C14_34
REMARK   10  A    between atoms: C14_34  and  O4_35
REMARK   11  A    between atoms: O4_35  and  C15_36
REMARK   12  A    between atoms: C16_40  and  C17_41
REMARK   13  A    between atoms: C17_41  and  C18_42
REMARK   14  A    between atoms: C18_42  and  N8_43
REMARK   15  A    between atoms: S3_49  and  N11_50
ROOT
HETATM    1  C6  UNL     1      22.133  -9.819 -24.687  1.00  0.00     0.157 C
HETATM    2  N4  UNL     1      22.988  -8.723 -25.096  1.00  0.00    -0.296 N
HETATM    3  C7  UNL     1      23.580  -7.794 -24.207  1.00  0.00     0.174 C
HETATM    4  N5  UNL     1      23.662  -7.829 -22.875  1.00  0.00    -0.277 N
ATOM      5  H5  UNL     1      24.114  -7.086 -22.341  1.00  0.00     0.189 HD
HETATM    6  N6  UNL     1      23.105  -8.915 -22.273  1.00  0.00    -0.274 N
ATOM      7  H6  UNL     1      22.181  -8.562 -22.022  1.00  0.00     0.189 HD
HETATM    8  C8  UNL     1      23.056 -10.025 -21.868  1.00  0.00     0.218 C
HETATM    9  N7  UNL     1      24.088 -11.035 -21.918  1.00  0.00    -0.331 N
ATOM     10  H7  UNL     1      24.943 -10.877 -21.385  1.00  0.00     0.168 HD
HETATM   11  C9  UNL     1      23.972 -12.293 -22.705  1.00  0.00     0.074 C
HETATM   12  C10 UNL     1      25.078 -13.173 -22.604  1.00  0.00     0.081 C
HETATM   13  C13 UNL     1      24.829 -14.482 -22.754  1.00  0.00     0.032 C
HETATM   14  S1  UNL     1      23.070 -14.983 -23.011  1.00  0.00    -0.056 SA
HETATM   15  S2  UNL     1      22.294 -13.566 -24.368  1.00  0.00    -0.048 SA
HETATM   16  C16 UNL     1      23.330 -12.028 -24.085  1.00  0.00     0.176 C
HETATM   17  N9  UNL     1      22.334 -11.002 -24.066  1.00  0.00    -0.236 N
HETATM   18  N10 UNL     1      21.231 -11.382 -23.097  1.00  0.00    -0.232 N
ATOM     19  H10 UNL     1      20.475 -12.021 -23.343  1.00  0.00     0.199 HD
HETATM   20  S3  UNL     1      21.356 -10.684 -21.630  1.00  0.00     0.185 S
HETATM   21  O6  UNL     1      21.348 -11.693 -20.600  1.00  0.00    -0.219 OA
HETATM   22  S4  UNL     1      24.406  -6.385 -25.056  1.00  0.00    -0.018 SA
HETATM   23  S5  UNL     1      24.889  -7.622 -26.669  1.00  0.00    -0.064 SA
HETATM   24  C19 UNL     1      23.209  -8.377 -26.494  1.00  0.00     0.162 C
HETATM   25  C20 UNL     1      23.167  -9.288 -27.585  1.00  0.00     0.045 C
ENDROOT
BRANCH   1  26
HETATM   26  C5  UNL     1      20.996 -10.043 -25.723  1.00  0.00     0.354 C
BRANCH  26  27
HETATM   27  N2  UNL     1      19.760  -9.426 -25.321  1.00  0.00    -0.326 N
HETATM   28  C4  UNL     1      18.485  -9.625 -25.890  1.00  0.00     0.250 C
HETATM   29  O1  UNL     1      18.375 -10.425 -26.851  1.00  0.00    -0.271 OA
ATOM     30  H2  UNL     1      19.812  -8.774 -24.538  1.00  0.00     0.165 HD
BRANCH  28  31
HETATM   31  C3  UNL     1      17.262  -8.943 -25.420  1.00  0.00     0.274 C
BRANCH  31  32
HETATM   32  C2  UNL     1      16.045  -9.663 -25.974  1.00  0.00     0.038 C
HETATM   33  C1  UNL     1      14.904  -9.629 -24.984  1.00  0.00     0.007 C
ENDBRANCH  31  32
BRANCH  31  34
HETATM   34  N1  UNL     1      17.230  -9.037 -23.976  1.00  0.00    -0.067 N
ATOM     35  H13 UNL     1      18.161  -9.015 -23.561  1.00  0.00     0.275 HD
ATOM     36  H12 UNL     1      16.862  -8.193 -23.536  1.00  0.00     0.275 HD
ATOM     37  H11 UNL     1      16.706  -9.873 -23.719  1.00  0.00     0.275 HD
ENDBRANCH  31  34
ENDBRANCH  28  31
ENDBRANCH  26  27
BRANCH  26  38
HETATM   38  N3  UNL     1      20.677 -11.488 -25.559  1.00  0.00    -0.051 N
ATOM     39  H33 UNL     1      19.684 -11.707 -25.477  1.00  0.00     0.277 HD
ATOM     40  H32 UNL     1      20.831 -12.064 -26.387  1.00  0.00     0.277 HD
ATOM     41  H31 UNL     1      21.245 -11.734 -24.749  1.00  0.00     0.277 HD
ENDBRANCH  26  38
ENDBRANCH   1  26
BRANCH  16  42
HETATM   42  C17 UNL     1      24.321 -12.135 -25.120  1.00  0.00     0.041 C
BRANCH  42  43
HETATM   43  C18 UNL     1      24.322 -13.143 -26.146  1.00  0.00     0.080 C
BRANCH  43  44
HETATM   44  N8  UNL     1      25.352 -13.927 -26.264  1.00  0.00    -0.408 N
ATOM     45  H82 UNL     1      25.291 -14.744 -26.873  1.00  0.00     0.155 HD
ATOM     46  H81 UNL     1      26.203 -13.713 -25.746  1.00  0.00     0.155 HD
ENDBRANCH  43  44
ENDBRANCH  42  43
ENDBRANCH  16  42
BRANCH  20  47
HETATM   47  N11 UNL     1      20.261  -9.397 -21.474  1.00  0.00    -0.337 N
ATOM     48 2H11 UNL     1      20.364  -8.494 -21.938  1.00  0.00     0.167 HD
ATOM     49 1H11 UNL     1      19.498  -9.668 -20.854  1.00  0.00     0.167 HD
ENDBRANCH  20  47
BRANCH  12  50
HETATM   50  C11 UNL     1      26.441 -12.786 -22.358  1.00  0.00     0.296 C
HETATM   51  O2  UNL     1      27.367 -13.087 -23.196  1.00  0.00    -0.259 OA
BRANCH  50  52
HETATM   52  O3  UNL     1      26.934 -12.086 -21.267  1.00  0.00    -0.322 OA
HETATM   53  C12 UNL     1      27.945 -12.647 -20.470  1.00  0.00     0.213 C
ENDBRANCH  50  52
ENDBRANCH  12  50
BRANCH  13  54
HETATM   54  C14 UNL     1      25.763 -15.586 -22.700  1.00  0.00     0.225 C
BRANCH  54  55
HETATM   55  O4  UNL     1      26.086 -16.049 -24.034  1.00  0.00    -0.323 OA
BRANCH  55  56
HETATM   56  C15 UNL     1      27.377 -16.507 -24.215  1.00  0.00     0.398 C
HETATM   57  O5  UNL     1      28.277 -16.373 -23.354  1.00  0.00    -0.276 OA
ENDBRANCH  55  56
ENDBRANCH  54  55
ENDBRANCH  13  54
TORSDOF 15
ENDMDL