MODEL 4
REMARK VINA RESULT: -7.609002007      1.980      7.038
REMARK  2 active torsions:
REMARK  status: ('A' for Active; 'I' for Inactive)
REMARK    1  A    between atoms: C2_2  and  N1_3
REMARK    2  A    between atoms: N2_9  and  C8_10
ROOT
HETATM    1  N1  UNL     1     -10.741   3.400   8.831  1.00  0.00     0.090 N
HETATM    2  C3  UNL     1     -10.737   4.274   9.971  1.00  0.00     0.273 C
HETATM    3  C4  UNL     1     -11.702   5.402   9.898  1.00  0.00     0.040 C
HETATM    4  C5  UNL     1     -13.102   5.017   9.529  1.00  0.00    -0.028 C
HETATM    5  C6  UNL     1     -13.507   3.837  10.357  1.00  0.00     0.040 C
HETATM    6  C7  UNL     1     -14.960   3.461  10.219  1.00  0.00     0.273 C
HETATM    7  N2  UNL     1     -15.837   4.584  10.067  1.00  0.00     0.093 N
HETATM    8  C13 UNL     1     -15.236   5.738  10.656  1.00  0.00     0.273 C
HETATM    9  C14 UNL     1     -13.981   6.189   9.978  1.00  0.00     0.040 C
HETATM   10  C15 UNL     1     -13.362   4.808   8.091  1.00  0.00     0.052 C
HETATM   11  C16 UNL     1     -13.359   6.021   7.206  1.00  0.00     0.240 C
HETATM   12  N3  UNL     1     -12.591   5.259   6.225  1.00  0.00    -0.068 N
ATOM     13  H31 UNL     1     -11.809   5.693   5.736  1.00  0.00     0.277 HD
ATOM     14  H32 UNL     1     -13.007   5.009   5.328  1.00  0.00     0.277 HD
HETATM   15  C17 UNL     1     -12.347   4.228   7.238  1.00  0.00     0.220 C
HETATM   16  C18 UNL     1     -10.930   4.239   7.664  1.00  0.00     0.305 C
ENDROOT
BRANCH   1  17
HETATM   17  C2  UNL     1      -9.427   2.756   8.799  1.00  0.00     0.268 C
HETATM   18  C1  UNL     1      -9.614   1.345   8.358  1.00  0.00     0.037 C
ENDBRANCH   1  17
BRANCH   7  19
HETATM   19  C8  UNL     1     -17.098   4.322  10.733  1.00  0.00     0.223 C
HETATM   20  C9  UNL     1     -17.349   5.261  11.883  1.00  0.00     0.036 C
HETATM   21  C10 UNL     1     -18.846   5.112  12.112  1.00  0.00     0.002 C
HETATM   22  C11 UNL     1     -19.432   4.654  10.799  1.00  0.00     0.002 C
HETATM   23  C12 UNL     1     -18.288   4.537   9.826  1.00  0.00     0.036 C
ENDBRANCH   7  19
TORSDOF 2
ENDMDL