MODEL 5
REMARK VINA RESULT: -6.873383723      2.239      7.724
REMARK  3 active torsions:
REMARK  status: ('A' for Active; 'I' for Inactive)
REMARK    1  A    between atoms: C2_2  and  O1_3
REMARK    2  A    between atoms: N1_7  and  C5_8
REMARK       I    between atoms: N2_12  and  C9_13
REMARK    3  A    between atoms: C9_13  and  C10_15
ROOT
HETATM    1  C5  UNL     1     -15.490   4.463  10.444  1.00  0.00     0.241 C
HETATM    2  C6  UNL     1     -15.233   5.515   9.417  1.00  0.00     0.039 C
HETATM    3  C7  UNL     1     -13.832   6.083   9.673  1.00  0.00     0.022 C
HETATM    4  C8  UNL     1     -12.954   4.928  10.109  1.00  0.00     0.126 C
HETATM    5  N2  UNL     1     -13.419   3.669   9.607  1.00  0.00    -0.350 N
HETATM    6  C9  UNL     1     -12.654   2.902   8.726  1.00  0.00     0.224 C
HETATM    7  O2  UNL     1     -13.102   1.790   8.329  1.00  0.00    -0.273 OA
HETATM    8  C15 UNL     1     -14.736   3.210  10.050  1.00  0.00     0.161 C
ENDROOT
BRANCH   1   9
HETATM    9  N1  UNL     1     -16.856   4.202  10.734  1.00  0.00     0.095 N
HETATM   10  C4  UNL     1     -17.784   4.376   9.667  1.00  0.00     0.276 C
HETATM   11  C3  UNL     1     -18.962   3.454   9.941  1.00  0.00     0.067 C
HETATM   12  C2  UNL     1     -19.610   3.950  11.217  1.00  0.00     0.057 C
HETATM   13  C1  UNL     1     -20.964   4.534  10.808  1.00  0.00     0.045 C
HETATM   14  C17 UNL     1     -18.843   5.027  11.910  1.00  0.00     0.067 C
HETATM   15  C16 UNL     1     -17.354   4.767  11.943  1.00  0.00     0.276 C
BRANCH  12  16
HETATM   16  O1  UNL     1     -19.881   2.873  12.069  1.00  0.00    -0.390 OA
ATOM     17  H1  UNL     1     -19.099   2.333  12.080  1.00  0.00     0.210 HD
ENDBRANCH  12  16
ENDBRANCH   1   9
BRANCH   6  18
HETATM   18  C10 UNL     1     -11.338   3.363   8.249  1.00  0.00     0.078 C
HETATM   19  C11 UNL     1     -10.347   2.185   8.296  1.00  0.00     0.014 C
HETATM   20  C12 UNL     1      -9.270   2.669   7.363  1.00  0.00     0.001 C
HETATM   21  C13 UNL     1      -9.918   3.584   6.376  1.00  0.00     0.001 C
HETATM   22  C14 UNL     1     -11.398   3.672   6.766  1.00  0.00     0.014 C
ENDBRANCH   6  18
TORSDOF 3
ENDMDL