MODEL 5
REMARK VINA RESULT: -7.831332650      1.264      2.600
REMARK  2 active torsions:
REMARK  status: ('A' for Active; 'I' for Inactive)
REMARK    1  A    between atoms: C5_7  and  C6_8
REMARK       I    between atoms: C6_8  and  N3_10
REMARK    2  A    between atoms: N3_10  and  C7_12
ROOT
HETATM    1  N1  UNL     1     -21.213   4.172  10.258  1.00  0.00    -0.172 NA
HETATM    2  C1  UNL     1     -20.210   4.249  10.856  1.00  0.00     0.179 C
HETATM    3  N2  UNL     1     -19.022   4.360  11.558  1.00  0.00    -0.319 N
HETATM    4  C2  UNL     1     -19.015   4.917  12.879  1.00  0.00     0.134 C
HETATM    5  C3  UNL     1     -18.015   6.079  12.876  1.00  0.00     0.021 C
HETATM    6  C4  UNL     1     -16.680   5.552  12.400  1.00  0.00     0.017 C
HETATM    7  C5  UNL     1     -16.838   5.095  10.986  1.00  0.00     0.096 C
HETATM    8  C17 UNL     1     -17.786   3.920  10.974  1.00  0.00     0.148 C
ENDROOT
BRANCH   7   9
HETATM    9  C6  UNL     1     -15.539   4.774  10.326  1.00  0.00     0.224 C
HETATM   10  O1  UNL     1     -15.274   5.464   9.305  1.00  0.00    -0.273 OA
HETATM   11  N3  UNL     1     -14.673   3.766  10.820  1.00  0.00    -0.351 N
ATOM     12  H3  UNL     1     -14.972   3.258  11.652  1.00  0.00     0.163 HD
BRANCH  11  13
HETATM   13  C7  UNL     1     -13.416   3.402  10.246  1.00  0.00     0.034 C
HETATM   14  C8  UNL     1     -13.635   2.718   8.917  1.00  0.00     0.035 C
HETATM   15  C9  UNL     1     -12.308   2.444   8.242  1.00  0.00    -0.012 C
HETATM   16  C10 UNL     1     -11.551   1.484   9.127  1.00  0.00     0.009 C
HETATM   17  C14 UNL     1     -11.580   3.734   8.024  1.00  0.00     0.009 C
HETATM   18  C11 UNL     1     -11.307   2.180  10.452  1.00  0.00    -0.012 C
HETATM   19  C12 UNL     1     -10.477   3.414  10.209  1.00  0.00     0.009 C
HETATM   20  C16 UNL     1     -12.609   2.483  11.143  1.00  0.00     0.035 C
HETATM   21  C13 UNL     1     -11.267   4.369   9.362  1.00  0.00    -0.012 C
HETATM   22  C15 UNL     1     -12.567   4.651  10.059  1.00  0.00     0.035 C
ENDBRANCH  11  13
ENDBRANCH   7   9
TORSDOF 2
ENDMDL