MODEL 4
REMARK VINA RESULT: -7.113623969      1.408      2.683
REMARK  1 active torsions:
REMARK  status: ('A' for Active; 'I' for Inactive)
REMARK       I    between atoms: C1_2  and  N1_3
REMARK       I    between atoms: C1_2  and  N3_18
REMARK    1  A    between atoms: N1_3  and  N2_5
ROOT
HETATM    1  N2  UNL     1     -14.324   2.956   9.750  1.00  0.00    -0.304 N
ATOM      2  H2  UNL     1     -14.161   1.979   9.993  1.00  0.00     0.186 HD
HETATM    3  C2  UNL     1     -13.309   3.689   9.443  1.00  0.00     0.012 C
HETATM    4  C3  UNL     1     -11.941   3.177   9.432  1.00  0.00     0.033 C
HETATM    5  C4  UNL     1     -11.458   2.710   8.102  1.00  0.00     0.011 C
HETATM    6  C5  UNL     1     -11.933   3.471   6.929  1.00  0.00     0.005 C
HETATM    7  C6  UNL     1     -12.043   4.950   7.109  1.00  0.00    -0.013 C
HETATM    8  C7  UNL     1     -10.957   5.558   7.923  1.00  0.00     0.009 C
HETATM    9  C8  UNL     1     -11.204   5.566   9.395  1.00  0.00    -0.013 C
HETATM   10  C9  UNL     1     -10.951   4.204   9.996  1.00  0.00     0.015 C
HETATM   11  C10 UNL     1     -12.579   6.043   9.748  1.00  0.00     0.015 C
HETATM   12  C11 UNL     1     -13.574   5.106   9.094  1.00  0.00     0.034 C
HETATM   13  C12 UNL     1     -13.433   5.265   7.603  1.00  0.00     0.015 C
ENDROOT
BRANCH   1  14
HETATM   14  N1  UNL     1     -15.633   3.434   9.765  1.00  0.00    -0.252 N
HETATM   15  C1  UNL     1     -16.204   4.010  10.927  1.00  0.00     0.337 C
HETATM   16  O1  UNL     1     -15.493   4.086  11.977  1.00  0.00    -0.245 OA
HETATM   17  N3  UNL     1     -17.530   4.497  10.953  1.00  0.00    -0.329 N
HETATM   18  C13 UNL     1     -18.425   4.462   9.827  1.00  0.00     0.153 C
HETATM   19  C16 UNL     1     -18.063   5.084  12.185  1.00  0.00     0.153 C
HETATM   20  C14 UNL     1     -19.864   4.184  10.215  1.00  0.00     0.187 C
HETATM   21  O2  UNL     1     -20.235   4.760  11.407  1.00  0.00    -0.388 OA
HETATM   22  C15 UNL     1     -19.384   4.409  12.456  1.00  0.00     0.187 C
ATOM     23  H1  UNL     1     -16.195   3.367   8.917  1.00  0.00     0.191 HD
ENDBRANCH   1  14
TORSDOF 1
ENDMDL