MODEL 5
REMARK VINA RESULT: -7.425463429      5.481      7.614
REMARK  5 active torsions:
REMARK  status: ('A' for Active; 'I' for Inactive)
REMARK    1  A    between atoms: C5_6  and  O2_7
REMARK    2  A    between atoms: C5_6  and  C6_9
REMARK    3  A    between atoms: C7_10  and  C8_11
REMARK    4  A    between atoms: C8_11  and  C9_12
REMARK    5  A    between atoms: N1_15  and  C12_16
ROOT
HETATM    1  C9  UNL     1     -17.512   6.983  13.864  1.00  0.00     0.027 C
HETATM    2  C10 UNL     1     -16.328   6.856  12.953  1.00  0.00     0.037 C
HETATM    3  C11 UNL     1     -16.938   6.054  11.763  1.00  0.00     0.273 C
HETATM    4  N1  UNL     1     -17.667   5.059  12.453  1.00  0.00     0.093 N
HETATM    5  C18 UNL     1     -18.351   5.728  13.554  1.00  0.00     0.278 C
ENDROOT
BRANCH   1   6
HETATM    6  C8  UNL     1     -17.232   6.923  15.331  1.00  0.00     0.100 C
BRANCH   6   7
HETATM    7  C7  UNL     1     -18.167   7.736  16.073  1.00  0.00    -0.103 C
HETATM    8  C6  UNL     1     -18.919   8.408  16.724  1.00  0.00    -0.060 C
BRANCH   8   9
HETATM    9  C5  UNL     1     -19.841   9.212  17.578  1.00  0.00     0.181 C
HETATM   10  C1  UNL     1     -20.205   8.472  18.805  1.00  0.00     0.173 C
HETATM   11  O1  UNL     1     -19.464   7.765  19.439  1.00  0.00    -0.294 OA
HETATM   12  C2  UNL     1     -21.614   8.737  19.115  1.00  0.00     0.083 C
HETATM   13  C3  UNL     1     -22.252   8.973  17.781  1.00  0.00     0.012 C
HETATM   14  C4  UNL     1     -21.151   9.365  16.836  1.00  0.00     0.060 C
BRANCH   9  15
HETATM   15  O2  UNL     1     -19.305  10.437  17.853  1.00  0.00    -0.371 OA
ATOM     16  H2  UNL     1     -18.437  10.542  17.481  1.00  0.00     0.212 HD
ENDBRANCH   9  15
ENDBRANCH   8   9
ENDBRANCH   6   7
ENDBRANCH   1   6
BRANCH   4  17
HETATM   17  C12 UNL     1     -18.515   4.195  11.715  1.00  0.00     0.223 C
HETATM   18  C13 UNL     1     -19.867   4.038  12.413  1.00  0.00     0.036 C
HETATM   19  C14 UNL     1     -20.501   2.712  11.980  1.00  0.00     0.002 C
HETATM   20  C15 UNL     1     -20.294   2.606  10.485  1.00  0.00     0.000 C
HETATM   21  C16 UNL     1     -20.107   3.973   9.864  1.00  0.00     0.002 C
HETATM   22  C17 UNL     1     -18.801   4.609  10.296  1.00  0.00     0.036 C
ENDBRANCH   4  17
TORSDOF 5
ENDMDL