MODEL 1
REMARK VINA RESULT: -7.188674352      0.000      0.000
REMARK  2 active torsions:
REMARK  status: ('A' for Active; 'I' for Inactive)
REMARK    1  A    between atoms: C2_2  and  N1_3
REMARK       I    between atoms: N1_3  and  C3_5
REMARK       I    between atoms: C3_5  and  N2_7
REMARK    2  A    between atoms: N3_15  and  C10_16
ROOT
HETATM    1  N1  UNL     1     -11.885   2.806   9.878  1.00  0.00    -0.343 N
ATOM      2  H1  UNL     1     -11.635   3.424   9.105  1.00  0.00     0.164 HD
HETATM    3  C3  UNL     1     -13.058   3.043  10.612  1.00  0.00     0.318 C
HETATM    4  O1  UNL     1     -13.375   2.285  11.570  1.00  0.00    -0.247 OA
HETATM    5  N2  UNL     1     -13.969   4.137  10.340  1.00  0.00    -0.331 N
HETATM    6  C4  UNL     1     -13.499   4.912   9.240  1.00  0.00     0.129 C
HETATM    7  C5  UNL     1     -14.349   6.005   8.739  1.00  0.00     0.046 C
HETATM    8  C6  UNL     1     -14.874   6.959   9.749  1.00  0.00     0.170 C
HETATM    9  O2  UNL     1     -15.324   6.453  10.909  1.00  0.00    -0.376 OA
HETATM   10  C7  UNL     1     -16.017   5.307  10.968  1.00  0.00     0.097 C
HETATM   11  C8  UNL     1     -16.963   5.436  12.180  1.00  0.00     0.085 C
HETATM   12  C9  UNL     1     -18.134   4.534  11.862  1.00  0.00     0.062 C
HETATM   13  N3  UNL     1     -18.164   4.485  10.474  1.00  0.00    -0.386 N
HETATM   14  C15 UNL     1     -16.997   5.009   9.873  1.00  0.00     0.162 C
HETATM   15  C16 UNL     1     -15.088   4.162  11.231  1.00  0.00     0.167 C
ENDROOT
BRANCH  13  16
HETATM   16  C10 UNL     1     -19.269   4.130   9.733  1.00  0.00     0.083 C
HETATM   17  C11 UNL     1     -19.310   2.737   9.174  1.00  0.00     0.025 C
HETATM   18  C12 UNL     1     -19.910   1.845  10.239  1.00  0.00     0.002 C
HETATM   19  C13 UNL     1     -20.838   2.748  10.993  1.00  0.00     0.002 C
HETATM   20  C14 UNL     1     -20.518   4.160  10.606  1.00  0.00     0.025 C
ENDBRANCH  13  16
BRANCH   1  21
HETATM   21  C2  UNL     1     -11.031   1.694  10.215  1.00  0.00     0.120 C
HETATM   22  C1  UNL     1      -9.829   2.183  10.988  1.00  0.00     0.026 C
ENDBRANCH   1  21
TORSDOF 2
ENDMDL