MODEL 5
REMARK VINA RESULT: -7.005271799      1.717      2.162
REMARK  1 active torsions:
REMARK  status: ('A' for Active; 'I' for Inactive)
REMARK       I    between atoms: C1_2  and  N1_3
REMARK       I    between atoms: C1_2  and  N2_12
REMARK    1  A    between atoms: N2_12  and  C6_14
ROOT
HETATM    1  O1  UNL     1     -16.668   6.065  11.288  1.00  0.00    -0.247 OA
HETATM    2  C1  UNL     1     -16.401   5.320  10.311  1.00  0.00     0.321 C
HETATM    3  N1  UNL     1     -15.155   5.427   9.679  1.00  0.00    -0.303 N
ATOM      4  H1  UNL     1     -14.997   6.212   9.046  1.00  0.00     0.171 HD
HETATM    5  C2  UNL     1     -14.208   4.589   9.856  1.00  0.00     0.109 C
HETATM    6  C3  UNL     1     -14.295   3.415  10.736  1.00  0.00     0.071 C
HETATM    7  C4  UNL     1     -12.951   2.842  10.955  1.00  0.00     0.022 C
HETATM    8  C5  UNL     1     -12.141   2.936   9.696  1.00  0.00     0.147 C
HETATM    9  S1  UNL     1     -12.608   4.581   9.149  1.00  0.00     0.187 S
HETATM   10  O2  UNL     1     -12.653   4.651   7.657  1.00  0.00    -0.221 OA
HETATM   11  O3  UNL     1     -11.755   5.631   9.767  1.00  0.00    -0.221 OA
HETATM   12  N2  UNL     1     -17.351   4.378   9.851  1.00  0.00    -0.338 N
ATOM     13  H2  UNL     1     -17.132   3.774   9.059  1.00  0.00     0.164 HD
ENDROOT
BRANCH  12  14
HETATM   14  C6  UNL     1     -18.653   4.275  10.521  1.00  0.00     0.086 C
HETATM   15  C7  UNL     1     -19.557   3.336   9.800  1.00  0.00     0.025 C
HETATM   16  C8  UNL     1     -20.360   2.516  10.744  1.00  0.00     0.002 C
HETATM   17  C9  UNL     1     -20.809   3.234  11.996  1.00  0.00     0.000 C
HETATM   18  C10 UNL     1     -19.633   3.787  12.768  1.00  0.00     0.002 C
HETATM   19  C11 UNL     1     -18.381   3.798  11.907  1.00  0.00     0.025 C
ENDBRANCH  12  14
TORSDOF 1
ENDMDL