MODEL 3
REMARK VINA RESULT: -7.333117151      5.003      7.937
REMARK  2 active torsions:
REMARK  status: ('A' for Active; 'I' for Inactive)
REMARK       I    between atoms: C1_2  and  N1_3
REMARK    1  A    between atoms: C1_2  and  C10_13
REMARK    2  A    between atoms: N1_3  and  C2_5
ROOT
HETATM    1  O1  UNL     1     -16.982   4.988  13.241  1.00  0.00    -0.273 OA
HETATM    2  C1  UNL     1     -17.875   5.876  13.112  1.00  0.00     0.222 C
HETATM    3  N1  UNL     1     -18.949   5.682  12.240  1.00  0.00    -0.351 N
ATOM      4  H1  UNL     1     -19.633   6.438  12.182  1.00  0.00     0.163 HD
ENDROOT
BRANCH   2   5
HETATM    5  C10 UNL     1     -17.718   7.100  13.916  1.00  0.00     0.078 C
HETATM    6  C11 UNL     1     -16.295   7.575  14.017  1.00  0.00     0.019 C
HETATM    7  C12 UNL     1     -16.290   8.915  14.681  1.00  0.00     0.069 C
HETATM    8  C13 UNL     1     -17.067   8.984  15.949  1.00  0.00     0.164 C
HETATM    9  C14 UNL     1     -18.397   8.312  15.910  1.00  0.00     0.069 C
HETATM   10  O2  UNL     1     -16.308   8.520  17.019  1.00  0.00    -0.353 OA
HETATM   11  O3  UNL     1     -17.303  10.351  16.221  1.00  0.00    -0.353 OA
HETATM   12  C15 UNL     1     -18.234   6.922  15.327  1.00  0.00     0.019 C
HETATM   13  C16 UNL     1     -16.804   9.173  18.122  1.00  0.00     0.197 C
HETATM   14  C17 UNL     1     -17.227  10.504  17.581  1.00  0.00     0.197 C
ENDBRANCH   2   5
BRANCH   3  15
HETATM   15  C2  UNL     1     -19.189   4.539  11.424  1.00  0.00     0.037 C
HETATM   16  C3  UNL     1     -19.701   3.292  12.134  1.00  0.00     0.036 C
HETATM   17  C4  UNL     1     -20.430   2.579  11.029  1.00  0.00    -0.011 C
HETATM   18  C5  UNL     1     -19.466   2.298   9.895  1.00  0.00     0.010 C
HETATM   19  C9  UNL     1     -21.195   3.749  10.389  1.00  0.00     0.012 C
HETATM   20  C6  UNL     1     -19.033   3.711   9.517  1.00  0.00    -0.005 C
HETATM   21  C7  UNL     1     -17.998   4.156  10.529  1.00  0.00     0.036 C
HETATM   22  C8  UNL     1     -19.999   4.660  10.192  1.00  0.00     0.018 C
ENDBRANCH   3  15
TORSDOF 2
ENDMDL