MODEL 4
REMARK VINA RESULT: -5.808203840      2.218      4.824
REMARK  3 active torsions:
REMARK  status: ('A' for Active; 'I' for Inactive)
REMARK    1  A    between atoms: C2_2  and  N1_3
REMARK    2  A    between atoms: N2_6  and  C5_7
REMARK    3  A    between atoms: C12_14  and  N3_16
ROOT
HETATM    1  C5  UNL     1     -13.019   4.283   9.535  1.00  0.00     0.009 C
HETATM    2  C6  UNL     1     -12.500   5.600   9.109  1.00  0.00    -0.004 C
HETATM    3  C7  UNL     1     -13.252   6.335   8.044  1.00  0.00     0.021 C
HETATM    4  C8  UNL     1     -12.225   6.602  10.206  1.00  0.00     0.021 C
HETATM    5  C9  UNL     1     -11.107   5.188   8.575  1.00  0.00     0.004 C
HETATM    6  C10 UNL     1     -10.125   4.914   9.650  1.00  0.00     0.008 C
HETATM    7  C11 UNL     1     -10.171   3.603  10.310  1.00  0.00     0.040 C
HETATM    8  C12 UNL     1     -11.172   2.612   9.822  1.00  0.00     0.133 C
HETATM    9  C13 UNL     1     -11.973   2.107  11.036  1.00  0.00     0.047 C
HETATM   10  C14 UNL     1     -12.220   3.196   8.888  1.00  0.00     0.032 C
HETATM   11  C15 UNL     1     -12.958   2.097   8.231  1.00  0.00     0.025 C
HETATM   12  C16 UNL     1     -11.470   3.957   7.819  1.00  0.00     0.003 C
HETATM   13  C17 UNL     1     -10.322   3.240   7.203  1.00  0.00     0.011 C
ENDROOT
BRANCH   1  14
HETATM   14  N2  UNL     1     -14.384   4.080   9.765  1.00  0.00    -0.352 N
HETATM   15  C4  UNL     1     -14.779   3.474  10.986  1.00  0.00     0.143 C
HETATM   16  C3  UNL     1     -15.924   4.339  11.445  1.00  0.00     0.116 C
HETATM   17  N1  UNL     1     -16.319   5.140  10.340  1.00  0.00    -0.278 NA
HETATM   18  C18 UNL     1     -15.360   4.941   9.276  1.00  0.00     0.153 C
BRANCH  17  19
HETATM   19  C2  UNL     1     -17.686   5.062   9.957  1.00  0.00     0.091 C
HETATM   20  C1  UNL     1     -18.646   4.713  11.061  1.00  0.00     0.021 C
ENDBRANCH  17  19
ENDBRANCH   1  14
BRANCH   8  21
HETATM   21  N3  UNL     1     -10.573   1.432   9.253  1.00  0.00    -0.070 N
ATOM     22  H33 UNL     1     -10.657   1.437   8.236  1.00  0.00     0.275 HD
ATOM     23  H32 UNL     1      -9.556   1.464   9.338  1.00  0.00     0.275 HD
ATOM     24  H31 UNL     1     -10.943   0.565   9.643  1.00  0.00     0.275 HD
ENDBRANCH   8  21
TORSDOF 3
ENDMDL