MODEL 3
REMARK VINA RESULT: -7.416145907      1.531      2.216
REMARK  4 active torsions:
REMARK  status: ('A' for Active; 'I' for Inactive)
REMARK    1  A    between atoms: C4_4  and  C5_5
REMARK    2  A    between atoms: C5_5  and  N1_6
REMARK    3  A    between atoms: N2_13  and  C12_14
REMARK    4  A    between atoms: C12_14  and  C13_15
ROOT
HETATM    1  N1  UNL     1     -15.643   4.804  10.507  1.00  0.00    -0.372 N
HETATM    2  C6  UNL     1     -15.458   5.632   9.428  1.00  0.00     0.063 C
HETATM    3  C7  UNL     1     -14.078   5.720   8.835  1.00  0.00     0.046 C
HETATM    4  C8  UNL     1     -13.055   4.821   9.414  1.00  0.00     0.022 C
HETATM    5  C9  UNL     1     -13.665   3.516   9.780  1.00  0.00     0.010 C
HETATM    6  C10 UNL     1     -14.163   2.829   8.543  1.00  0.00     0.037 C
HETATM    7  C11 UNL     1     -12.821   2.260   8.023  1.00  0.00     0.128 C
HETATM    8  N2  UNL     1     -12.006   2.089   9.126  1.00  0.00    -0.373 N
HETATM    9  C18 UNL     1     -12.644   2.557  10.283  1.00  0.00     0.074 C
HETATM   10  C19 UNL     1     -14.707   3.795  10.826  1.00  0.00     0.142 C
ENDROOT
BRANCH   8  11
HETATM   11  C12 UNL     1     -10.873   1.310   9.149  1.00  0.00     0.068 C
BRANCH  11  12
HETATM   12  C13 UNL     1      -9.775   1.814   8.221  1.00  0.00     0.027 C
HETATM   13  C14 UNL     1      -9.236   3.144   8.721  1.00  0.00     0.037 C
HETATM   14  C15 UNL     1      -8.000   2.906   9.595  1.00  0.00     0.233 C
HETATM   15  N3  UNL     1      -6.936   2.431   8.769  1.00  0.00    -0.075 N
HETATM   16  C16 UNL     1      -7.354   1.486   7.773  1.00  0.00     0.233 C
ATOM     17  H32 UNL     1      -6.440   3.211   8.338  1.00  0.00     0.277 HD
ATOM     18  H31 UNL     1      -6.184   2.044   9.339  1.00  0.00     0.277 HD
HETATM   19  C17 UNL     1      -8.668   0.819   8.076  1.00  0.00     0.037 C
ENDBRANCH  11  12
ENDBRANCH   8  11
BRANCH   1  20
HETATM   20  C5  UNL     1     -16.930   4.392  10.857  1.00  0.00     0.067 C
BRANCH  20  21
HETATM   21  C4  UNL     1     -18.113   4.824  10.089  1.00  0.00     0.024 C
HETATM   22  C3  UNL     1     -19.179   5.570  10.788  1.00  0.00     0.010 C
HETATM   23  C2  UNL     1     -20.529   4.856  10.629  1.00  0.00     0.001 C
HETATM   24  C1  UNL     1     -20.835   4.908   9.159  1.00  0.00     0.000 C
HETATM   25  C21 UNL     1     -19.845   4.016   8.462  1.00  0.00     0.001 C
HETATM   26  C20 UNL     1     -18.678   3.633   9.291  1.00  0.00     0.010 C
ENDBRANCH  20  21
ENDBRANCH   1  20
TORSDOF 4
ENDMDL