MODEL 1
REMARK VINA RESULT: -8.301752445      0.000      0.000
REMARK  7 active torsions:
REMARK  status: ('A' for Active; 'I' for Inactive)
REMARK    1  A    between atoms: C5_5  and  O1_6
REMARK    2  A    between atoms: O1_6  and  C6_7
REMARK       I    between atoms: C6_7  and  N1_9
REMARK    3  A    between atoms: N1_9  and  C7_11
REMARK    4  A    between atoms: C7_11  and  C9_13
REMARK    5  A    between atoms: N2_16  and  C12_17
REMARK    6  A    between atoms: C12_17  and  O3_18
REMARK    7  A    between atoms: C12_17  and  C13_20
ROOT
HETATM    1  C7  UNL     1     -15.856   4.837  10.392  1.00  0.00     0.086 C
HETATM    2  C8  UNL     1     -15.784   6.130   9.630  1.00  0.00     0.032 C
ENDROOT
BRANCH   1   3
HETATM    3  N1  UNL     1     -15.216   3.820   9.591  1.00  0.00    -0.332 N
HETATM    4  C6  UNL     1     -14.171   3.027  10.088  1.00  0.00     0.361 C
HETATM    5  O2  UNL     1     -13.780   3.213  11.271  1.00  0.00    -0.238 OA
ATOM      6  H1  UNL     1     -15.535   3.672   8.633  1.00  0.00     0.165 HD
BRANCH   4   7
HETATM    7  O1  UNL     1     -13.518   2.046   9.390  1.00  0.00    -0.299 OA
BRANCH   7   8
HETATM    8  C5  UNL     1     -12.403   2.225   8.587  1.00  0.00     0.133 C
HETATM    9  C4  UNL     1     -11.183   1.750   9.366  1.00  0.00     0.033 C
HETATM   10  C3  UNL     1     -10.031   1.685   8.417  1.00  0.00     0.007 C
HETATM   11  C2  UNL     1      -9.785   3.031   7.775  1.00  0.00    -0.019 C
HETATM   12  C1  UNL     1      -9.200   4.033   8.753  1.00  0.00     0.010 C
HETATM   13  C19 UNL     1     -11.018   3.571   7.096  1.00  0.00     0.007 C
HETATM   14  C18 UNL     1     -12.212   3.605   8.043  1.00  0.00     0.033 C
ENDBRANCH   7   8
ENDBRANCH   4   7
ENDBRANCH   1   3
BRANCH   1  15
HETATM   15  C9  UNL     1     -17.275   4.437  10.715  1.00  0.00     0.011 C
HETATM   16  C10 UNL     1     -17.714   4.866  12.073  1.00  0.00     0.026 C
HETATM   17  C11 UNL     1     -18.989   4.155  12.433  1.00  0.00     0.125 C
HETATM   18  N2  UNL     1     -19.794   4.020  11.178  1.00  0.00    -0.365 N
HETATM   19  C16 UNL     1     -19.618   5.123  10.279  1.00  0.00     0.125 C
HETATM   20  C17 UNL     1     -18.214   5.054   9.704  1.00  0.00     0.026 C
BRANCH  18  21
HETATM   21  C12 UNL     1     -20.596   2.875  11.023  1.00  0.00     0.117 C
BRANCH  21  22
HETATM   22  O3  UNL     1     -21.170   2.503  12.143  1.00  0.00    -0.349 OA
ATOM     23  H3  UNL     1     -20.888   1.643  12.432  1.00  0.00     0.219 HD
ENDBRANCH  21  22
BRANCH  21  24
HETATM   24  C13 UNL     1     -20.906   2.039   9.892  1.00  0.00     0.060 A
HETATM   25  C14 UNL     1     -21.264   0.587  10.108  1.00  0.00     0.013 A
HETATM   26  C15 UNL     1     -20.036   0.982   9.321  1.00  0.00     0.013 A
ENDBRANCH  21  24
ENDBRANCH  18  21
ENDBRANCH   1  15
TORSDOF 7
ENDMDL