MODEL 2
REMARK VINA RESULT: -6.560900432      0.935      1.425
REMARK  5 active torsions:
REMARK  status: ('A' for Active; 'I' for Inactive)
REMARK    1  A    between atoms: C2_2  and  C3_3
REMARK    2  A    between atoms: C3_3  and  C5_5
REMARK    3  A    between atoms: C5_5  and  C6_6
REMARK    4  A    between atoms: C6_6  and  C7_7
REMARK    5  A    between atoms: C18_20  and  C19_21
ROOT
HETATM    1  C7  UNL     1     -14.888   5.610  10.335  1.00  0.00    -0.065 C
HETATM    2  C8  UNL     1     -15.229   6.996  10.054  1.00  0.00     0.036 C
HETATM    3  C9  UNL     1     -14.164   8.040  10.400  1.00  0.00     0.014 C
HETATM    4  C10 UNL     1     -14.197   9.137   9.356  1.00  0.00     0.074 C
HETATM    5  S1  UNL     1     -12.524   9.569   8.813  1.00  0.00    -0.164 SA
HETATM    6  C11 UNL     1     -12.117   8.977   7.175  1.00  0.00     0.118 C
HETATM    7  C12 UNL     1     -11.019   7.961   7.129  1.00  0.00     0.078 C
HETATM    8  N1  UNL     1     -11.298   6.646   7.468  1.00  0.00    -0.353 N
HETATM    9  C13 UNL     1     -11.052   6.190   8.777  1.00  0.00     0.068 C
HETATM   10  C14 UNL     1     -11.922   5.070   9.265  1.00  0.00     0.051 C
HETATM   11  C15 UNL     1     -13.183   4.820   8.561  1.00  0.00     0.013 C
HETATM   12  C16 UNL     1     -13.435   5.668   7.313  1.00  0.00     0.051 C
HETATM   13  C17 UNL     1     -12.094   5.849   6.629  1.00  0.00     0.068 C
HETATM   14  C18 UNL     1     -14.436   4.656   9.326  1.00  0.00     0.120 C
ENDROOT
BRANCH   1  15
HETATM   15  C6  UNL     1     -15.788   4.926  11.261  1.00  0.00     0.004 C
BRANCH  15  16
HETATM   16  C5  UNL     1     -16.809   5.073  11.978  1.00  0.00     0.007 C
BRANCH  16  17
HETATM   17  C3  UNL     1     -17.755   5.923  12.612  1.00  0.00    -0.063 C
HETATM   18  C4  UNL     1     -19.028   5.790  12.005  1.00  0.00     0.048 C
BRANCH  17  19
HETATM   19  C2  UNL     1     -17.808   6.897  13.618  1.00  0.00    -0.004 C
HETATM   20  C1  UNL     1     -16.948   7.599  14.250  1.00  0.00     0.012 C
ENDBRANCH  17  19
ENDBRANCH  16  17
ENDBRANCH  15  16
ENDBRANCH   1  15
BRANCH  14  21
HETATM   21  C19 UNL     1     -14.465   3.281   9.890  1.00  0.00     0.181 C
HETATM   22  O1  UNL     1     -15.181   2.429   9.286  1.00  0.00    -0.647 OA
HETATM   23  O2  UNL     1     -13.744   2.945  11.025  1.00  0.00    -0.647 OA
ENDBRANCH  14  21
TORSDOF 5
ENDMDL