MODEL 2
REMARK VINA RESULT: -7.427247669      7.245     10.905
REMARK  4 active torsions:
REMARK  status: ('A' for Active; 'I' for Inactive)
REMARK       I    between atoms: C1_2  and  N1_3
REMARK    1  A    between atoms: C1_2  and  C14_19
REMARK    2  A    between atoms: N1_3  and  C2_5
REMARK       I    between atoms: N2_8  and  C5_9
REMARK    3  A    between atoms: C5_9  and  C6_11
REMARK    4  A    between atoms: C6_11  and  C7_12
ROOT
HETATM    1  C2  UNL     1     -17.856   7.349  14.248  1.00  0.00     0.087 C
HETATM    2  C3  UNL     1     -16.383   7.368  13.861  1.00  0.00     0.045 C
HETATM    3  C4  UNL     1     -16.287   7.272  12.349  1.00  0.00     0.127 C
HETATM    4  N2  UNL     1     -17.034   6.081  11.914  1.00  0.00    -0.352 N
HETATM    5  C5  UNL     1     -17.148   5.811  10.523  1.00  0.00     0.220 C
HETATM    6  O2  UNL     1     -16.610   6.593   9.697  1.00  0.00    -0.273 OA
HETATM    7  C12 UNL     1     -17.598   5.265  12.951  1.00  0.00     0.127 C
HETATM    8  C13 UNL     1     -18.503   6.070  13.840  1.00  0.00     0.045 C
ENDROOT
BRANCH   1   9
HETATM    9  N1  UNL     1     -18.023   7.640  15.644  1.00  0.00    -0.352 N
HETATM   10  C1  UNL     1     -18.693   8.767  16.148  1.00  0.00     0.248 C
HETATM   11  O1  UNL     1     -19.164   9.562  15.253  1.00  0.00    -0.268 OA
ATOM     12  H1  UNL     1     -17.627   6.982  16.316  1.00  0.00     0.163 HD
BRANCH  10  13
HETATM   13  C14 UNL     1     -18.896   9.109  17.537  1.00  0.00     0.016 C
HETATM   14  C15 UNL     1     -17.889   9.713  18.181  1.00  0.00     0.057 C
HETATM   15  S1  UNL     1     -18.103  10.149  19.889  1.00  0.00    -0.141 SA
HETATM   16  C16 UNL     1     -19.892  10.404  20.143  1.00  0.00     0.079 C
HETATM   17  C17 UNL     1     -20.720   9.985  18.982  1.00  0.00     0.015 C
HETATM   18  C18 UNL     1     -20.165   8.807  18.205  1.00  0.00     0.045 C
ENDBRANCH  10  13
ENDBRANCH   1   9
BRANCH   5  19
HETATM   19  C6  UNL     1     -17.866   4.654   9.967  1.00  0.00     0.107 C
BRANCH  19  20
HETATM   20  C7  UNL     1     -19.205   4.988   9.352  1.00  0.00    -0.006 C
HETATM   21  C8  UNL     1     -19.780   3.872   8.514  1.00  0.00     0.005 C
HETATM   22  C9  UNL     1     -20.135   2.784   9.493  1.00  0.00     0.000 C
HETATM   23  C10 UNL     1     -20.450   3.506  10.791  1.00  0.00     0.000 C
HETATM   24  C11 UNL     1     -20.193   4.979  10.531  1.00  0.00     0.005 C
ENDBRANCH  19  20
ENDBRANCH   5  19
TORSDOF 4
ENDMDL