MODEL 3
REMARK VINA RESULT: -7.982671713      1.178      1.886
REMARK  4 active torsions:
REMARK  status: ('A' for Active; 'I' for Inactive)
REMARK       I    between atoms: C1_2  and  N1_3
REMARK    1  A    between atoms: C1_2  and  C8_12
REMARK    2  A    between atoms: N1_3  and  C2_5
REMARK    3  A    between atoms: C2_5  and  C3_6
REMARK    4  A    between atoms: N2_15  and  C11_16
ROOT
HETATM    1  C8  UNL     1     -17.958   6.182  11.214  1.00  0.00     0.081 C
HETATM    2  C9  UNL     1     -17.535   5.823   9.800  1.00  0.00     0.044 C
HETATM    3  C10 UNL     1     -16.233   5.048   9.830  1.00  0.00     0.273 C
HETATM    4  N2  UNL     1     -15.161   5.747  10.509  1.00  0.00     0.093 N
HETATM    5  C19 UNL     1     -15.583   6.971  11.110  1.00  0.00     0.273 C
HETATM    6  C20 UNL     1     -16.782   6.604  12.010  1.00  0.00     0.044 C
ENDROOT
BRANCH   1   7
HETATM    7  C1  UNL     1     -18.690   5.002  11.820  1.00  0.00     0.225 C
HETATM    8  O1  UNL     1     -18.295   4.695  12.964  1.00  0.00    -0.273 OA
HETATM    9  N1  UNL     1     -19.714   4.332  11.148  1.00  0.00    -0.338 N
ATOM     10  H1  UNL     1     -19.889   4.730  10.226  1.00  0.00     0.167 HD
BRANCH   9  11
HETATM   11  C2  UNL     1     -20.552   3.261  11.419  1.00  0.00     0.095 C
BRANCH  11  12
HETATM   12  C3  UNL     1     -20.361   1.941  10.767  1.00  0.00     0.159 C
HETATM   13  C4  UNL     1     -19.791   2.001   9.399  1.00  0.00     0.037 C
HETATM   14  C5  UNL     1     -19.582   0.636   8.740  1.00  0.00     0.005 C
HETATM   15  C6  UNL     1     -20.365  -0.380   9.504  1.00  0.00     0.026 C
HETATM   16  C7  UNL     1     -21.699   0.252   9.860  1.00  0.00     0.168 C
HETATM   17  O2  UNL     1     -21.553   1.188  10.860  1.00  0.00    -0.381 OA
ENDBRANCH  11  12
ENDBRANCH   9  11
ENDBRANCH   1   7
BRANCH   4  18
HETATM   18  C11 UNL     1     -14.021   5.825   9.670  1.00  0.00     0.223 C
HETATM   19  C12 UNL     1     -14.196   5.432   8.244  1.00  0.00     0.036 C
HETATM   20  C13 UNL     1     -12.930   4.764   7.737  1.00  0.00     0.002 C
HETATM   21  C14 UNL     1     -11.916   5.724   7.199  1.00  0.00     0.000 C
HETATM   22  C15 UNL     1     -10.875   6.129   8.237  1.00  0.00     0.000 C
HETATM   23  C16 UNL     1     -11.258   7.490   8.787  1.00  0.00     0.000 C
HETATM   24  C17 UNL     1     -12.010   7.219  10.092  1.00  0.00     0.002 C
HETATM   25  C18 UNL     1     -13.492   7.255   9.735  1.00  0.00     0.036 C
ENDBRANCH   4  18
TORSDOF 4
ENDMDL