MODEL 2
REMARK VINA RESULT: -7.367948349      2.656      7.790
REMARK  5 active torsions:
REMARK  status: ('A' for Active; 'I' for Inactive)
REMARK    1  A    between atoms: C4_4  and  C5_5
REMARK    2  A    between atoms: C5_5  and  O1_6
REMARK    3  A    between atoms: O1_6  and  C6_7
REMARK    4  A    between atoms: C6_7  and  C7_9
REMARK       I    between atoms: N1_14  and  C12_15
REMARK       I    between atoms: C12_15  and  N2_17
REMARK    5  A    between atoms: N2_17  and  C13_19
ROOT
HETATM    1  C7  UNL     1     -18.918   3.441  10.799  1.00  0.00     0.188 C
HETATM    2  C8  UNL     1     -19.992   2.840   9.979  1.00  0.00     0.036 C
HETATM    3  C9  UNL     1     -20.192   3.391   8.611  1.00  0.00     0.004 C
HETATM    4  C10 UNL     1     -20.004   4.857   8.458  1.00  0.00     0.020 C
HETATM    5  C11 UNL     1     -19.411   5.535   9.666  1.00  0.00     0.128 C
HETATM    6  N1  UNL     1     -18.423   4.648  10.197  1.00  0.00    -0.320 N
HETATM    7  C12 UNL     1     -17.048   4.928  10.140  1.00  0.00     0.319 C
HETATM    8  O3  UNL     1     -16.181   4.113  10.628  1.00  0.00    -0.247 OA
HETATM    9  N2  UNL     1     -16.498   6.099   9.559  1.00  0.00    -0.338 N
ATOM     10  H2  UNL     1     -17.132   6.787   9.153  1.00  0.00     0.164 HD
ENDROOT
BRANCH   1  11
HETATM   11  C6  UNL     1     -19.418   3.790  12.175  1.00  0.00     0.282 C
HETATM   12  O2  UNL     1     -20.650   3.659  12.428  1.00  0.00    -0.263 OA
BRANCH  11  13
HETATM   13  O1  UNL     1     -18.567   4.242  13.150  1.00  0.00    -0.319 OA
BRANCH  13  14
HETATM   14  C5  UNL     1     -18.743   5.452  13.841  1.00  0.00     0.183 C
BRANCH  14  15
HETATM   15  C4  UNL     1     -18.074   6.621  13.198  1.00  0.00     0.014 A
HETATM   16  C2  UNL     1     -17.465   7.711  13.990  1.00  0.00    -0.012 A
HETATM   17  C1  UNL     1     -17.458   7.722  15.483  1.00  0.00     0.010 C
HETATM   18  C3  UNL     1     -16.565   6.662  13.323  1.00  0.00     0.012 A
ENDBRANCH  14  15
ENDBRANCH  13  14
ENDBRANCH  11  13
ENDBRANCH   1  11
BRANCH   9  19
HETATM   19  C13 UNL     1     -15.076   6.360   9.516  1.00  0.00     0.086 C
HETATM   20  C14 UNL     1     -14.560   5.859   8.187  1.00  0.00     0.025 C
HETATM   21  C15 UNL     1     -13.069   5.814   8.159  1.00  0.00     0.002 C
HETATM   22  C16 UNL     1     -12.452   5.636   9.521  1.00  0.00     0.000 C
HETATM   23  C17 UNL     1     -12.565   6.825  10.403  1.00  0.00     0.000 C
HETATM   24  C18 UNL     1     -13.274   7.993   9.799  1.00  0.00     0.002 C
HETATM   25  C19 UNL     1     -14.752   7.824   9.673  1.00  0.00     0.025 C
ENDBRANCH   9  19
TORSDOF 5
ENDMDL