MODEL 4
REMARK VINA RESULT: -7.303344911      2.007      4.060
REMARK  5 active torsions:
REMARK  status: ('A' for Active; 'I' for Inactive)
REMARK    1  A    between atoms: C2_2  and  C3_3
REMARK       I    between atoms: C3_3  and  N1_5
REMARK    2  A    between atoms: N1_5  and  C4_7
REMARK    3  A    between atoms: C4_7  and  C5_8
REMARK       I    between atoms: N2_12  and  C9_13
REMARK    4  A    between atoms: C9_13  and  O3_15
REMARK    5  A    between atoms: O3_15  and  C10_16
ROOT
HETATM    1  C5  UNL     1     -18.579   5.972  11.922  1.00  0.00     0.107 C
HETATM    2  C6  UNL     1     -18.250   6.525  13.283  1.00  0.00     0.029 C
HETATM    3  C7  UNL     1     -16.749   6.438  13.351  1.00  0.00     0.022 C
HETATM    4  C8  UNL     1     -16.487   5.192  12.505  1.00  0.00     0.129 C
HETATM    5  N2  UNL     1     -17.348   5.462  11.369  1.00  0.00    -0.322 N
HETATM    6  C9  UNL     1     -17.037   5.262   9.993  1.00  0.00     0.364 C
HETATM    7  O2  UNL     1     -17.940   5.565   9.156  1.00  0.00    -0.238 OA
ENDROOT
BRANCH   6   8
HETATM    8  O3  UNL     1     -15.813   4.761   9.575  1.00  0.00    -0.292 OA
BRANCH   8   9
HETATM    9  C10 UNL     1     -14.665   5.563   9.811  1.00  0.00     0.082 A
HETATM   10  C11 UNL     1     -13.541   4.840  10.420  1.00  0.00     0.044 C
HETATM   11  C12 UNL     1     -12.695   4.349   9.225  1.00  0.00    -0.011 C
HETATM   12  C13 UNL     1     -13.528   4.228   7.964  1.00  0.00     0.010 C
HETATM   13  C17 UNL     1     -11.762   5.545   8.998  1.00  0.00     0.010 C
HETATM   14  C14 UNL     1     -14.115   5.589   7.549  1.00  0.00    -0.002 C
HETATM   15  C15 UNL     1     -12.910   6.412   7.065  1.00  0.00     0.011 C
HETATM   16  C18 UNL     1     -14.123   6.423   8.714  1.00  0.00     0.002 A
HETATM   17  C16 UNL     1     -12.678   6.647   8.574  1.00  0.00    -0.002 C
HETATM   18  C19 UNL     1     -14.884   6.989   9.713  1.00  0.00     0.053 A
ENDBRANCH   8   9
ENDBRANCH   6   8
BRANCH   1  19
HETATM   19  C4  UNL     1     -19.638   4.903  12.046  1.00  0.00     0.148 C
BRANCH  19  20
HETATM   20  N1  UNL     1     -19.688   4.136  10.816  1.00  0.00    -0.359 N
HETATM   21  C3  UNL     1     -20.373   2.880  10.802  1.00  0.00     0.217 C
HETATM   22  O1  UNL     1     -20.926   2.453  11.854  1.00  0.00    -0.274 OA
ATOM     23  H1  UNL     1     -19.239   4.488   9.971  1.00  0.00     0.162 HD
BRANCH  21  24
HETATM   24  C2  UNL     1     -20.445   2.061   9.553  1.00  0.00     0.098 C
HETATM   25  C1  UNL     1     -21.038   0.719   9.862  1.00  0.00     0.014 C
ENDBRANCH  21  24
ENDBRANCH  19  20
ENDBRANCH   1  19
TORSDOF 5
ENDMDL