MODEL 3
REMARK VINA RESULT: -7.002777507      1.663      2.505
REMARK  4 active torsions:
REMARK  status: ('A' for Active; 'I' for Inactive)
REMARK    1  A    between atoms: C2_2  and  C3_3
REMARK       I    between atoms: C3_3  and  N1_5
REMARK    2  A    between atoms: C8_10  and  C9_11
REMARK    3  A    between atoms: C9_11  and  N2_12
REMARK    4  A    between atoms: C11_14  and  O2_15
ROOT
HETATM    1  N2  UNL     1     -14.659   3.969   9.447  1.00  0.00     0.098 N
HETATM    2  C10 UNL     1     -14.705   3.106   8.368  1.00  0.00     0.310 C
HETATM    3  C11 UNL     1     -13.395   2.755   7.680  1.00  0.00     0.085 C
HETATM    4  C12 UNL     1     -12.690   1.684   8.408  1.00  0.00     0.044 C
HETATM    5  C13 UNL     1     -11.517   2.072   9.224  1.00  0.00    -0.011 C
HETATM    6  C14 UNL     1     -11.800   2.274  10.679  1.00  0.00     0.007 C
HETATM    7  C15 UNL     1     -13.119   2.853  11.003  1.00  0.00     0.036 C
HETATM    8  C16 UNL     1     -13.489   4.097  10.249  1.00  0.00     0.223 C
HETATM    9  C17 UNL     1     -12.356   4.870   9.690  1.00  0.00     0.040 C
HETATM   10  C18 UNL     1     -11.694   4.406   8.467  1.00  0.00    -0.009 C
HETATM   11  C19 UNL     1     -10.750   3.269   8.731  1.00  0.00     0.009 C
HETATM   12  C20 UNL     1     -12.628   3.982   7.366  1.00  0.00     0.044 C
ENDROOT
BRANCH   1  13
HETATM   13  C9  UNL     1     -15.784   3.848  10.308  1.00  0.00     0.298 C
BRANCH  13  14
HETATM   14  C8  UNL     1     -16.848   4.877  10.290  1.00  0.00     0.115 C
HETATM   15  N1  UNL     1     -16.579   5.826  11.393  1.00  0.00    -0.346 N
HETATM   16  C3  UNL     1     -15.867   7.025  11.222  1.00  0.00     0.219 C
HETATM   17  C4  UNL     1     -17.084   5.477  12.703  1.00  0.00     0.126 C
HETATM   18  O1  UNL     1     -15.680   7.777  12.206  1.00  0.00    -0.273 OA
HETATM   19  C5  UNL     1     -18.614   5.422  12.657  1.00  0.00     0.020 C
HETATM   20  C6  UNL     1     -19.068   5.497  11.205  1.00  0.00     0.004 C
HETATM   21  C7  UNL     1     -18.245   4.432  10.462  1.00  0.00     0.027 C
BRANCH  16  22
HETATM   22  C2  UNL     1     -15.330   7.424   9.890  1.00  0.00     0.098 C
HETATM   23  C1  UNL     1     -14.074   8.226  10.001  1.00  0.00     0.014 C
ENDBRANCH  16  22
ENDBRANCH  13  14
ENDBRANCH   1  13
BRANCH   3  24
HETATM   24  O2  UNL     1     -13.792   2.222   6.422  1.00  0.00    -0.388 OA
ATOM     25  H2  UNL     1     -12.973   2.050   5.972  1.00  0.00     0.210 HD
ENDBRANCH   3  24
TORSDOF 4
ENDMDL