MODEL 5
REMARK VINA RESULT: -6.533736188      2.122      4.492
REMARK  4 active torsions:
REMARK  status: ('A' for Active; 'I' for Inactive)
REMARK    1  A    between atoms: N2_6  and  C5_7
REMARK    2  A    between atoms: C10_12  and  N3_13
REMARK       I    between atoms: N3_13  and  C11_15
REMARK       I    between atoms: C11_15  and  N4_17
REMARK    3  A    between atoms: N4_17  and  C12_18
REMARK    4  A    between atoms: N4_17  and  C18_24
ROOT
HETATM    1  N1  UNL     1     -14.176   9.347  12.604  1.00  0.00    -0.195 NA
HETATM    2  C1  UNL     1     -13.440   9.508  11.726  1.00  0.00     0.095 C
HETATM    3  C2  UNL     1     -12.486   9.737  10.611  1.00  0.00     0.330 C
HETATM    4  C3  UNL     1     -12.240  11.234  10.513  1.00  0.00     0.081 C
HETATM    5  C4  UNL     1     -13.075  11.157   9.262  1.00  0.00     0.278 C
HETATM    6  N2  UNL     1     -13.105   9.693   9.326  1.00  0.00     0.113 N
ENDROOT
BRANCH   6   7
HETATM    7  C5  UNL     1     -12.403   9.147   8.223  1.00  0.00     0.247 C
HETATM    8  C6  UNL     1     -12.897   9.891   6.973  1.00  0.00     0.038 C
HETATM    9  C7  UNL     1     -11.824   9.711   5.934  1.00  0.00     0.002 C
HETATM   10  C8  UNL     1     -11.742   8.234   5.625  1.00  0.00     0.002 C
HETATM   11  C9  UNL     1     -12.644   7.406   6.476  1.00  0.00     0.027 C
HETATM   12  C10 UNL     1     -12.526   7.699   7.964  1.00  0.00     0.119 C
BRANCH  12  13
HETATM   13  N3  UNL     1     -13.650   7.042   8.612  1.00  0.00    -0.336 N
HETATM   14  C11 UNL     1     -13.640   5.690   8.995  1.00  0.00     0.319 C
HETATM   15  O1  UNL     1     -12.550   5.079   8.724  1.00  0.00    -0.247 OA
HETATM   16  N4  UNL     1     -14.662   4.966   9.620  1.00  0.00    -0.325 N
ATOM     17  H3  UNL     1     -14.489   7.591   8.800  1.00  0.00     0.164 HD
BRANCH  16  18
HETATM   18  C12 UNL     1     -15.908   5.617   9.943  1.00  0.00     0.089 C
HETATM   19  C13 UNL     1     -16.942   4.486  10.088  1.00  0.00     0.025 C
HETATM   20  C14 UNL     1     -18.298   5.149  10.211  1.00  0.00     0.002 C
HETATM   21  C15 UNL     1     -18.332   6.146  11.334  1.00  0.00     0.000 C
HETATM   22  C16 UNL     1     -17.061   6.053  12.145  1.00  0.00     0.002 C
HETATM   23  C17 UNL     1     -15.864   6.348  11.255  1.00  0.00     0.025 C
ENDBRANCH  16  18
BRANCH  16  24
HETATM   24  C18 UNL     1     -14.550   3.551   9.983  1.00  0.00     0.089 A
HETATM   25  C19 UNL     1     -13.786   3.148  11.209  1.00  0.00     0.027 A
HETATM   26  C20 UNL     1     -13.320   2.778   9.839  1.00  0.00     0.027 A
ENDBRANCH  16  24
ENDBRANCH  12  13
ENDBRANCH   6   7
TORSDOF 4
ENDMDL