MODEL 1
REMARK VINA RESULT: -6.698434535      0.000      0.000
REMARK  4 active torsions:
REMARK  status: ('A' for Active; 'I' for Inactive)
REMARK    1  A    between atoms: C2_2  and  N1_4
REMARK    2  A    between atoms: N1_4  and  C4_6
REMARK    3  A    between atoms: N2_16  and  C14_17
REMARK    4  A    between atoms: C14_17  and  C15_18
ROOT
HETATM    1  C4  UNL     1     -13.282   5.016   8.349  1.00  0.00     0.099 C
HETATM    2  C5  UNL     1     -13.374   5.805   7.057  1.00  0.00     0.027 C
HETATM    3  C6  UNL     1     -12.187   6.730   6.894  1.00  0.00     0.002 C
HETATM    4  C7  UNL     1     -12.602   8.084   7.344  1.00  0.00     0.007 C
HETATM    5  C8  UNL     1     -12.564   8.354   8.794  1.00  0.00     0.016 C
HETATM    6  C9  UNL     1     -11.604   7.569   9.614  1.00  0.00     0.016 C
HETATM    7  C10 UNL     1     -11.346   8.397  10.836  1.00  0.00    -0.025 C
HETATM    8  C11 UNL     1     -12.424   8.960  11.367  1.00  0.00    -0.028 C
HETATM    9  C12 UNL     1     -13.794   8.826  10.853  1.00  0.00     0.052 C
HETATM   10  C13 UNL     1     -13.922   8.268   9.472  1.00  0.00     0.092 C
HETATM   11  N2  UNL     1     -14.411   6.966   9.366  1.00  0.00    -0.379 N
HETATM   12  C20 UNL     1     -13.478   5.890   9.556  1.00  0.00     0.106 C
HETATM   13  C21 UNL     1     -12.155   6.258  10.110  1.00  0.00     0.036 C
ENDROOT
BRANCH  11  14
HETATM   14  C14 UNL     1     -15.737   6.664   9.735  1.00  0.00     0.091 C
BRANCH  14  15
HETATM   15  C15 UNL     1     -15.939   5.708  10.876  1.00  0.00     0.159 C
HETATM   16  C16 UNL     1     -16.673   6.400  12.013  1.00  0.00     0.037 C
HETATM   17  C17 UNL     1     -17.778   5.527  12.508  1.00  0.00     0.005 C
HETATM   18  C18 UNL     1     -18.635   5.134  11.312  1.00  0.00     0.026 C
HETATM   19  C19 UNL     1     -17.771   4.355  10.365  1.00  0.00     0.168 C
HETATM   20  O1  UNL     1     -16.424   4.476  10.555  1.00  0.00    -0.381 OA
ENDBRANCH  14  15
ENDBRANCH  11  14
BRANCH   1  21
HETATM   21  N1  UNL     1     -14.169   3.911   8.236  1.00  0.00    -0.412 N
ATOM     22  H1  UNL     1     -15.116   4.029   7.875  1.00  0.00     0.154 HD
BRANCH  21  23
HETATM   23  C2  UNL     1     -13.691   2.637   8.641  1.00  0.00     0.068 C
HETATM   24  C1  UNL     1     -12.323   2.451   7.971  1.00  0.00     0.031 C
HETATM   25  C3  UNL     1     -13.501   2.451  10.110  1.00  0.00     0.031 C
ENDBRANCH  21  23
ENDBRANCH   1  21
TORSDOF 4
ENDMDL