MODEL 5
REMARK VINA RESULT: -6.746619176      1.668      2.351
REMARK  4 active torsions:
REMARK  status: ('A' for Active; 'I' for Inactive)
REMARK    1  A    between atoms: C3_3  and  C6_6
REMARK    2  A    between atoms: N2_8  and  O1_10
REMARK    3  A    between atoms: O1_10  and  C7_11
REMARK    4  A    between atoms: C7_11  and  C8_13
ROOT
HETATM    1  C1  UNL     1     -16.626  -5.072   8.003  1.00  0.00     0.013 C
HETATM    2  C2  UNL     1     -15.810  -4.198   8.167  1.00  0.00    -0.100 C
HETATM    3  C3  UNL     1     -14.817  -3.136   8.390  1.00  0.00     0.073 C
HETATM    4  C4  UNL     1     -15.524  -1.782   8.228  1.00  0.00     0.037 C
HETATM    5  C5  UNL     1     -13.734  -3.172   7.335  1.00  0.00     0.037 C
ENDROOT
BRANCH   3   6
HETATM    6  C6  UNL     1     -14.277  -3.209   9.756  1.00  0.00     0.134 C
HETATM    7  N1  UNL     1     -13.603  -4.377  10.154  1.00  0.00    -0.084 NA
HETATM    8  N2  UNL     1     -14.418  -2.253  10.533  1.00  0.00    -0.246 N
ATOM      9  H2  UNL     1     -14.924  -1.471  10.118  1.00  0.00     0.196 HD
BRANCH   8  10
HETATM   10  O1  UNL     1     -14.050  -2.029  11.793  1.00  0.00    -0.198 OA
BRANCH  10  11
HETATM   11  C7  UNL     1     -14.848  -1.531  12.815  1.00  0.00     0.286 C
HETATM   12  O2  UNL     1     -14.353  -1.707  13.963  1.00  0.00    -0.263 OA
BRANCH  11  13
HETATM   13  C8  UNL     1     -16.147  -0.860  12.602  1.00  0.00     0.096 C
HETATM   14  C9  UNL     1     -17.022  -0.835  13.810  1.00  0.00     0.000 C
HETATM   15  C10 UNL     1     -16.556   0.131  14.868  1.00  0.00     0.010 C
HETATM   16  C14 UNL     1     -18.391  -0.330  13.337  1.00  0.00     0.010 C
HETATM   17  C11 UNL     1     -16.480   1.523  14.293  1.00  0.00    -0.013 C
HETATM   18  C12 UNL     1     -17.802   1.998  13.742  1.00  0.00     0.009 C
HETATM   19  C17 UNL     1     -15.465   1.489  13.175  1.00  0.00     0.010 C
HETATM   20  C13 UNL     1     -18.250   1.015  12.690  1.00  0.00    -0.013 C
HETATM   21  C15 UNL     1     -17.248   1.045  11.571  1.00  0.00     0.010 C
HETATM   22  C16 UNL     1     -15.899   0.533  12.095  1.00  0.00     0.000 C
ENDBRANCH  11  13
ENDBRANCH  10  11
ENDBRANCH   8  10
ENDBRANCH   3   6
TORSDOF 4
ENDMDL