MODEL 4
REMARK VINA RESULT: -6.501539064      5.394      8.293
REMARK  2 active torsions:
REMARK  status: ('A' for Active; 'I' for Inactive)
REMARK       I    between atoms: C1_2  and  N1_3
REMARK       I    between atoms: C1_2  and  N3_18
REMARK    1  A    between atoms: N1_3  and  C2_5
REMARK    2  A    between atoms: N2_11  and  C7_12
ROOT
HETATM    1  C2  UNL     1     -14.772  -5.626   8.029  1.00  0.00     0.094 C
HETATM    2  C3  UNL     1     -13.992  -4.710   8.940  1.00  0.00     0.089 C
HETATM    3  C4  UNL     1     -13.782  -5.400  10.270  1.00  0.00     0.366 C
HETATM    4  O2  UNL     1     -14.884  -6.225  10.530  1.00  0.00    -0.321 OA
HETATM    5  C5  UNL     1     -14.199  -7.238   9.832  1.00  0.00     0.366 C
HETATM    6  C6  UNL     1     -14.569  -7.083   8.373  1.00  0.00     0.089 C
HETATM    7  N2  UNL     1     -12.956  -6.579  10.094  1.00  0.00     0.150 N
ENDROOT
BRANCH   1   8
HETATM    8  N1  UNL     1     -14.362  -5.425   6.648  1.00  0.00    -0.338 N
HETATM    9  C1  UNL     1     -15.293  -5.443   5.576  1.00  0.00     0.318 C
HETATM   10  O1  UNL     1     -16.530  -5.637   5.786  1.00  0.00    -0.247 OA
HETATM   11  N3  UNL     1     -14.842  -5.242   4.251  1.00  0.00    -0.334 N
HETATM   12  C13 UNL     1     -13.470  -5.010   3.862  1.00  0.00     0.127 C
HETATM   13  C16 UNL     1     -15.690  -5.236   3.052  1.00  0.00     0.127 C
HETATM   14  C14 UNL     1     -13.520  -4.666   2.390  1.00  0.00     0.022 C
HETATM   15  C15 UNL     1     -14.943  -4.195   2.214  1.00  0.00     0.022 C
ATOM     16  H1  UNL     1     -13.375  -5.266   6.444  1.00  0.00     0.164 HD
ENDBRANCH   1   8
BRANCH   7  17
HETATM   17  C7  UNL     1     -12.241  -6.968  11.274  1.00  0.00     0.229 C
HETATM   18  C8  UNL     1     -11.452  -5.808  11.771  1.00  0.00     0.036 C
HETATM   19  C9  UNL     1     -10.549  -6.100  12.917  1.00  0.00     0.002 C
HETATM   20  C10 UNL     1      -9.876  -7.437  12.855  1.00  0.00     0.000 C
HETATM   21  C11 UNL     1     -10.839  -8.545  12.471  1.00  0.00     0.002 C
HETATM   22  C12 UNL     1     -11.354  -8.171  11.074  1.00  0.00     0.036 C
ENDBRANCH   7  17
TORSDOF 2
ENDMDL