MODEL 3
REMARK VINA RESULT: -6.374286197      5.974      8.553
REMARK  2 active torsions:
REMARK  status: ('A' for Active; 'I' for Inactive)
REMARK       I    between atoms: C1_2  and  N1_3
REMARK    1  A    between atoms: C1_2  and  C12_18
REMARK       I    between atoms: N1_3  and  C2_5
REMARK       I    between atoms: C2_5  and  N2_7
REMARK    2  A    between atoms: N3_10  and  C5_11
ROOT
HETATM    1  O1  UNL     1     -16.196  -8.148   6.600  1.00  0.00    -0.273 OA
HETATM    2  C1  UNL     1     -15.875  -6.981   7.009  1.00  0.00     0.229 C
HETATM    3  N1  UNL     1     -14.926  -6.914   8.060  1.00  0.00    -0.279 N
ATOM      4  H1  UNL     1     -14.591  -7.800   8.437  1.00  0.00     0.173 HD
HETATM    5  C2  UNL     1     -14.403  -5.743   8.630  1.00  0.00     0.325 C
HETATM    6  O2  UNL     1     -14.772  -4.618   8.230  1.00  0.00    -0.247 OA
HETATM    7  N2  UNL     1     -13.446  -5.782   9.669  1.00  0.00    -0.331 N
HETATM    8  C3  UNL     1     -12.918  -4.556  10.263  1.00  0.00     0.158 C
HETATM    9  C4  UNL     1     -12.470  -4.870  11.700  1.00  0.00     0.293 C
HETATM   10  N3  UNL     1     -11.374  -5.787  11.678  1.00  0.00     0.096 N
HETATM   11  C10 UNL     1     -11.464  -6.743  10.605  1.00  0.00     0.293 C
HETATM   12  C11 UNL     1     -12.925  -7.016  10.213  1.00  0.00     0.158 C
ENDROOT
BRANCH   2  13
HETATM   13  C12 UNL     1     -16.531  -5.843   6.345  1.00  0.00     0.078 C
HETATM   14  C13 UNL     1     -17.871  -5.503   7.011  1.00  0.00     0.014 C
HETATM   15  C14 UNL     1     -18.926  -5.870   5.987  1.00  0.00     0.001 C
HETATM   16  C15 UNL     1     -18.208  -5.495   4.701  1.00  0.00     0.001 C
HETATM   17  C16 UNL     1     -16.881  -6.195   4.905  1.00  0.00     0.014 C
ENDBRANCH   2  13
BRANCH  10  18
HETATM   18  C5  UNL     1     -11.080  -6.454  12.897  1.00  0.00     0.223 C
HETATM   19  C6  UNL     1     -10.148  -7.644  12.655  1.00  0.00     0.036 C
HETATM   20  C7  UNL     1      -9.226  -7.697  13.843  1.00  0.00     0.002 C
HETATM   21  C8  UNL     1      -9.870  -6.777  14.860  1.00  0.00     0.002 C
HETATM   22  C9  UNL     1     -10.381  -5.652  13.944  1.00  0.00     0.036 C
ENDBRANCH  10  18
TORSDOF 2
ENDMDL