MODEL 5
REMARK VINA RESULT: -6.709317884      2.248      6.595
REMARK  2 active torsions:
REMARK  status: ('A' for Active; 'I' for Inactive)
REMARK       I    between atoms: C2_2  and  N1_4
REMARK    1  A    between atoms: C5_7  and  N2_8
REMARK    2  A    between atoms: N2_8  and  C6_10
ROOT
HETATM    1  C6  UNL     1     -14.394  -5.249  10.322  1.00  0.00     0.105 C
HETATM    2  C7  UNL     1     -13.204  -4.413  10.768  1.00  0.00     0.027 C
HETATM    3  C8  UNL     1     -12.401  -4.975  11.879  1.00  0.00     0.002 C
HETATM    4  C9  UNL     1     -11.139  -5.548  11.347  1.00  0.00     0.007 C
HETATM    5  C10 UNL     1     -11.058  -7.007  11.164  1.00  0.00     0.015 C
HETATM    6  C11 UNL     1     -11.719  -7.949  12.085  1.00  0.00     0.014 C
HETATM    7  C12 UNL     1     -12.707  -8.343  11.023  1.00  0.00     0.018 A
HETATM    8  C13 UNL     1     -14.048  -7.661  11.036  1.00  0.00     0.041 A
HETATM    9  C14 UNL     1     -13.949  -6.652   9.969  1.00  0.00     0.144 A
HETATM   10  O2  UNL     1     -12.693  -6.593   9.466  1.00  0.00    -0.378 OA
HETATM   11  C15 UNL     1     -11.901  -7.552  10.025  1.00  0.00     0.130 A
ENDROOT
BRANCH   1  12
HETATM   12  N2  UNL     1     -14.764  -4.604   9.067  1.00  0.00    -0.410 N
ATOM     13  H2  UNL     1     -14.704  -3.593   8.947  1.00  0.00     0.154 HD
BRANCH  12  14
HETATM   14  C5  UNL     1     -15.212  -5.448   8.023  1.00  0.00     0.080 C
HETATM   15  C4  UNL     1     -16.697  -5.271   7.847  1.00  0.00     0.044 C
HETATM   16  C3  UNL     1     -17.239  -5.973   6.619  1.00  0.00     0.127 C
HETATM   17  N1  UNL     1     -16.155  -6.238   5.717  1.00  0.00    -0.352 N
HETATM   18  C2  UNL     1     -16.022  -7.477   5.075  1.00  0.00     0.215 C
HETATM   19  C17 UNL     1     -15.194  -5.194   5.502  1.00  0.00     0.127 C
HETATM   20  C1  UNL     1     -14.900  -7.722   4.138  1.00  0.00     0.117 C
HETATM   21  O1  UNL     1     -16.857  -8.431   5.272  1.00  0.00    -0.274 OA
HETATM   22  C16 UNL     1     -14.433  -5.034   6.776  1.00  0.00     0.044 C
ENDBRANCH  12  14
ENDBRANCH   1  12
TORSDOF 2
ENDMDL