MODEL 2
REMARK VINA RESULT: -7.659750868      1.180      1.254
REMARK  2 active torsions:
REMARK  status: ('A' for Active; 'I' for Inactive)
REMARK       I    between atoms: C2_3  and  N2_5
REMARK    1  A    between atoms: C5_8  and  C6_9
REMARK       I    between atoms: C6_9  and  N3_11
REMARK    2  A    between atoms: N3_11  and  C7_13
ROOT
HETATM    1  N1  UNL     1     -18.460   3.580  11.910  1.00  0.00    -0.186 NA
HETATM    2  C1  UNL     1     -17.912   2.870  11.182  1.00  0.00     0.162 C
HETATM    3  C2  UNL     1     -17.253   1.978  10.271  1.00  0.00     0.324 C
HETATM    4  O1  UNL     1     -17.326   2.236   9.054  1.00  0.00    -0.256 OA
HETATM    5  N2  UNL     1     -16.536   0.837  10.702  1.00  0.00    -0.340 N
HETATM    6  C3  UNL     1     -16.482   0.582  12.134  1.00  0.00     0.127 C
HETATM    7  C4  UNL     1     -16.035  -0.850  12.380  1.00  0.00     0.034 C
HETATM    8  C5  UNL     1     -14.696  -1.026  11.688  1.00  0.00     0.081 C
HETATM    9  C15 UNL     1     -14.730  -0.762  10.226  1.00  0.00     0.034 C
HETATM   10  C16 UNL     1     -15.910   0.002   9.727  1.00  0.00     0.127 C
ENDROOT
BRANCH   8  11
HETATM   11  C6  UNL     1     -14.278  -2.429  11.919  1.00  0.00     0.222 C
HETATM   12  O2  UNL     1     -14.362  -2.898  13.076  1.00  0.00    -0.273 OA
HETATM   13  N3  UNL     1     -13.788  -3.264  10.889  1.00  0.00    -0.356 N
ATOM     14  H3  UNL     1     -13.714  -2.897   9.941  1.00  0.00     0.162 HD
BRANCH  13  15
HETATM   15  C7  UNL     1     -13.390  -4.626  11.154  1.00  0.00     0.084 C
HETATM   16  C8  UNL     1     -14.026  -5.608  10.208  1.00  0.00     0.025 C
HETATM   17  C9  UNL     1     -14.189  -6.974  10.832  1.00  0.00     0.002 C
HETATM   18  C10 UNL     1     -13.073  -7.910  10.466  1.00  0.00     0.000 C
HETATM   19  C11 UNL     1     -11.998  -7.948  11.554  1.00  0.00     0.000 C
HETATM   20  C12 UNL     1     -10.932  -6.896  11.307  1.00  0.00     0.000 C
HETATM   21  C13 UNL     1     -11.338  -5.650  12.034  1.00  0.00     0.002 C
HETATM   22  C14 UNL     1     -11.872  -4.669  10.997  1.00  0.00     0.025 C
ENDBRANCH  13  15
ENDBRANCH   8  11
TORSDOF 2
ENDMDL