MODEL 2
REMARK VINA RESULT: -6.558307192      0.670      1.268
REMARK  2 active torsions:
REMARK  status: ('A' for Active; 'I' for Inactive)
REMARK    1  A    between atoms: N1_4  and  C4_5
REMARK    2  A    between atoms: N2_9  and  C7_10
ROOT
HETATM    1  C4  UNL     1     -14.732  -6.555   7.649  1.00  0.00     0.365 C
HETATM    2  O1  UNL     1     -15.694  -7.564   7.524  1.00  0.00    -0.349 OA
HETATM    3  C5  UNL     1     -16.597  -7.169   6.560  1.00  0.00     0.161 C
HETATM    4  C6  UNL     1     -16.033  -7.214   5.153  1.00  0.00     0.305 C
HETATM    5  N2  UNL     1     -14.737  -6.617   5.098  1.00  0.00     0.096 N
HETATM    6  C12 UNL     1     -14.743  -5.262   5.595  1.00  0.00     0.283 C
HETATM    7  C13 UNL     1     -15.300  -5.315   7.015  1.00  0.00     0.084 C
HETATM    8  C14 UNL     1     -16.751  -5.697   6.875  1.00  0.00    -0.003 A
HETATM    9  C15 UNL     1     -17.641  -4.813   6.126  1.00  0.00     0.013 A
HETATM   10  C16 UNL     1     -17.856  -5.126   7.597  1.00  0.00     0.013 A
ENDROOT
BRANCH   1  11
HETATM   11  N1  UNL     1     -14.273  -6.369   8.993  1.00  0.00     0.117 N
HETATM   12  C3  UNL     1     -13.933  -4.969   9.152  1.00  0.00     0.276 C
HETATM   13  C2  UNL     1     -13.737  -4.644  10.626  1.00  0.00     0.030 C
HETATM   14  C1  UNL     1     -12.510  -5.433  11.072  1.00  0.00     0.003 C
HETATM   15  C18 UNL     1     -12.827  -6.881  10.822  1.00  0.00     0.030 C
HETATM   16  C17 UNL     1     -13.128  -7.147   9.350  1.00  0.00     0.276 C
ENDBRANCH   1  11
BRANCH   5  17
HETATM   17  C7  UNL     1     -14.134  -6.744   3.810  1.00  0.00     0.223 C
HETATM   18  C8  UNL     1     -15.013  -7.283   2.735  1.00  0.00     0.036 C
HETATM   19  C9  UNL     1     -14.601  -6.504   1.485  1.00  0.00     0.002 C
HETATM   20  C10 UNL     1     -13.303  -5.824   1.821  1.00  0.00     0.002 C
HETATM   21  C11 UNL     1     -13.498  -5.490   3.297  1.00  0.00     0.036 C
ENDBRANCH   5  17
TORSDOF 2
ENDMDL