MODEL 2
REMARK VINA RESULT: -6.271230183      2.263      2.925
REMARK  2 active torsions:
REMARK  status: ('A' for Active; 'I' for Inactive)
REMARK    1  A    between atoms: C10_11  and  C11_12
REMARK       I    between atoms: C11_12  and  N1_14
REMARK    2  A    between atoms: N1_14  and  C12_16
ROOT
HETATM    1  C1  UNL     1     -18.399  -5.099   6.880  1.00  0.00     0.011 C
HETATM    2  C2  UNL     1     -16.915  -4.962   6.934  1.00  0.00    -0.002 C
HETATM    3  C3  UNL     1     -16.438  -5.307   8.351  1.00  0.00     0.043 C
HETATM    4  C4  UNL     1     -14.972  -5.015   8.503  1.00  0.00     0.062 C
HETATM    5  C5  UNL     1     -14.219  -6.150   9.152  1.00  0.00     0.038 C
HETATM    6  C6  UNL     1     -14.087  -5.949  10.656  1.00  0.00     0.005 C
HETATM    7  C7  UNL     1     -13.322  -4.699  10.949  1.00  0.00     0.026 C
HETATM    8  C8  UNL     1     -13.545  -3.736   9.803  1.00  0.00     0.168 C
HETATM    9  O1  UNL     1     -14.839  -3.908   9.350  1.00  0.00    -0.380 OA
HETATM   10  C9  UNL     1     -14.328  -4.664   7.202  1.00  0.00     0.053 C
HETATM   11  C10 UNL     1     -14.712  -5.630   6.077  1.00  0.00     0.093 C
HETATM   12  C15 UNL     1     -16.177  -5.857   5.999  1.00  0.00     0.018 C
HETATM   13  C16 UNL     1     -16.567  -7.333   6.085  1.00  0.00     0.180 C
HETATM   14  O3  UNL     1     -16.232  -7.392   4.713  1.00  0.00    -0.389 OA
HETATM   15  C17 UNL     1     -16.750  -6.075   4.643  1.00  0.00     0.180 C
ENDROOT
BRANCH  11  16
HETATM   16  C11 UNL     1     -14.141  -5.056   4.835  1.00  0.00     0.223 C
HETATM   17  O2  UNL     1     -13.964  -3.822   4.760  1.00  0.00    -0.273 OA
HETATM   18  N1  UNL     1     -13.792  -5.877   3.737  1.00  0.00    -0.356 N
ATOM     19  H1  UNL     1     -13.940  -6.883   3.809  1.00  0.00     0.162 HD
BRANCH  18  20
HETATM   20  C12 UNL     1     -13.238  -5.345   2.525  1.00  0.00     0.084 A
HETATM   21  C13 UNL     1     -14.086  -4.730   1.481  1.00  0.00     0.027 A
HETATM   22  C14 UNL     1     -13.617  -6.121   1.281  1.00  0.00     0.027 A
ENDBRANCH  18  20
ENDBRANCH  11  16
TORSDOF 2
ENDMDL