MODEL 1
REMARK VINA RESULT: -6.247548015      0.000      0.000
REMARK  2 active torsions:
REMARK  status: ('A' for Active; 'I' for Inactive)
REMARK    1  A    between atoms: N1_3  and  C3_4
REMARK    2  A    between atoms: N2_9  and  C7_11
ROOT
HETATM    1  C1  UNL     1     -12.461  -4.868  12.122  1.00  0.00     0.137 C
HETATM    2  C2  UNL     1     -11.209  -5.292  11.354  1.00  0.00     0.123 C
HETATM    3  N1  UNL     1     -10.936  -6.703  11.469  1.00  0.00    -0.246 NA
HETATM    4  S1  UNL     1     -12.265  -7.566  10.688  1.00  0.00    -0.005 SA
HETATM    5  C6  UNL     1     -13.462  -6.269  10.287  1.00  0.00     0.151 C
HETATM    6  N2  UNL     1     -14.104  -6.310   9.222  1.00  0.00    -0.365 N
ATOM      7  H2  UNL     1     -13.884  -7.119   8.641  1.00  0.00     0.162 HD
HETATM    8  N3  UNL     1     -13.592  -5.244  11.254  1.00  0.00    -0.369 N
ATOM      9  H3  UNL     1     -14.483  -4.758  11.353  1.00  0.00     0.161 HD
ENDROOT
BRANCH   6  10
HETATM   10  C7  UNL     1     -15.080  -5.456   8.662  1.00  0.00     0.091 C
HETATM   11  C8  UNL     1     -16.025  -6.214   7.726  1.00  0.00     0.009 C
HETATM   12  C9  UNL     1     -17.243  -5.351   7.538  1.00  0.00     0.011 C
HETATM   13  C13 UNL     1     -15.377  -6.554   6.425  1.00  0.00     0.011 C
HETATM   14  C10 UNL     1     -16.828  -4.052   6.904  1.00  0.00    -0.013 C
HETATM   15  C11 UNL     1     -16.245  -4.367   5.545  1.00  0.00     0.009 C
HETATM   16  C16 UNL     1     -15.770  -3.327   7.692  1.00  0.00     0.011 C
HETATM   17  C12 UNL     1     -15.047  -5.257   5.719  1.00  0.00    -0.013 C
HETATM   18  C14 UNL     1     -13.983  -4.581   6.561  1.00  0.00     0.011 C
HETATM   19  C15 UNL     1     -14.580  -4.271   7.910  1.00  0.00     0.009 C
ENDBRANCH   6  10
BRANCH   3  20
HETATM   20  C3  UNL     1     -10.630  -7.152  12.780  1.00  0.00     0.070 A
HETATM   21  C4  UNL     1     -10.502  -8.542  13.202  1.00  0.00     0.022 A
HETATM   22  C5  UNL     1      -9.231  -7.835  12.859  1.00  0.00     0.022 A
ENDBRANCH   3  20
TORSDOF 2
ENDMDL