MODEL 3
REMARK VINA RESULT: -6.073106570      3.687      5.186
REMARK  4 active torsions:
REMARK  status: ('A' for Active; 'I' for Inactive)
REMARK    1  A    between atoms: N1_2  and  C2_4
REMARK    2  A    between atoms: C2_4  and  C5_7
REMARK    3  A    between atoms: C6_8  and  C7_9
REMARK    4  A    between atoms: N2_14  and  C12_15
ROOT
HETATM    1  C7  UNL     1     -14.853  -4.897   9.345  1.00  0.00     0.204 C
HETATM    2  C8  UNL     1     -13.459  -5.356   8.996  1.00  0.00     0.083 C
HETATM    3  C9  UNL     1     -13.557  -5.928  10.373  1.00  0.00     0.071 C
HETATM    4  C10 UNL     1     -13.032  -5.051  11.464  1.00  0.00     0.082 C
HETATM    5  C11 UNL     1     -11.536  -5.253  11.696  1.00  0.00     0.061 C
HETATM    6  N2  UNL     1     -11.216  -6.616  11.747  1.00  0.00    -0.389 N
HETATM    7  C17 UNL     1     -11.568  -7.352  10.579  1.00  0.00     0.125 C
HETATM    8  C18 UNL     1     -13.090  -7.363  10.509  1.00  0.00     0.058 C
HETATM    9  O1  UNL     1     -14.938  -5.874  10.302  1.00  0.00    -0.362 OA
ENDROOT
BRANCH   1  10
HETATM   10  C6  UNL     1     -15.843  -5.175   8.276  1.00  0.00    -0.072 C
HETATM   11  C5  UNL     1     -16.631  -5.393   7.392  1.00  0.00    -0.073 C
BRANCH  11  12
HETATM   12  C2  UNL     1     -17.594  -5.640   6.288  1.00  0.00     0.082 C
HETATM   13  C3  UNL     1     -17.257  -4.821   5.080  1.00  0.00     0.052 C
HETATM   14  C4  UNL     1     -17.482  -7.106   5.952  1.00  0.00     0.052 C
BRANCH  12  15
HETATM   15  N1  UNL     1     -18.887  -5.271   6.769  1.00  0.00    -0.408 N
HETATM   16  C1  UNL     1     -19.238  -3.899   6.587  1.00  0.00     0.141 C
ATOM     17  H1  UNL     1     -19.517  -5.941   7.210  1.00  0.00     0.154 HD
ENDBRANCH  12  15
ENDBRANCH  11  12
ENDBRANCH   1  10
BRANCH   6  18
HETATM   18  C12 UNL     1     -10.191  -7.096  12.564  1.00  0.00     0.083 C
HETATM   19  C13 UNL     1     -10.084  -6.439  13.920  1.00  0.00     0.025 C
HETATM   20  C14 UNL     1     -10.575  -7.473  14.919  1.00  0.00     0.002 C
HETATM   21  C15 UNL     1      -9.989  -8.739  14.333  1.00  0.00     0.002 C
HETATM   22  C16 UNL     1     -10.250  -8.563  12.851  1.00  0.00     0.025 C
ENDBRANCH   6  18
TORSDOF 4
ENDMDL