MODEL 1
REMARK VINA RESULT: -7.701744262      0.000      0.000
REMARK  5 active torsions:
REMARK  status: ('A' for Active; 'I' for Inactive)
REMARK    1  A    between atoms: C2_2  and  C3_3
REMARK    2  A    between atoms: C2_2  and  N2_6
REMARK    3  A    between atoms: N2_6  and  C5_9
REMARK    4  A    between atoms: C5_9  and  C6_10
REMARK       I    between atoms: N3_16  and  C12_17
REMARK    5  A    between atoms: C12_17  and  C13_19
ROOT
HETATM    1  C3  UNL     1     -10.517  -6.654  11.866  1.00  0.00     0.156 C
HETATM    2  C4  UNL     1     -10.508  -8.041  12.383  1.00  0.00     0.061 C
HETATM    3  N1  UNL     1     -10.501  -9.122  12.807  1.00  0.00    -0.197 NA
ENDROOT
BRANCH   1   4
HETATM    4  C2  UNL     1     -11.408  -5.849  12.805  1.00  0.00     0.195 C
HETATM    5  C1  UNL     1     -10.554  -5.364  13.925  1.00  0.00     0.041 C
BRANCH   4   6
HETATM    6  N2  UNL     1     -12.024  -4.824  12.004  1.00  0.00    -0.070 N
ATOM      7  H22 UNL     1     -12.805  -4.391  12.496  1.00  0.00     0.277 HD
ATOM      8  H21 UNL     1     -11.415  -4.011  11.917  1.00  0.00     0.277 HD
BRANCH   6   9
HETATM    9  C5  UNL     1     -12.426  -5.304  10.725  1.00  0.00     0.244 C
BRANCH   9  10
HETATM   10  C6  UNL     1     -13.879  -5.663  10.774  1.00  0.00     0.005 C
HETATM   11  C7  UNL     1     -14.157  -7.041  11.227  1.00  0.00     0.013 C
HETATM   12  C8  UNL     1     -13.763  -7.847   9.977  1.00  0.00     0.001 C
HETATM   13  C9  UNL     1     -13.806  -6.849   8.808  1.00  0.00     0.007 C
HETATM   14  C10 UNL     1     -14.526  -5.727   9.382  1.00  0.00     0.015 C
HETATM   15  C11 UNL     1     -14.301  -4.344   8.954  1.00  0.00     0.131 C
HETATM   16  N3  UNL     1     -14.518  -3.592  10.173  1.00  0.00    -0.351 N
HETATM   17  C12 UNL     1     -14.584  -2.202  10.327  1.00  0.00     0.224 C
HETATM   18  C21 UNL     1     -14.668  -4.536  11.305  1.00  0.00     0.137 C
HETATM   19  O1  UNL     1     -14.760  -1.722  11.507  1.00  0.00    -0.273 OA
BRANCH  17  20
HETATM   20  C13 UNL     1     -14.475  -1.197   9.250  1.00  0.00     0.078 C
HETATM   21  C14 UNL     1     -13.426  -1.625   8.277  1.00  0.00     0.015 C
HETATM   22  C15 UNL     1     -13.480  -0.982   6.933  1.00  0.00     0.010 C
HETATM   23  C16 UNL     1     -14.850  -0.716   6.414  1.00  0.00    -0.048 C
HETATM   24  C17 UNL     1     -15.489  -2.006   5.952  1.00  0.00     0.015 C
HETATM   25  C18 UNL     1     -14.784   0.250   5.252  1.00  0.00     0.015 C
HETATM   26  C19 UNL     1     -15.702  -0.045   7.489  1.00  0.00     0.010 C
HETATM   27  C20 UNL     1     -15.832  -1.068   8.595  1.00  0.00     0.015 C
ENDBRANCH  17  20
ENDBRANCH   9  10
ENDBRANCH   6   9
ENDBRANCH   4   6
ENDBRANCH   1   4
TORSDOF 5
ENDMDL