MODEL 5
REMARK VINA RESULT: -5.602684912      2.609      6.064
REMARK  6 active torsions:
REMARK  status: ('A' for Active; 'I' for Inactive)
REMARK    1  A    between atoms: N1_2  and  C3_4
REMARK    2  A    between atoms: C5_6  and  N2_7
REMARK    3  A    between atoms: N2_7  and  C6_8
REMARK    4  A    between atoms: N2_7  and  C17_21
REMARK    5  A    between atoms: C6_8  and  C7_9
REMARK    6  A    between atoms: C7_9  and  O1_10
ROOT
HETATM    1  C6  UNL     1     -14.848  -4.990   7.450  1.00  0.00     0.312 C
ENDROOT
BRANCH   1   2
HETATM    2  N2  UNL     1     -14.235  -3.833   7.001  1.00  0.00     0.104 N
BRANCH   2   3
HETATM    3  C5  UNL     1     -14.470  -3.687   5.541  1.00  0.00     0.228 C
HETATM    4  C4  UNL     1     -13.474  -4.442   4.673  1.00  0.00     0.071 C
HETATM    5  C3  UNL     1     -14.621  -4.655   3.710  1.00  0.00     0.226 C
HETATM    6  C21 UNL     1     -15.554  -4.476   4.929  1.00  0.00     0.071 C
BRANCH   5   7
HETATM    7  N1  UNL     1     -14.731  -5.935   3.091  1.00  0.00     0.084 N
HETATM    8  C1  UNL     1     -13.635  -6.080   2.146  1.00  0.00     0.309 C
HETATM    9  C2  UNL     1     -15.970  -5.917   2.307  1.00  0.00     0.309 C
ENDBRANCH   5   7
ENDBRANCH   2   3
BRANCH   2  10
HETATM   10  C17 UNL     1     -14.500  -2.558   7.548  1.00  0.00     0.149 C
HETATM   11  C18 UNL     1     -15.991  -2.240   7.745  1.00  0.00     0.048 C
HETATM   12  C19 UNL     1     -14.106  -1.439   6.515  1.00  0.00     0.048 C
HETATM   13  C20 UNL     1     -13.769  -2.119   8.763  1.00  0.00     0.048 C
ENDBRANCH   2  10
ENDBRANCH   1   2
BRANCH   1  14
HETATM   14  C7  UNL     1     -14.605  -5.767   8.685  1.00  0.00     0.088 C
HETATM   15  C8  UNL     1     -14.990  -7.185   8.470  1.00  0.00     0.040 C
HETATM   16  C9  UNL     1     -15.076  -8.077   9.640  1.00  0.00     0.004 C
HETATM   17  C10 UNL     1     -14.713  -7.478  10.959  1.00  0.00     0.005 C
HETATM   18  C11 UNL     1     -13.434  -6.771  11.047  1.00  0.00    -0.006 C
HETATM   19  C12 UNL     1     -12.596  -6.776   9.797  1.00  0.00     0.014 C
HETATM   20  C14 UNL     1     -13.423  -5.295  10.908  1.00  0.00    -0.038 C
HETATM   21  C13 UNL     1     -13.355  -5.488   9.410  1.00  0.00     0.030 C
HETATM   22  C15 UNL     1     -14.432  -4.475  11.553  1.00  0.00     0.015 C
HETATM   23  C16 UNL     1     -12.019  -4.784  11.339  1.00  0.00     0.015 C
BRANCH  14  24
HETATM   24  O1  UNL     1     -15.667  -5.252   9.574  1.00  0.00    -0.388 OA
ATOM     25  H1  UNL     1     -15.216  -5.218  10.410  1.00  0.00     0.210 HD
ENDBRANCH  14  24
ENDBRANCH   1  14
TORSDOF 6
ENDMDL