MODEL 4
REMARK VINA RESULT: -7.617694499      1.890      2.668
REMARK  4 active torsions:
REMARK  status: ('A' for Active; 'I' for Inactive)
REMARK    1  A    between atoms: S1_2  and  N1_4
REMARK    2  A    between atoms: S1_2  and  C14_20
REMARK    3  A    between atoms: N1_4  and  C1_6
REMARK    4  A    between atoms: N2_9  and  C4_10
ROOT
HETATM    1  C1  UNL     1     -11.852  -7.728  11.714  1.00  0.00     0.096 C
HETATM    2  C2  UNL     1     -12.697  -8.321  10.589  1.00  0.00     0.056 C
HETATM    3  C3  UNL     1     -13.113  -7.171   9.701  1.00  0.00     0.275 C
HETATM    4  N2  UNL     1     -13.415  -6.014  10.487  1.00  0.00     0.093 N
HETATM    5  C12 UNL     1     -12.209  -5.397  11.013  1.00  0.00     0.275 C
HETATM    6  C13 UNL     1     -11.161  -6.510  11.156  1.00  0.00     0.056 C
ENDROOT
BRANCH   1   7
HETATM    7  N1  UNL     1     -11.002  -8.664  12.324  1.00  0.00    -0.314 N
ATOM      8  H1  UNL     1     -10.931  -9.605  11.937  1.00  0.00     0.172 HD
BRANCH   7   9
HETATM    9  S1  UNL     1     -10.106  -8.261  13.673  1.00  0.00     0.231 S
HETATM   10  O1  UNL     1     -10.069  -9.415  14.644  1.00  0.00    -0.206 OA
HETATM   11  O2  UNL     1      -8.689  -7.815  13.343  1.00  0.00    -0.206 OA
BRANCH   9  12
HETATM   12  C14 UNL     1     -10.825  -6.898  14.550  1.00  0.00     0.129 C
HETATM   13  C15 UNL     1     -11.177  -7.163  15.962  1.00  0.00     0.022 C
HETATM   14  C16 UNL     1     -11.285  -5.752  16.561  1.00  0.00     0.001 C
HETATM   15  C17 UNL     1     -10.220  -4.968  15.853  1.00  0.00     0.001 C
HETATM   16  C18 UNL     1      -9.779  -5.774  14.678  1.00  0.00     0.022 C
ENDBRANCH   9  12
ENDBRANCH   7   9
ENDBRANCH   1   7
BRANCH   4  17
HETATM   17  C4  UNL     1     -14.261  -5.039   9.830  1.00  0.00     0.223 C
HETATM   18  C5  UNL     1     -14.539  -3.911  10.740  1.00  0.00     0.036 C
HETATM   19  C6  UNL     1     -14.161  -2.550  10.218  1.00  0.00     0.002 C
HETATM   20  C7  UNL     1     -14.342  -2.349   8.760  1.00  0.00     0.000 C
HETATM   21  C8  UNL     1     -15.750  -2.686   8.280  1.00  0.00     0.000 C
HETATM   22  C9  UNL     1     -15.672  -3.977   7.526  1.00  0.00     0.000 C
HETATM   23  C10 UNL     1     -16.350  -5.040   8.390  1.00  0.00     0.002 C
HETATM   24  C11 UNL     1     -15.455  -5.763   9.301  1.00  0.00     0.036 C
ENDBRANCH   4  17
TORSDOF 4
ENDMDL