MODEL 4
REMARK VINA RESULT: -7.061268780      6.253      8.067
REMARK  4 active torsions:
REMARK  status: ('A' for Active; 'I' for Inactive)
REMARK       I    between atoms: N1_10  and  C10_11
REMARK    1  A    between atoms: C10_11  and  C11_13
REMARK    2  A    between atoms: C11_13  and  C12_14
REMARK    3  A    between atoms: C12_14  and  C13_15
REMARK    4  A    between atoms: C19_21  and  C20_22
ROOT
HETATM    1  C1  UNL     1     -18.322  -5.593   5.536  1.00  0.00     0.015 C
HETATM    2  C2  UNL     1     -17.000  -6.083   5.086  1.00  0.00    -0.043 C
HETATM    3  C3  UNL     1     -17.107  -6.665   3.696  1.00  0.00     0.015 C
HETATM    4  C4  UNL     1     -15.946  -4.963   5.042  1.00  0.00     0.015 C
HETATM    5  C5  UNL     1     -14.753  -5.478   5.779  1.00  0.00     0.008 C
HETATM    6  C6  UNL     1     -14.917  -6.982   5.467  1.00  0.00     0.012 C
HETATM    7  C7  UNL     1     -16.348  -7.079   5.999  1.00  0.00     0.001 C
HETATM    8  C8  UNL     1     -16.154  -6.458   7.371  1.00  0.00     0.029 C
HETATM    9  C9  UNL     1     -15.706  -7.467   8.380  1.00  0.00     0.132 C
HETATM   10  N1  UNL     1     -14.558  -6.880   9.024  1.00  0.00    -0.350 N
HETATM   11  C10 UNL     1     -14.134  -6.964  10.376  1.00  0.00     0.219 C
HETATM   12  O1  UNL     1     -14.845  -7.644  11.151  1.00  0.00    -0.273 OA
HETATM   13  C18 UNL     1     -13.848  -6.138   8.007  1.00  0.00     0.147 C
HETATM   14  C19 UNL     1     -14.998  -5.488   7.242  1.00  0.00     0.073 C
ENDROOT
BRANCH  11  15
HETATM   15  C11 UNL     1     -12.931  -6.298  10.859  1.00  0.00     0.103 C
BRANCH  15  16
HETATM   16  C12 UNL     1     -11.699  -7.120  10.938  1.00  0.00     0.014 C
BRANCH  16  17
HETATM   17  C13 UNL     1     -10.545  -6.519  11.671  1.00  0.00    -0.014 C
HETATM   18  C14 UNL     1     -10.039  -7.578  12.639  1.00  0.00     0.004 C
HETATM   19  C15 UNL     1     -10.418  -7.119  14.018  1.00  0.00     0.000 C
HETATM   20  C16 UNL     1     -10.641  -5.627  13.933  1.00  0.00     0.000 C
HETATM   21  C17 UNL     1     -10.961  -5.329  12.507  1.00  0.00     0.004 C
ENDBRANCH  16  17
ENDBRANCH  15  16
ENDBRANCH  11  15
BRANCH  14  22
HETATM   22  C20 UNL     1     -15.302  -4.200   7.868  1.00  0.00     0.184 C
HETATM   23  O2  UNL     1     -16.419  -3.969   8.360  1.00  0.00    -0.647 OA
HETATM   24  O3  UNL     1     -14.333  -3.208   7.915  1.00  0.00    -0.647 OA
ENDBRANCH  14  22
TORSDOF 4
ENDMDL