MODEL 1
REMARK VINA RESULT: -7.370746044      0.000      0.000
REMARK  4 active torsions:
REMARK  status: ('A' for Active; 'I' for Inactive)
REMARK    1  A    between atoms: C2_2  and  C3_3
REMARK    2  A    between atoms: C2_2  and  C9_12
REMARK    3  A    between atoms: C2_2  and  C10_15
REMARK    4  A    between atoms: C3_3  and  C4_4
REMARK       I    between atoms: C4_4  and  N1_6
ROOT
HETATM    1  C1  UNL     1     -13.850  -6.042   8.088  1.00  0.00     0.032 C
HETATM    2  C2  UNL     1     -14.748  -5.081   8.825  1.00  0.00     0.076 C
ENDROOT
BRANCH   2   3
HETATM    3  C3  UNL     1     -15.053  -5.494  10.212  1.00  0.00     0.127 C
BRANCH   3   4
HETATM    4  C4  UNL     1     -14.314  -6.765  10.588  1.00  0.00     0.221 C
HETATM    5  O1  UNL     1     -14.782  -7.869  10.287  1.00  0.00    -0.273 OA
HETATM    6  N1  UNL     1     -13.088  -6.692  11.287  1.00  0.00    -0.348 N
HETATM    7  C5  UNL     1     -12.334  -7.864  11.677  1.00  0.00     0.152 C
HETATM    8  C8  UNL     1     -12.542  -5.397  11.641  1.00  0.00     0.152 C
HETATM    9  C6  UNL     1     -10.890  -7.775  11.236  1.00  0.00     0.187 C
HETATM   10  O2  UNL     1     -10.499  -6.449  11.075  1.00  0.00    -0.388 OA
HETATM   11  C7  UNL     1     -11.093  -5.661  12.068  1.00  0.00     0.187 C
ENDBRANCH   3   4
ENDBRANCH   2   3
BRANCH   2  12
HETATM   12  C9  UNL     1     -16.120  -5.322   8.138  1.00  0.00     0.186 C
HETATM   13  O3  UNL     1     -17.176  -4.868   8.611  1.00  0.00    -0.647 OA
HETATM   14  O4  UNL     1     -16.175  -6.053   6.977  1.00  0.00    -0.647 OA
ENDBRANCH   2  12
BRANCH   2  15
HETATM   15  C10 UNL     1     -14.550  -3.668   8.513  1.00  0.00    -0.058 C
HETATM   16  C11 UNL     1     -14.600  -2.709   9.406  1.00  0.00    -0.072 C
HETATM   17  C12 UNL     1     -14.851  -2.940  10.810  1.00  0.00     0.035 C
HETATM   18  C16 UNL     1     -14.432  -1.230   9.071  1.00  0.00     0.015 C
HETATM   19  C13 UNL     1     -14.572  -1.645  11.618  1.00  0.00     0.004 C
HETATM   20  C14 UNL     1     -15.504  -0.537  11.194  1.00  0.00     0.001 C
HETATM   21  C15 UNL     1     -15.551  -0.409   9.687  1.00  0.00     0.009 C
HETATM   22  C17 UNL     1     -14.405  -0.961   7.607  1.00  0.00     0.009 C
HETATM   23  C18 UNL     1     -13.421  -1.981   7.044  1.00  0.00     0.005 C
HETATM   24  C19 UNL     1     -14.159  -3.287   7.075  1.00  0.00     0.036 C
ENDBRANCH   2  15
TORSDOF 4
ENDMDL