MODEL 5
REMARK VINA RESULT: -6.408089594      3.869      5.389
REMARK  5 active torsions:
REMARK  status: ('A' for Active; 'I' for Inactive)
REMARK    1  A    between atoms: C2_2  and  C3_3
REMARK    2  A    between atoms: C3_3  and  C4_4
REMARK    3  A    between atoms: N1_6  and  O1_7
REMARK    4  A    between atoms: C7_11  and  C8_12
REMARK       I    between atoms: C8_12  and  N2_14
REMARK    5  A    between atoms: N2_14  and  C9_16
ROOT
HETATM    1  C8  UNL     1     -14.698  -2.422   9.599  1.00  0.00     0.255 C
HETATM    2  O2  UNL     1     -15.597  -3.091   9.049  1.00  0.00    -0.268 OA
HETATM    3  N2  UNL     1     -13.742  -1.793   8.775  1.00  0.00    -0.348 N
ATOM      4  H2  UNL     1     -12.994  -1.254   9.211  1.00  0.00     0.163 HD
ENDROOT
BRANCH   1   5
HETATM    5  C7  UNL     1     -14.668  -2.324  11.063  1.00  0.00     0.071 A
HETATM    6  C4  UNL     1     -14.116  -3.354  11.794  1.00  0.00     0.019 A
HETATM    7  S1  UNL     1     -14.336  -2.831  13.408  1.00  0.00     0.013 SA
HETATM    8  N1  UNL     1     -15.098  -1.370  13.113  1.00  0.00    -0.196 N
HETATM    9  C5  UNL     1     -15.176  -1.299  11.781  1.00  0.00     0.061 A
HETATM   10  C6  UNL     1     -15.861  -0.096  11.189  1.00  0.00     0.072 C
BRANCH   6  11
HETATM   11  C3  UNL     1     -13.480  -4.621  11.362  1.00  0.00     0.048 C
BRANCH  11  12
HETATM   12  C2  UNL     1     -11.992  -4.562  11.268  1.00  0.00     0.001 C
HETATM   13  C1  UNL     1     -11.264  -5.339  12.307  1.00  0.00     0.005 C
ENDBRANCH  11  12
ENDBRANCH   6  11
BRANCH   8  14
HETATM   14  O1  UNL     1     -15.529  -0.472  14.083  1.00  0.00    -0.276 OA
ATOM     15  H1  UNL     1     -15.650   0.462  13.958  1.00  0.00     0.246 HD
ENDBRANCH   8  14
ENDBRANCH   1   5
BRANCH   3  16
HETATM   16  C9  UNL     1     -13.786  -1.887   7.318  1.00  0.00     0.034 C
HETATM   17  C10 UNL     1     -15.037  -1.327   6.739  1.00  0.00     0.035 C
HETATM   18  C11 UNL     1     -15.009  -1.545   5.240  1.00  0.00    -0.012 C
HETATM   19  C12 UNL     1     -14.947  -2.985   4.846  1.00  0.00     0.009 C
HETATM   20  C16 UNL     1     -13.842  -0.800   4.649  1.00  0.00     0.009 C
HETATM   21  C13 UNL     1     -13.684  -3.564   5.449  1.00  0.00    -0.012 C
HETATM   22  C14 UNL     1     -12.501  -2.852   4.843  1.00  0.00     0.009 C
HETATM   23  C18 UNL     1     -13.718  -3.365   6.921  1.00  0.00     0.035 C
HETATM   24  C15 UNL     1     -12.575  -1.403   5.210  1.00  0.00    -0.012 C
HETATM   25  C17 UNL     1     -12.583  -1.229   6.716  1.00  0.00     0.035 C
ENDBRANCH   3  16
TORSDOF 5
ENDMDL