MODEL 3
REMARK VINA RESULT: -6.541924202      0.907      1.306
REMARK  5 active torsions:
REMARK  status: ('A' for Active; 'I' for Inactive)
REMARK    1  A    between atoms: C2_2  and  C3_3
REMARK    2  A    between atoms: C3_3  and  C6_6
REMARK    3  A    between atoms: C6_6  and  C7_7
REMARK    4  A    between atoms: C6_6  and  N2_15
REMARK    5  A    between atoms: C15_19  and  N3_20
ROOT
HETATM    1  C6  UNL     1     -15.444  -3.364   7.784  1.00  0.00     0.234 C
ENDROOT
BRANCH   1   2
HETATM    2  C3  UNL     1     -15.324  -1.965   8.163  1.00  0.00    -0.017 C
HETATM    3  C4  UNL     1     -15.280  -1.695   9.674  1.00  0.00     0.017 C
HETATM    4  C5  UNL     1     -13.916  -1.513   7.736  1.00  0.00     0.017 C
BRANCH   2   5
HETATM    5  C2  UNL     1     -16.166  -0.916   7.579  1.00  0.00     0.006 C
HETATM    6  C1  UNL     1     -16.595   0.259   8.363  1.00  0.00     0.006 C
ENDBRANCH   2   5
ENDBRANCH   1   2
BRANCH   1   7
HETATM    7  C7  UNL     1     -16.825  -3.549   7.151  1.00  0.00     0.023 C
HETATM    8  C8  UNL     1     -16.833  -3.831   5.690  1.00  0.00     0.034 C
HETATM    9  C9  UNL     1     -17.379  -5.222   5.394  1.00  0.00     0.232 C
HETATM   10  N1  UNL     1     -18.764  -5.214   5.819  1.00  0.00    -0.075 N
HETATM   11  C10 UNL     1     -18.956  -4.684   7.142  1.00  0.00     0.232 C
ATOM     12  H12 UNL     1     -19.346  -4.718   5.143  1.00  0.00     0.277 HD
ATOM     13  H11 UNL     1     -19.170  -6.146   5.741  1.00  0.00     0.277 HD
HETATM   14  C11 UNL     1     -17.628  -4.600   7.891  1.00  0.00     0.034 C
ENDBRANCH   1   7
BRANCH   1  15
HETATM   15  N2  UNL     1     -15.039  -4.483   8.473  1.00  0.00     0.096 N
HETATM   16  C12 UNL     1     -14.125  -5.368   7.720  1.00  0.00     0.273 C
HETATM   17  C13 UNL     1     -14.447  -6.809   8.019  1.00  0.00     0.032 C
HETATM   18  C14 UNL     1     -14.545  -6.948   9.494  1.00  0.00     0.029 C
HETATM   19  C15 UNL     1     -14.008  -5.799  10.277  1.00  0.00     0.111 C
HETATM   20  C21 UNL     1     -14.385  -4.429   9.728  1.00  0.00     0.298 C
BRANCH  19  21
HETATM   21  N3  UNL     1     -12.625  -5.850  10.623  1.00  0.00    -0.387 N
HETATM   22  C16 UNL     1     -12.256  -4.995  11.719  1.00  0.00     0.122 C
HETATM   23  C17 UNL     1     -10.838  -5.243  12.140  1.00  0.00     0.020 C
HETATM   24  C18 UNL     1     -10.641  -6.641  12.679  1.00  0.00     0.007 C
HETATM   25  C19 UNL     1     -11.707  -7.579  12.121  1.00  0.00     0.044 C
HETATM   26  C20 UNL     1     -11.972  -7.087  10.699  1.00  0.00     0.058 C
ENDBRANCH  19  21
ENDBRANCH   1  15
TORSDOF 5
ENDMDL