MODEL 5
REMARK VINA RESULT: -7.358917845      5.762      7.371
REMARK  3 active torsions:
REMARK  status: ('A' for Active; 'I' for Inactive)
REMARK    1  A    between atoms: C8_8  and  C9_9
REMARK    2  A    between atoms: C9_9  and  C10_10
REMARK    3  A    between atoms: C10_10  and  C11_12
ROOT
HETATM    1  C11 UNL     1     -14.055  -6.776  10.308  1.00  0.00     0.256 C
HETATM    2  C12 UNL     1     -15.453  -6.135   9.944  1.00  0.00     0.054 C
HETATM    3  C13 UNL     1     -15.387  -5.834   8.487  1.00  0.00     0.016 C
HETATM    4  C14 UNL     1     -13.860  -5.740   8.310  1.00  0.00     0.244 C
HETATM    5  N1  UNL     1     -13.556  -6.991   8.965  1.00  0.00    -0.063 N
ATOM      6  H11 UNL     1     -13.927  -7.819   8.499  1.00  0.00     0.278 HD
ATOM      7  H12 UNL     1     -12.577  -7.274   8.913  1.00  0.00     0.278 HD
HETATM    8  C15 UNL     1     -15.834  -7.010   7.638  1.00  0.00     0.283 C
HETATM    9  N2  UNL     1     -16.437  -6.598   6.413  1.00  0.00     0.089 N
HETATM   10  C16 UNL     1     -15.677  -5.584   5.718  1.00  0.00     0.273 C
HETATM   11  C17 UNL     1     -15.462  -4.360   6.553  1.00  0.00     0.036 C
HETATM   12  C18 UNL     1     -16.038  -4.606   7.968  1.00  0.00     0.001 C
HETATM   13  C19 UNL     1     -17.516  -4.869   7.747  1.00  0.00     0.036 C
HETATM   14  C20 UNL     1     -17.730  -5.987   6.726  1.00  0.00     0.273 C
ENDROOT
BRANCH   1  15
HETATM   15  C10 UNL     1     -13.294  -5.771  11.044  1.00  0.00     0.160 C
HETATM   16  O1  UNL     1     -13.825  -4.783  11.491  1.00  0.00    -0.295 OA
BRANCH  15  17
HETATM   17  C9  UNL     1     -11.805  -5.934  11.267  1.00  0.00     0.108 C
BRANCH  17  18
HETATM   18  C8  UNL     1     -11.598  -7.148  12.107  1.00  0.00    -0.016 C
HETATM   19  C7  UNL     1     -10.412  -7.335  12.916  1.00  0.00    -0.075 C
HETATM   20  C2  UNL     1     -10.268  -6.577  14.196  1.00  0.00    -0.021 C
HETATM   21  C6  UNL     1      -9.902  -8.696  13.206  1.00  0.00     0.039 C
HETATM   22  C1  UNL     1     -10.395  -5.141  14.291  1.00  0.00     0.020 C
HETATM   23  C3  UNL     1     -11.185  -7.265  15.270  1.00  0.00     0.014 C
HETATM   24  C21 UNL     1      -8.957  -7.172  14.730  1.00  0.00     0.018 C
HETATM   25  C4  UNL     1     -10.589  -8.627  15.516  1.00  0.00     0.006 C
HETATM   26  C5  UNL     1      -9.367  -8.624  14.636  1.00  0.00    -0.010 C
ENDBRANCH  17  18
ENDBRANCH  15  17
ENDBRANCH   1  15
TORSDOF 3
ENDMDL