MODEL 5
REMARK VINA RESULT: -7.425815146      2.377      3.582
REMARK  5 active torsions:
REMARK  status: ('A' for Active; 'I' for Inactive)
REMARK    1  A    between atoms: N1_2  and  C3_4
REMARK    2  A    between atoms: C3_4  and  C4_5
REMARK    3  A    between atoms: C4_5  and  O1_6
REMARK    4  A    between atoms: O1_6  and  C5_7
REMARK    5  A    between atoms: C14_16  and  O2_17
ROOT
HETATM    1  C5  UNL     1     -14.655  -5.226   8.701  1.00  0.00     0.051 C
HETATM    2  C6  UNL     1     -14.370  -6.337   8.047  1.00  0.00     0.007 C
HETATM    3  C7  UNL     1     -13.536  -7.245   8.925  1.00  0.00     0.035 C
HETATM    4  C8  UNL     1     -12.830  -6.157   9.696  1.00  0.00     0.008 C
HETATM    5  C9  UNL     1     -11.977  -6.539  10.817  1.00  0.00    -0.005 C
HETATM    6  C10 UNL     1     -11.987  -7.983  11.214  1.00  0.00     0.006 C
HETATM    7  C11 UNL     1     -11.385  -8.077  12.622  1.00  0.00     0.005 C
HETATM    8  C12 UNL     1     -10.283  -7.041  12.742  1.00  0.00    -0.008 C
HETATM    9  C13 UNL     1      -9.541  -7.279  14.028  1.00  0.00     0.036 C
HETATM   10  C14 UNL     1     -10.078  -6.282  15.030  1.00  0.00     0.118 C
HETATM   11  C15 UNL     1     -11.139  -5.498  14.303  1.00  0.00     0.037 C
HETATM   12  C16 UNL     1     -10.899  -5.661  12.829  1.00  0.00    -0.004 C
HETATM   13  C17 UNL     1     -12.202  -5.666  12.031  1.00  0.00    -0.005 C
HETATM   14  C18 UNL     1     -12.564  -4.260  11.711  1.00  0.00     0.006 C
HETATM   15  C19 UNL     1     -13.517  -4.042  10.582  1.00  0.00     0.017 C
HETATM   16  C20 UNL     1     -14.039  -5.329  10.039  1.00  0.00     0.009 C
HETATM   17  C21 UNL     1     -15.039  -6.005  10.917  1.00  0.00     0.023 C
ENDROOT
BRANCH   1  18
HETATM   18  O1  UNL     1     -15.411  -4.177   8.172  1.00  0.00    -0.353 OA
BRANCH  18  19
HETATM   19  C4  UNL     1     -15.191  -3.766   6.823  1.00  0.00     0.205 C
BRANCH  19  20
HETATM   20  C3  UNL     1     -13.950  -2.957   6.683  1.00  0.00     0.297 C
BRANCH  20  21
HETATM   21  N1  UNL     1     -13.097  -3.448   5.649  1.00  0.00     0.082 N
HETATM   22  C1  UNL     1     -13.840  -4.216   4.693  1.00  0.00     0.309 C
HETATM   23  C2  UNL     1     -12.362  -2.430   4.958  1.00  0.00     0.309 C
ENDBRANCH  20  21
ENDBRANCH  19  20
ENDBRANCH  18  19
ENDBRANCH   1  18
BRANCH  10  24
HETATM   24  O2  UNL     1      -9.091  -5.392  15.453  1.00  0.00    -0.396 OA
ATOM     25  H2  UNL     1      -9.398  -4.493  15.435  1.00  0.00     0.210 HD
ENDBRANCH  10  24
TORSDOF 5
ENDMDL