MODEL 1
REMARK VINA RESULT: -6.459774781      0.000      0.000
REMARK  4 active torsions:
REMARK  status: ('A' for Active; 'I' for Inactive)
REMARK    1  A    between atoms: C2_2  and  C3_3
REMARK    2  A    between atoms: C3_3  and  C4_4
REMARK    3  A    between atoms: C17_22  and  O4_23
REMARK    4  A    between atoms: C19_27  and  C20_28
ROOT
HETATM    1  C4  UNL     1      30.700  16.735  13.592  1.00  0.00     0.013 C
HETATM    2  N1  UNL     1      30.215  15.704  14.365  1.00  0.00    -0.387 N
ATOM      3  H1  UNL     1      30.620  15.512  15.281  1.00  0.00     0.159 HD
HETATM    4  C5  UNL     1      29.148  14.912  13.873  1.00  0.00     0.094 C
HETATM    5  C6  UNL     1      29.487  14.363  12.502  1.00  0.00     0.058 C
HETATM    6  C7  UNL     1      28.210  13.851  11.928  1.00  0.00     0.011 C
HETATM    7  C8  UNL     1      27.820  12.627  12.749  1.00  0.00     0.013 C
HETATM    8  C9  UNL     1      27.801  12.841  14.229  1.00  0.00    -0.002 C
HETATM    9  C10 UNL     1      26.429  13.440  14.564  1.00  0.00     0.019 C
HETATM   10  C11 UNL     1      28.899  13.710  14.768  1.00  0.00     0.020 C
HETATM   11  C12 UNL     1      30.138  12.949  15.085  1.00  0.00     0.007 C
HETATM   12  C13 UNL     1      29.837  12.116  16.337  1.00  0.00     0.004 C
HETATM   13  C14 UNL     1      28.468  11.497  16.247  1.00  0.00     0.044 C
HETATM   14  C15 UNL     1      27.890  11.474  14.874  1.00  0.00     0.131 C
HETATM   15  C16 UNL     1      26.574  10.749  14.921  1.00  0.00     0.255 C
HETATM   16  O1  UNL     1      26.646  10.000  13.732  1.00  0.00    -0.208 OA
HETATM   17  O2  UNL     1      27.896   9.595  13.775  1.00  0.00    -0.066 OA
HETATM   18  O3  UNL     1      28.641  10.621  14.068  1.00  0.00    -0.196 OA
HETATM   19  C17 UNL     1      30.288  15.334  11.724  1.00  0.00     0.161 C
HETATM   20  C18 UNL     1      31.709  15.030  12.078  1.00  0.00     0.099 C
HETATM   21  N2  UNL     1      32.802  14.772  12.359  1.00  0.00    -0.194 NA
HETATM   22  C19 UNL     1      29.972  16.754  12.338  1.00  0.00     0.088 C
ENDROOT
BRANCH  19  23
HETATM   23  O4  UNL     1      30.070  15.316  10.408  1.00  0.00    -0.374 OA
ATOM     24  H4  UNL     1      30.688  15.820   9.893  1.00  0.00     0.212 HD
ENDBRANCH  19  23
BRANCH  22  25
HETATM   25  C20 UNL     1      30.139  17.767  11.294  1.00  0.00    -0.009 C
HETATM   26  C21 UNL     1      30.428  19.141  11.975  1.00  0.00     0.010 C
HETATM   27  C22 UNL     1      28.910  18.110  10.466  1.00  0.00     0.010 C
ENDBRANCH  22  25
BRANCH   1  28
HETATM   28  C3  UNL     1      31.754  17.424  14.242  1.00  0.00     0.021 C
BRANCH  28  29
HETATM   29  C2  UNL     1      32.689  17.275  15.100  1.00  0.00    -0.029 C
HETATM   30  C1  UNL     1      33.403  18.126  16.045  1.00  0.00     0.036 C
ENDBRANCH  28  29
ENDBRANCH   1  28
TORSDOF 4
ENDMDL