MODEL 1
REMARK VINA RESULT: -6.810265487      0.000      0.000
REMARK  6 active torsions:
REMARK  status: ('A' for Active; 'I' for Inactive)
REMARK    1  A    between atoms: C3_3  and  N1_4
REMARK    2  A    between atoms: N1_4  and  O1_6
REMARK    3  A    between atoms: C7_11  and  O2_12
REMARK    4  A    between atoms: C7_11  and  C10_16
REMARK    5  A    between atoms: O2_12  and  C8_13
REMARK    6  A    between atoms: C21_28  and  O5_29
ROOT
HETATM    1  C1  UNL     1      28.383  11.394  16.672  1.00  0.00     0.021 C
HETATM    2  C2  UNL     1      28.454  11.909  15.447  1.00  0.00    -0.033 C
HETATM    3  C3  UNL     1      29.639  12.648  15.093  1.00  0.00     0.048 C
HETATM    4  C4  UNL     1      29.928  13.581  14.045  1.00  0.00     0.095 C
HETATM    5  C5  UNL     1      29.994  15.026  14.569  1.00  0.00     0.021 C
HETATM    6  C6  UNL     1      30.839  15.781  13.580  1.00  0.00     0.045 C
HETATM    7  C7  UNL     1      30.247  15.817  12.182  1.00  0.00     0.102 C
HETATM    8  C13 UNL     1      29.060  14.948  12.158  1.00  0.00    -0.002 C
HETATM    9  C14 UNL     1      27.943  15.264  11.543  1.00  0.00     0.024 C
HETATM   10  C15 UNL     1      29.045  13.616  12.837  1.00  0.00     0.066 C
HETATM   11  O4  UNL     1      27.916  12.957  12.811  1.00  0.00    -0.343 OA
HETATM   12  C16 UNL     1      26.942  12.745  13.627  1.00  0.00     0.074 C
HETATM   13  C17 UNL     1      26.271  13.833  14.393  1.00  0.00     0.047 C
HETATM   14  C18 UNL     1      25.800  12.123  12.779  1.00  0.00     0.039 C
HETATM   15  C19 UNL     1      25.007  11.118  13.544  1.00  0.00     0.006 C
HETATM   16  C20 UNL     1      25.837   9.867  13.803  1.00  0.00     0.032 C
HETATM   17  C21 UNL     1      27.285  10.322  13.912  1.00  0.00     0.129 C
HETATM   18  C22 UNL     1      27.284  11.639  14.618  1.00  0.00     0.083 C
ENDROOT
BRANCH   7  19
HETATM   19  O2  UNL     1      31.303  15.294  11.368  1.00  0.00    -0.305 OA
BRANCH  19  20
HETATM   20  C8  UNL     1      32.588  15.090  11.741  1.00  0.00     0.255 C
HETATM   21  C9  UNL     1      33.606  16.174  11.646  1.00  0.00     0.126 C
HETATM   22  O3  UNL     1      32.851  13.955  12.161  1.00  0.00    -0.266 OA
ENDBRANCH  19  20
ENDBRANCH   7  19
BRANCH   7  23
HETATM   23  C10 UNL     1      29.949  17.250  11.823  1.00  0.00     0.017 C
HETATM   24  C11 UNL     1      30.614  18.250  12.710  1.00  0.00     0.013 C
HETATM   25  C12 UNL     1      30.368  17.580  10.398  1.00  0.00     0.013 C
ENDBRANCH   7  23
BRANCH   3  26
HETATM   26  N1  UNL     1      30.638  12.409  15.896  1.00  0.00    -0.272 N
ATOM     27  H1  UNL     1      30.461  12.409  16.901  1.00  0.00     0.194 HD
BRANCH  26  28
HETATM   28  O1  UNL     1      31.908  12.158  15.466  1.00  0.00    -0.290 OA
ATOM     29  H1  UNL     1      32.148  11.394  14.954  1.00  0.00     0.244 HD
ENDBRANCH  26  28
ENDBRANCH   3  26
BRANCH  17  30
HETATM   30  O5  UNL     1      28.007   9.343  14.560  1.00  0.00    -0.395 OA
ATOM     31  H5  UNL     1      27.645   8.496  14.330  1.00  0.00     0.210 HD
ENDBRANCH  17  30
TORSDOF 6
ENDMDL