MODEL 4
REMARK VINA RESULT: -6.090074013      5.622      8.322
REMARK  4 active torsions:
REMARK  status: ('A' for Active; 'I' for Inactive)
REMARK    1  A    between atoms: C2_2  and  C3_3
REMARK    2  A    between atoms: C3_3  and  O1_4
REMARK    3  A    between atoms: C8_13  and  C9_14
REMARK    4  A    between atoms: C14_20  and  O6_21
ROOT
HETATM    1  C3  UNL     1      35.947  12.094  15.295  1.00  0.00     0.087 C
HETATM    2  C4  UNL     1      34.952  11.823  16.439  1.00  0.00     0.035 C
HETATM    3  C5  UNL     1      34.160  13.078  16.611  1.00  0.00     0.020 C
HETATM    4  C6  UNL     1      34.314  13.778  17.934  1.00  0.00     0.176 C
HETATM    5  O2  UNL     1      33.305  13.630  18.812  1.00  0.00    -0.355 OA
HETATM    6  C7  UNL     1      33.118  12.520  19.503  1.00  0.00     0.325 C
HETATM    7  O3  UNL     1      32.158  11.696  18.874  1.00  0.00    -0.205 OA
HETATM    8  O4  UNL     1      31.475  12.472  18.090  1.00  0.00    -0.226 OA
HETATM    9  C8  UNL     1      31.810  12.094  16.767  1.00  0.00     0.217 C
HETATM   10  C13 UNL     1      32.740  13.014  16.113  1.00  0.00     0.049 C
HETATM   11  C14 UNL     1      34.293  11.644  19.802  1.00  0.00     0.176 C
HETATM   12  C15 UNL     1      34.669  10.721  18.694  1.00  0.00     0.042 C
HETATM   13  C16 UNL     1      35.568  11.209  17.630  1.00  0.00    -0.004 C
HETATM   14  C17 UNL     1      36.303   9.937  17.134  1.00  0.00     0.005 C
HETATM   15  C18 UNL     1      37.756  10.200  16.869  1.00  0.00     0.001 C
HETATM   16  C19 UNL     1      37.904  10.528  15.436  1.00  0.00     0.013 C
HETATM   17  C20 UNL     1      36.606  10.918  14.730  1.00  0.00    -0.005 A
HETATM   18  C21 UNL     1      35.931   9.964  13.805  1.00  0.00     0.014 A
HETATM   19  C22 UNL     1      36.845  10.948  13.206  1.00  0.00     0.014 A
ENDROOT
BRANCH   9  20
HETATM   20  C9  UNL     1      30.526  12.123  16.036  1.00  0.00     0.084 A
HETATM   21  C10 UNL     1      30.304  12.509  14.743  1.00  0.00     0.037 A
HETATM   22  C11 UNL     1      28.938  12.368  14.493  1.00  0.00     0.027 A
HETATM   23  C12 UNL     1      28.409  11.898  15.666  1.00  0.00     0.142 A
HETATM   24  O5  UNL     1      29.379  11.772  16.538  1.00  0.00    -0.324 OA
ENDBRANCH   9  20
BRANCH  11  25
HETATM   25  O6  UNL     1      35.361  12.298  20.389  1.00  0.00    -0.391 OA
ATOM     26  H6  UNL     1      36.111  12.419  19.818  1.00  0.00     0.210 HD
ENDBRANCH  11  25
BRANCH   1  27
HETATM   27  C2  UNL     1      36.878  13.163  15.744  1.00  0.00     0.001 C
HETATM   28  C1  UNL     1      37.235  14.175  15.007  1.00  0.00     0.010 C
ENDBRANCH   1  27
BRANCH   1  29
HETATM   29  O1  UNL     1      35.110  12.674  14.341  1.00  0.00    -0.385 OA
ATOM     30  H1  UNL     1      34.255  12.278  14.456  1.00  0.00     0.211 HD
ENDBRANCH   1  29
TORSDOF 4
ENDMDL