MODEL 4
REMARK VINA RESULT: -6.752327945      1.725      3.058
REMARK  5 active torsions:
REMARK  status: ('A' for Active; 'I' for Inactive)
REMARK    1  A    between atoms: C8_8  and  O1_9
REMARK    2  A    between atoms: O1_9  and  C9_10
REMARK    3  A    between atoms: C9_10  and  C10_12
REMARK    4  A    between atoms: C12_15  and  O4_16
REMARK    5  A    between atoms: C21_27  and  O6_28
ROOT
HETATM    1  C1  UNL     1      30.880  17.558   9.812  1.00  0.00     0.021 C
HETATM    2  C2  UNL     1      31.596  16.982  11.001  1.00  0.00     0.014 C
HETATM    3  C3  UNL     1      31.776  15.527  10.806  1.00  0.00    -0.000 C
HETATM    4  C4  UNL     1      32.349  14.815  12.003  1.00  0.00     0.006 C
HETATM    5  C5  UNL     1      31.347  14.019  12.778  1.00  0.00     0.013 C
HETATM    6  C6  UNL     1      30.112  14.809  13.159  1.00  0.00    -0.009 C
HETATM    7  C7  UNL     1      30.392  15.461  14.478  1.00  0.00     0.018 C
HETATM    8  C8  UNL     1      28.873  13.969  13.159  1.00  0.00     0.141 C
HETATM    9  C14 UNL     1      27.840  14.640  12.309  1.00  0.00     0.034 C
HETATM   10  C15 UNL     1      28.375  16.048  12.020  1.00  0.00     0.013 C
HETATM   11  C16 UNL     1      29.834  15.840  12.057  1.00  0.00    -0.026 C
HETATM   12  C17 UNL     1      30.285  15.133  10.766  1.00  0.00     0.016 C
HETATM   13  C18 UNL     1      30.700  16.982  12.253  1.00  0.00     0.010 C
HETATM   14  C19 UNL     1      30.160  18.341  12.369  1.00  0.00     0.033 C
HETATM   15  C20 UNL     1      31.377  19.273  12.490  1.00  0.00     0.171 C
HETATM   16  O5  UNL     1      32.274  19.133  11.472  1.00  0.00    -0.361 OA
HETATM   17  C21 UNL     1      32.762  17.811  11.330  1.00  0.00     0.265 C
ENDROOT
BRANCH   8  18
HETATM   18  O1  UNL     1      28.418  13.622  14.441  1.00  0.00    -0.311 OA
BRANCH  18  19
HETATM   19  C9  UNL     1      28.341  12.316  14.908  1.00  0.00     0.295 C
HETATM   20  O2  UNL     1      29.206  12.024  15.777  1.00  0.00    -0.259 OA
BRANCH  19  21
HETATM   21  C10 UNL     1      27.351  11.365  14.439  1.00  0.00     0.066 A
HETATM   22  C11 UNL     1      27.457  10.015  14.190  1.00  0.00     0.162 A
HETATM   23  O3  UNL     1      26.290   9.552  13.773  1.00  0.00    -0.299 OA
HETATM   24  C12 UNL     1      25.394  10.502  13.724  1.00  0.00     0.183 A
HETATM   25  C13 UNL     1      26.039  11.670  14.142  1.00  0.00     0.083 A
BRANCH  24  26
HETATM   26  O4  UNL     1      24.082  10.311  13.324  1.00  0.00    -0.341 OA
ATOM     27  H4  UNL     1      23.419   9.890  13.858  1.00  0.00     0.220 HD
ENDBRANCH  24  26
ENDBRANCH  19  21
ENDBRANCH  18  19
ENDBRANCH   8  18
BRANCH  17  28
HETATM   28  O6  UNL     1      33.738  17.869  10.348  1.00  0.00    -0.370 OA
ATOM     29  H6  UNL     1      34.348  18.593  10.428  1.00  0.00     0.212 HD
ENDBRANCH  17  28
TORSDOF 5
ENDMDL