MODEL 1
REMARK VINA RESULT: -5.920245661      0.000      0.000
REMARK  5 active torsions:
REMARK  status: ('A' for Active; 'I' for Inactive)
REMARK    1  A    between atoms: C2_2  and  C3_3
REMARK    2  A    between atoms: C3_3  and  C5_5
REMARK    3  A    between atoms: C9_9  and  O1_10
REMARK    4  A    between atoms: C11_14  and  O3_15
REMARK    5  A    between atoms: O3_15  and  O4_16
ROOT
HETATM    1  C5  UNL     1      29.763  13.948  13.470  1.00  0.00     0.000 C
HETATM    2  C6  UNL     1      30.842  13.353  14.365  1.00  0.00     0.006 C
HETATM    3  C7  UNL     1      32.106  13.340  13.585  1.00  0.00     0.004 C
HETATM    4  C8  UNL     1      32.440  14.549  12.823  1.00  0.00     0.041 C
HETATM    5  C9  UNL     1      31.320  15.397  12.340  1.00  0.00     0.092 C
HETATM    6  C10 UNL     1      30.959  15.156  10.900  1.00  0.00     0.167 C
HETATM    7  O2  UNL     1      32.003  15.467  10.047  1.00  0.00    -0.346 OA
HETATM    8  C11 UNL     1      31.449  15.767   8.805  1.00  0.00     0.334 C
HETATM    9  C12 UNL     1      30.004  16.213   9.067  1.00  0.00     0.144 C
HETATM   10  C13 UNL     1      29.104  15.153   8.496  1.00  0.00     0.215 C
HETATM   11  O5  UNL     1      28.036  15.902   8.017  1.00  0.00    -0.353 OA
HETATM   12  C14 UNL     1      28.591  17.112   7.599  1.00  0.00     0.158 C
HETATM   13  C15 UNL     1      27.504  18.161   7.742  1.00  0.00     0.078 C
HETATM   14  C16 UNL     1      29.003  17.063   6.143  1.00  0.00     0.078 C
HETATM   15  O6  UNL     1      29.687  17.367   8.391  1.00  0.00    -0.337 OA
HETATM   16  C17 UNL     1      29.996  16.300  10.536  1.00  0.00     0.060 C
HETATM   17  C18 UNL     1      28.728  16.015  11.241  1.00  0.00     0.011 C
HETATM   18  C19 UNL     1      29.044  16.261  12.726  1.00  0.00     0.013 C
HETATM   19  C20 UNL     1      30.102  15.368  13.263  1.00  0.00    -0.006 C
HETATM   20  C21 UNL     1      30.645  16.041  14.536  1.00  0.00     0.019 C
ENDROOT
BRANCH   8  21
HETATM   21  O3  UNL     1      32.128  16.906   8.328  1.00  0.00    -0.207 OA
BRANCH  21  22
HETATM   22  O4  UNL     1      32.352  16.847   7.050  1.00  0.00    -0.248 OA
ATOM     23  H4  UNL     1      33.144  17.308   6.802  1.00  0.00     0.253 HD
ENDBRANCH  21  22
ENDBRANCH   8  21
BRANCH   5  24
HETATM   24  O1  UNL     1      31.770  16.741  12.391  1.00  0.00    -0.386 OA
ATOM     25  H1  UNL     1      31.031  17.288  12.152  1.00  0.00     0.210 HD
ENDBRANCH   5  24
BRANCH   1  26
HETATM   26  C3  UNL     1      28.393  13.573  13.856  1.00  0.00    -0.014 C
HETATM   27  C4  UNL     1      27.811  12.782  12.665  1.00  0.00     0.010 C
BRANCH  26  28
HETATM   28  C2  UNL     1      28.239  12.674  15.042  1.00  0.00     0.000 C
HETATM   29  C1  UNL     1      27.787  11.269  14.607  1.00  0.00     0.005 C
ENDBRANCH  26  28
ENDBRANCH   1  26
TORSDOF 5
ENDMDL