MODEL 1
REMARK VINA RESULT: -6.100637793      0.000      0.000
REMARK  5 active torsions:
REMARK  status: ('A' for Active; 'I' for Inactive)
REMARK    1  A    between atoms: C2_2  and  O2_4
REMARK    2  A    between atoms: O2_4  and  C3_5
REMARK    3  A    between atoms: C13_16  and  O4_17
REMARK    4  A    between atoms: C16_21  and  C17_22
REMARK    5  A    between atoms: C19_25  and  O6_26
ROOT
HETATM    1  C3  UNL     1      30.897  14.750  14.099  1.00  0.00     0.144 C
HETATM    2  C4  UNL     1      32.135  15.671  14.119  1.00  0.00     0.039 C
HETATM    3  C5  UNL     1      32.500  16.243  12.803  1.00  0.00     0.004 C
HETATM    4  C6  UNL     1      33.838  15.672  12.395  1.00  0.00     0.043 C
HETATM    5  C7  UNL     1      33.963  15.096  11.050  1.00  0.00     0.054 C
HETATM    6  C8  UNL     1      34.905  13.886  11.104  1.00  0.00     0.045 C
HETATM    7  C9  UNL     1      34.604  16.041  10.049  1.00  0.00     0.045 C
HETATM    8  O3  UNL     1      32.742  14.611  10.628  1.00  0.00    -0.380 OA
HETATM    9  C10 UNL     1      31.932  15.685  10.421  1.00  0.00     0.181 C
HETATM   10  C11 UNL     1      31.462  16.329  11.752  1.00  0.00     0.013 C
HETATM   11  C12 UNL     1      31.216  17.791  11.300  1.00  0.00     0.021 C
HETATM   12  C13 UNL     1      30.179  15.661  12.041  1.00  0.00     0.078 C
HETATM   13  C14 UNL     1      28.951  16.307  11.491  1.00  0.00     0.040 C
HETATM   14  C15 UNL     1      27.877  15.390  12.039  1.00  0.00     0.013 C
HETATM   15  C16 UNL     1      28.429  14.975  13.414  1.00  0.00     0.034 C
HETATM   16  C21 UNL     1      29.800  15.486  13.489  1.00  0.00     0.022 C
HETATM   17  C22 UNL     1      29.716  16.847  14.196  1.00  0.00     0.022 C
ENDROOT
BRANCH  15  18
HETATM   18  C17 UNL     1      28.111  13.602  13.740  1.00  0.00    -0.026 A
HETATM   19  C18 UNL     1      27.647  12.621  12.872  1.00  0.00     0.152 A
HETATM   20  O5  UNL     1      27.510  11.479  13.494  1.00  0.00    -0.300 OA
HETATM   21  C19 UNL     1      27.857  11.621  14.751  1.00  0.00     0.183 A
HETATM   22  C20 UNL     1      28.242  12.950  14.945  1.00  0.00     0.073 A
BRANCH  21  23
HETATM   23  O6  UNL     1      27.841  10.619  15.720  1.00  0.00    -0.341 OA
ATOM     24  H6  UNL     1      28.528  10.447  16.353  1.00  0.00     0.220 HD
ENDBRANCH  21  23
ENDBRANCH  15  18
BRANCH   1  25
HETATM   25  O2  UNL     1      31.316  13.536  13.517  1.00  0.00    -0.315 OA
BRANCH  25  26
HETATM   26  C2  UNL     1      32.104  12.639  14.185  1.00  0.00     0.255 C
HETATM   27  C1  UNL     1      31.802  12.282  15.584  1.00  0.00     0.126 C
HETATM   28  O1  UNL     1      33.082  12.117  13.619  1.00  0.00    -0.266 OA
ENDBRANCH  25  26
ENDBRANCH   1  25
BRANCH  12  29
HETATM   29  O4  UNL     1      30.235  14.367  11.482  1.00  0.00    -0.388 OA
ATOM     30  H4  UNL     1      29.749  13.785  12.055  1.00  0.00     0.210 HD
ENDBRANCH  12  29
TORSDOF 5
ENDMDL