MODEL 5
REMARK VINA RESULT: -5.662776883      4.450      6.994
REMARK  4 active torsions:
REMARK  status: ('A' for Active; 'I' for Inactive)
REMARK    1  A    between atoms: C2_2  and  N1_3
REMARK    2  A    between atoms: N1_3  and  C3_5
REMARK    3  A    between atoms: C3_5  and  S2_7
REMARK    4  A    between atoms: S2_7  and  C4_8
ROOT
HETATM    1  C4  UNL     1      30.374  13.295  15.432  1.00  0.00     0.084 C
HETATM    2  C5  UNL     1      31.050  12.887  14.142  1.00  0.00     0.019 C
HETATM    3  C6  UNL     1      30.252  11.629  13.785  1.00  0.00     0.011 C
HETATM    4  C7  UNL     1      28.937  11.731  14.501  1.00  0.00     0.054 C
HETATM    5  C8  UNL     1      28.887  13.099  15.077  1.00  0.00     0.146 C
HETATM    6  O1  UNL     1      28.505  14.120  14.335  1.00  0.00    -0.346 OA
HETATM    7  C9  UNL     1      27.852  13.957  13.156  1.00  0.00     0.194 C
HETATM    8  C10 UNL     1      28.127  15.276  12.387  1.00  0.00     0.082 C
HETATM    9  C11 UNL     1      26.374  13.997  13.403  1.00  0.00     0.071 C
HETATM   10  C12 UNL     1      25.713  12.647  13.381  1.00  0.00     0.013 C
HETATM   11  C13 UNL     1      26.472  11.765  14.337  1.00  0.00     0.028 C
HETATM   12  C14 UNL     1      25.693  10.534  14.738  1.00  0.00    -0.012 C
HETATM   13  C15 UNL     1      24.872   9.959  13.637  1.00  0.00     0.010 C
HETATM   14  C16 UNL     1      26.842   9.553  15.016  1.00  0.00     0.008 C
HETATM   15  C17 UNL     1      27.683   9.791  13.758  1.00  0.00     0.042 C
HETATM   16  C18 UNL     1      27.750  11.323  13.706  1.00  0.00     0.106 C
HETATM   17  O2  UNL     1      27.833  11.799  12.422  1.00  0.00    -0.226 OA
HETATM   18  O3  UNL     1      28.296  12.983  12.329  1.00  0.00    -0.200 OA
ENDROOT
BRANCH   1  19
HETATM   19  S2  UNL     1      30.761  12.048  16.678  1.00  0.00    -0.093 SA
BRANCH  19  20
HETATM   20  C3  UNL     1      32.401  12.166  17.316  1.00  0.00     0.134 C
HETATM   21  S1  UNL     1      32.621  12.383  18.919  1.00  0.00    -0.053 SA
BRANCH  20  22
HETATM   22  N1  UNL     1      33.566  12.072  16.493  1.00  0.00    -0.376 N
ATOM     23  H1  UNL     1      33.773  12.827  15.840  1.00  0.00     0.160 HD
BRANCH  22  24
HETATM   24  C2  UNL     1      34.460  10.935  16.561  1.00  0.00     0.116 C
HETATM   25  C1  UNL     1      35.007  10.580  15.194  1.00  0.00     0.026 C
ENDBRANCH  22  24
ENDBRANCH  20  22
ENDBRANCH  19  20
ENDBRANCH   1  19
TORSDOF 4
ENDMDL