MODEL 1
REMARK VINA RESULT: -6.104457312      0.000      0.000
REMARK  6 active torsions:
REMARK  status: ('A' for Active; 'I' for Inactive)
REMARK    1  A    between atoms: C2_2  and  C4_4
REMARK    2  A    between atoms: C5_5  and  O1_6
REMARK    3  A    between atoms: O1_6  and  C6_7
REMARK    4  A    between atoms: C16_18  and  O3_19
REMARK    5  A    between atoms: C18_22  and  O4_23
REMARK    6  A    between atoms: O4_23  and  C19_24
ROOT
HETATM    1  C4  UNL     1      31.377  14.909  13.568  1.00  0.00     0.104 C
HETATM    2  C5  UNL     1      31.904  14.779  12.383  1.00  0.00     0.091 C
HETATM    3  C8  UNL     1      33.336  14.284  12.247  1.00  0.00     0.076 C
HETATM    4  C9  UNL     1      33.474  13.224  13.325  1.00  0.00     0.036 C
HETATM    5  C10 UNL     1      34.738  12.442  13.175  1.00  0.00     0.027 C
HETATM    6  C11 UNL     1      34.562  11.516  11.991  1.00  0.00     0.008 C
HETATM    7  C12 UNL     1      35.970  10.965  11.732  1.00  0.00     0.005 C
HETATM    8  C13 UNL     1      36.254   9.996  12.821  1.00  0.00    -0.016 C
HETATM    9  C14 UNL     1      37.782   9.926  12.962  1.00  0.00     0.010 C
HETATM   10  C15 UNL     1      35.603  10.261  14.119  1.00  0.00     0.042 C
HETATM   11  C16 UNL     1      35.104  11.634  14.371  1.00  0.00     0.065 C
HETATM   12  C17 UNL     1      33.874  11.597  15.263  1.00  0.00     0.074 C
HETATM   13  C18 UNL     1      33.655  13.010  15.778  1.00  0.00     0.169 C
HETATM   14  C21 UNL     1      33.390  13.977  14.636  1.00  0.00     0.095 C
HETATM   15  C22 UNL     1      34.415  15.123  14.641  1.00  0.00     0.050 C
HETATM   16  O6  UNL     1      32.141  14.583  14.702  1.00  0.00    -0.334 OA
ENDROOT
BRANCH   2  17
HETATM   17  O1  UNL     1      31.243  15.066  11.177  1.00  0.00    -0.281 OA
BRANCH  17  18
HETATM   18  C6  UNL     1      31.768  16.109  10.380  1.00  0.00     0.259 C
HETATM   19  C7  UNL     1      31.843  17.488  10.940  1.00  0.00     0.126 C
HETATM   20  O2  UNL     1      32.147  15.811   9.221  1.00  0.00    -0.265 OA
ENDBRANCH  17  18
ENDBRANCH   2  17
BRANCH   1  21
HETATM   21  C2  UNL     1      30.005  15.387  13.787  1.00  0.00    -0.035 C
HETATM   22  C1  UNL     1      29.802  16.691  13.996  1.00  0.00     0.021 C
HETATM   23  C3  UNL     1      28.812  14.542  13.755  1.00  0.00     0.050 C
ENDBRANCH   1  21
BRANCH  13  24
HETATM   24  O4  UNL     1      32.706  13.085  16.788  1.00  0.00    -0.313 OA
BRANCH  24  25
HETATM   25  C19 UNL     1      31.708  12.147  16.919  1.00  0.00     0.255 C
HETATM   26  C20 UNL     1      30.511  12.065  16.050  1.00  0.00     0.126 C
HETATM   27  O5  UNL     1      31.849  11.315  17.850  1.00  0.00    -0.266 OA
ENDBRANCH  24  25
ENDBRANCH  13  24
BRANCH  11  28
HETATM   28  O3  UNL     1      36.073  12.328  15.098  1.00  0.00    -0.389 OA
ATOM     29  H3  UNL     1      36.571  11.704  15.612  1.00  0.00     0.210 HD
ENDBRANCH  11  28
TORSDOF 6
ENDMDL