MODEL 5
REMARK VINA RESULT: -5.927535791      0.970      1.306
REMARK  5 active torsions:
REMARK  status: ('A' for Active; 'I' for Inactive)
REMARK    1  A    between atoms: C3_3  and  O1_4
REMARK    2  A    between atoms: C8_10  and  O2_11
REMARK    3  A    between atoms: C15_20  and  C16_21
REMARK    4  A    between atoms: C16_21  and  S1_24
REMARK    5  A    between atoms: S1_24  and  S2_25
ROOT
HETATM    1  C1  UNL     1      28.274  11.904  16.499  1.00  0.00     0.017 C
HETATM    2  C2  UNL     1      28.227  11.629  15.207  1.00  0.00    -0.056 C
HETATM    3  C3  UNL     1      27.110  10.772  14.677  1.00  0.00     0.146 C
HETATM    4  C4  UNL     1      26.966  11.175  13.219  1.00  0.00     0.036 C
HETATM    5  C5  UNL     1      27.116  12.657  13.158  1.00  0.00     0.008 C
HETATM    6  C6  UNL     1      28.616  13.037  13.227  1.00  0.00    -0.002 C
HETATM    7  C7  UNL     1      28.765  14.478  13.291  1.00  0.00     0.066 C
HETATM    8  C8  UNL     1      29.548  15.155  14.336  1.00  0.00     0.260 C
HETATM    9  O3  UNL     1      30.812  14.877  14.563  1.00  0.00    -0.326 OA
HETATM   10  C9  UNL     1      31.659  14.302  13.724  1.00  0.00     0.167 C
HETATM   11  C10 UNL     1      31.510  12.790  13.798  1.00  0.00     0.069 C
HETATM   12  C11 UNL     1      30.488  12.429  14.855  1.00  0.00     0.015 C
HETATM   13  C12 UNL     1      29.212  12.106  14.193  1.00  0.00     0.020 C
HETATM   14  C13 UNL     1      31.734  14.795  12.316  1.00  0.00     0.071 C
HETATM   15  C14 UNL     1      33.185  14.680  11.890  1.00  0.00     0.039 C
HETATM   16  C15 UNL     1      33.839  14.279  13.163  1.00  0.00     0.144 C
HETATM   17  O4  UNL     1      32.974  14.580  14.171  1.00  0.00    -0.348 OA
ENDROOT
BRANCH   8  18
HETATM   18  O2  UNL     1      29.435  16.551  14.085  1.00  0.00    -0.371 OA
ATOM     19  H2  UNL     1      29.943  16.728  13.302  1.00  0.00     0.212 HD
ENDBRANCH   8  18
BRANCH  16  20
HETATM   20  C16 UNL     1      35.129  15.045  13.335  1.00  0.00     0.037 C
HETATM   21  C17 UNL     1      35.790  15.359  12.009  1.00  0.00     0.030 C
HETATM   22  C18 UNL     1      34.879  16.396  14.002  1.00  0.00     0.030 C
BRANCH  20  23
HETATM   23  S1  UNL     1      36.327  14.176  14.372  1.00  0.00    -0.086 SA
BRANCH  23  24
HETATM   24  S2  UNL     1      36.620  15.228  16.213  1.00  0.00    -0.101 SA
HETATM   25  C19 UNL     1      35.370  14.761  17.440  1.00  0.00     0.102 C
ENDBRANCH  23  24
ENDBRANCH  20  23
ENDBRANCH  16  20
BRANCH   3  26
HETATM   26  O1  UNL     1      27.602   9.462  14.672  1.00  0.00    -0.391 OA
ATOM     27  H1  UNL     1      26.957   8.940  15.134  1.00  0.00     0.210 HD
ENDBRANCH   3  26
TORSDOF 5
ENDMDL