MODEL 5
REMARK VINA RESULT: -5.939517698      2.250      2.793
REMARK  6 active torsions:
REMARK  status: ('A' for Active; 'I' for Inactive)
REMARK    1  A    between atoms: C2_2  and  C5_5
REMARK    2  A    between atoms: C5_5  and  O2_7
REMARK    3  A    between atoms: O2_7  and  N1_8
REMARK    4  A    between atoms: C8_12  and  O3_13
REMARK    5  A    between atoms: C16_22  and  O4_23
REMARK    6  A    between atoms: O4_23  and  C17_24
ROOT
HETATM    1  N1  UNL     1      30.235  13.605  14.818  1.00  0.00    -0.265 N
ATOM      2  H1  UNL     1      30.708  12.903  15.386  1.00  0.00     0.194 HD
HETATM    3  C6  UNL     1      30.980  14.473  14.232  1.00  0.00     0.022 C
HETATM    4  C7  UNL     1      32.441  14.554  14.297  1.00  0.00     0.087 C
HETATM    5  C8  UNL     1      32.870  15.708  13.427  1.00  0.00     0.129 C
HETATM    6  C9  UNL     1      31.624  16.463  13.106  1.00  0.00     0.037 C
HETATM    7  C10 UNL     1      30.460  15.568  13.370  1.00  0.00     0.003 C
HETATM    8  C11 UNL     1      29.386  16.269  14.215  1.00  0.00     0.022 C
HETATM    9  C12 UNL     1      29.841  14.952  12.167  1.00  0.00     0.016 C
HETATM   10  C13 UNL     1      30.851  14.796  11.085  1.00  0.00     0.013 C
HETATM   11  C14 UNL     1      31.281  16.176  10.633  1.00  0.00    -0.009 C
HETATM   12  C15 UNL     1      30.192  16.689   9.717  1.00  0.00     0.018 C
HETATM   13  C16 UNL     1      32.545  16.102   9.783  1.00  0.00     0.142 C
HETATM   14  C18 UNL     1      33.053  17.525   9.915  1.00  0.00     0.034 C
HETATM   15  C19 UNL     1      32.976  17.696  11.433  1.00  0.00     0.013 C
HETATM   16  C20 UNL     1      31.623  17.094  11.743  1.00  0.00    -0.027 C
HETATM   17  C21 UNL     1      30.658  18.286  11.830  1.00  0.00     0.016 C
ENDROOT
BRANCH   1  18
HETATM   18  O2  UNL     1      28.886  13.531  14.758  1.00  0.00    -0.199 OA
BRANCH  18  19
HETATM   19  C5  UNL     1      28.234  12.336  15.070  1.00  0.00     0.288 C
HETATM   20  O1  UNL     1      28.465  11.836  16.180  1.00  0.00    -0.262 OA
BRANCH  19  21
HETATM   21  C2  UNL     1      27.305  11.674  14.141  1.00  0.00     0.039 C
HETATM   22  C1  UNL     1      27.553  10.179  14.111  1.00  0.00     0.025 C
HETATM   23  C3  UNL     1      25.851  11.897  14.548  1.00  0.00     0.025 C
HETATM   24  C4  UNL     1      27.466  12.226  12.759  1.00  0.00     0.025 C
ENDBRANCH  19  21
ENDBRANCH  18  19
ENDBRANCH   1  18
BRANCH   5  25
HETATM   25  O3  UNL     1      33.758  16.477  14.216  1.00  0.00    -0.395 OA
ATOM     26  H3  UNL     1      34.548  16.575  13.696  1.00  0.00     0.210 HD
ENDBRANCH   5  25
BRANCH  13  27
HETATM   27  O4  UNL     1      32.229  15.919   8.416  1.00  0.00    -0.300 OA
BRANCH  27  28
HETATM   28  C17 UNL     1      32.506  14.807   7.680  1.00  0.00     0.373 C
HETATM   29  N2  UNL     1      33.256  14.884   6.476  1.00  0.00    -0.032 NA
HETATM   30  O5  UNL     1      32.083  13.695   8.087  1.00  0.00    -0.242 OA
ENDBRANCH  27  28
ENDBRANCH  13  27
TORSDOF 6
ENDMDL