MODEL 4
REMARK VINA RESULT: -8.336383089      4.145      7.399
REMARK  11 active torsions:
REMARK  status: ('A' for Active; 'I' for Inactive)
REMARK    1  A    between atoms: S1_2  and  N1_5
REMARK    2  A    between atoms: N1_5  and  C2_7
REMARK    3  A    between atoms: C5_10  and  C6_11
REMARK    4  A    between atoms: C6_11  and  C7_12
REMARK    5  A    between atoms: C7_12  and  N2_13
REMARK    6  A    between atoms: C7_12  and  C11_23
REMARK       I    between atoms: N2_13  and  C8_15
REMARK    7  A    between atoms: C8_15  and  C9_17
REMARK    8  A    between atoms: C9_17  and  C10_19
REMARK    9  A    between atoms: C11_23  and  O4_24
REMARK   10  A    between atoms: C11_23  and  N3_26
REMARK   11  A    between atoms: C14_29  and  N4_30
ROOT
HETATM    1  C7  UNL     1     -86.738 -13.892  15.327  1.00  0.00     0.163 C
ENDROOT
BRANCH   1   2
HETATM    2  C6  UNL     1     -88.124 -13.642  15.801  1.00  0.00     0.072 C
BRANCH   2   3
HETATM    3  C5  UNL     1     -89.131 -14.284  14.876  1.00  0.00    -0.056 A
HETATM    4  C4  UNL     1     -89.710 -15.478  15.188  1.00  0.00     0.009 A
HETATM    5  C3  UNL     1     -90.655 -16.076  14.348  1.00  0.00     0.030 A
HETATM    6  C2  UNL     1     -91.024 -15.447  13.164  1.00  0.00     0.042 A
HETATM    7  C23 UNL     1     -90.445 -14.251  12.851  1.00  0.00     0.030 A
HETATM    8  C22 UNL     1     -89.505 -13.680  13.708  1.00  0.00     0.009 A
BRANCH   6   9
HETATM    9  N1  UNL     1     -92.010 -16.102  12.355  1.00  0.00    -0.285 N
ATOM     10  H1  UNL     1     -92.146 -17.102  12.503  1.00  0.00     0.178 HD
BRANCH   9  11
HETATM   11  S1  UNL     1     -92.972 -15.354  11.171  1.00  0.00     0.227 S
HETATM   12  C1  UNL     1     -92.019 -14.861   9.765  1.00  0.00     0.186 C
HETATM   13  O1  UNL     1     -93.998 -16.356  10.662  1.00  0.00    -0.206 OA
HETATM   14  O2  UNL     1     -93.704 -14.150  11.706  1.00  0.00    -0.206 OA
ENDBRANCH   9  11
ENDBRANCH   6   9
ENDBRANCH   2   3
ENDBRANCH   1   2
BRANCH   1  15
HETATM   15  N2  UNL     1     -86.544 -15.231  14.768  1.00  0.00    -0.347 N
HETATM   16  C8  UNL     1     -86.192 -16.303  15.625  1.00  0.00     0.241 C
HETATM   17  O3  UNL     1     -86.047 -16.136  16.878  1.00  0.00    -0.272 OA
ATOM     18  H2  UNL     1     -86.661 -15.391  13.767  1.00  0.00     0.163 HD
BRANCH  16  19
HETATM   19  C9  UNL     1     -85.966 -17.680  15.125  1.00  0.00     0.257 C
HETATM   20  S2  UNL     1     -85.002 -17.700  13.613  1.00  0.00    -0.073 SA
BRANCH  19  21
HETATM   21  C10 UNL     1     -87.275 -18.393  14.823  1.00  0.00     0.409 C
HETATM   22  F1  UNL     1     -88.137 -18.380  15.900  1.00  0.00    -0.169 F
HETATM   23  F2  UNL     1     -86.966 -19.701  14.485  1.00  0.00    -0.169 F
HETATM   24  F3  UNL     1     -87.897 -17.831  13.723  1.00  0.00    -0.169 F
ENDBRANCH  19  21
ENDBRANCH  16  19
ENDBRANCH   1  15
BRANCH   1  25
HETATM   25  C11 UNL     1     -86.217 -12.872  14.426  1.00  0.00     0.137 C
BRANCH  25  26
HETATM   26  O4  UNL     1     -86.100 -11.691  15.024  1.00  0.00    -0.348 OA
ATOM     27  H4  UNL     1     -85.231 -11.321  14.914  1.00  0.00     0.219 HD
ENDBRANCH  25  26
BRANCH  25  28
HETATM   28  N3  UNL     1     -85.820 -12.849  13.104  1.00  0.00    -0.364 N
HETATM   29  C12 UNL     1     -86.689 -12.129  12.140  1.00  0.00     0.127 C
HETATM   30  C13 UNL     1     -86.888 -13.126  11.013  1.00  0.00     0.055 C
HETATM   31  C14 UNL     1     -85.619 -13.089  10.190  1.00  0.00     0.226 C
HETATM   32  C20 UNL     1     -84.487 -12.823  11.100  1.00  0.00     0.055 C
HETATM   33  C21 UNL     1     -84.653 -13.416  12.509  1.00  0.00     0.127 C
BRANCH  31  34
HETATM   34  N4  UNL     1     -85.539 -14.303   9.435  1.00  0.00     0.093 N
HETATM   35  C15 UNL     1     -86.851 -14.912   9.416  1.00  0.00     0.273 C
HETATM   36  C16 UNL     1     -87.283 -15.392   8.058  1.00  0.00     0.030 C
HETATM   37  C17 UNL     1     -87.311 -14.300   7.035  1.00  0.00     0.003 C
HETATM   38  C18 UNL     1     -86.145 -13.340   7.258  1.00  0.00     0.030 C
HETATM   39  C19 UNL     1     -85.118 -14.112   8.067  1.00  0.00     0.273 C
ENDBRANCH  31  34
ENDBRANCH  25  28
ENDBRANCH   1  25
TORSDOF 11
ENDMDL