MODEL 4
REMARK VINA RESULT: -8.876972534      2.677      4.586
REMARK  13 active torsions:
REMARK  status: ('A' for Active; 'I' for Inactive)
REMARK    1  A    between atoms: N1_2  and  C2_3
REMARK       I    between atoms: N1_2  and  C4_11
REMARK    2  A    between atoms: C2_3  and  C3_4
REMARK    3  A    between atoms: C3_4  and  O1_5
REMARK    4  A    between atoms: N2_7  and  O2_9
REMARK    5  A    between atoms: C4_11  and  C5_13
REMARK    6  A    between atoms: C5_13  and  C6_14
REMARK    7  A    between atoms: C5_13  and  C13_21
REMARK    8  A    between atoms: C6_14  and  C7_15
REMARK       I    between atoms: C13_21  and  N3_23
REMARK    9  A    between atoms: N4_26  and  C16_27
REMARK   10  A    between atoms: C16_27  and  C17_28
REMARK   11  A    between atoms: C20_31  and  O5_32
REMARK   12  A    between atoms: C21_34  and  C22_35
REMARK   13  A    between atoms: C22_35  and  C23_36
ROOT
HETATM    1  C13 UNL     1     -85.436 -14.111  14.723  1.00  0.00     0.241 C
HETATM    2  O4  UNL     1     -84.275 -14.667  14.729  1.00  0.00    -0.272 OA
HETATM    3  N3  UNL     1     -86.556 -14.929  14.824  1.00  0.00    -0.268 N
HETATM    4  C14 UNL     1     -86.533 -16.399  14.910  1.00  0.00     0.157 C
HETATM    5  C15 UNL     1     -87.763 -16.745  14.080  1.00  0.00     0.148 C
HETATM    6  N4  UNL     1     -88.730 -15.814  14.685  1.00  0.00    -0.332 N
HETATM    7  C25 UNL     1     -87.959 -14.637  14.902  1.00  0.00     0.327 C
HETATM    8  O6  UNL     1     -88.413 -13.489  15.132  1.00  0.00    -0.247 OA
ENDROOT
BRANCH   1   9
HETATM    9  C5  UNL     1     -85.380 -12.637  14.606  1.00  0.00     0.171 C
BRANCH   9  10
HETATM   10  C4  UNL     1     -84.343 -12.231  15.639  1.00  0.00     0.233 C
HETATM   11  N1  UNL     1     -84.414 -12.487  17.005  1.00  0.00    -0.348 N
HETATM   12  C1  UNL     1     -83.277 -12.067  17.847  1.00  0.00     0.153 C
HETATM   13  O3  UNL     1     -83.301 -11.599  15.227  1.00  0.00    -0.272 OA
BRANCH  11  14
HETATM   14  C2  UNL     1     -85.500 -13.088  17.727  1.00  0.00     0.210 C
BRANCH  14  15
HETATM   15  C3  UNL     1     -86.679 -12.200  17.888  1.00  0.00     0.153 C
HETATM   16  N2  UNL     1     -87.839 -12.718  18.084  1.00  0.00    -0.250 N
ATOM     17  H2  UNL     1     -88.640 -12.096  18.193  1.00  0.00     0.196 HD
BRANCH  15  18
HETATM   18  O1  UNL     1     -86.555 -10.835  17.832  1.00  0.00    -0.347 OA
ATOM     19  H1  UNL     1     -87.301 -10.266  17.976  1.00  0.00     0.219 HD
ENDBRANCH  15  18
BRANCH  16  20
HETATM   20  O2  UNL     1     -88.046 -14.080  18.153  1.00  0.00    -0.288 OA
ATOM     21  H2  UNL     1     -88.664 -14.476  18.756  1.00  0.00     0.244 HD
ENDBRANCH  16  20
ENDBRANCH  14  15
ENDBRANCH  11  14
ENDBRANCH   9  10
BRANCH   9  22
HETATM   22  C6  UNL     1     -84.805 -12.159  13.305  1.00  0.00     0.028 C
BRANCH  22  23
HETATM   23  C7  UNL     1     -85.617 -12.176  12.070  1.00  0.00    -0.013 C
HETATM   24  C8  UNL     1     -85.102 -13.228  11.091  1.00  0.00     0.005 C
HETATM   25  C9  UNL     1     -85.797 -14.528  11.165  1.00  0.00     0.000 C
HETATM   26  C10 UNL     1     -87.272 -14.488  11.311  1.00  0.00     0.000 C
HETATM   27  C11 UNL     1     -87.730 -13.060  11.098  1.00  0.00     0.000 C
HETATM   28  C12 UNL     1     -87.071 -12.294  12.291  1.00  0.00     0.005 C
ENDBRANCH  22  23
ENDBRANCH   9  22
ENDBRANCH   1   9
BRANCH   6  29
HETATM   29  C16 UNL     1     -90.114 -16.053  14.978  1.00  0.00     0.132 C
BRANCH  29  30
HETATM   30  C17 UNL     1     -91.030 -15.852  13.775  1.00  0.00     0.004 C
HETATM   31  C18 UNL     1     -90.638 -14.569  13.107  1.00  0.00     0.009 C
HETATM   32  C19 UNL     1     -91.390 -14.355  11.807  1.00  0.00     0.032 C
HETATM   33  C20 UNL     1     -92.024 -15.616  11.316  1.00  0.00     0.122 C
HETATM   34  C21 UNL     1     -90.972 -16.735  11.458  1.00  0.00     0.023 C
HETATM   35  C24 UNL     1     -90.864 -17.076  12.895  1.00  0.00     0.013 C
BRANCH  33  36
HETATM   36  O5  UNL     1     -93.213 -15.924  11.917  1.00  0.00    -0.395 OA
ATOM     37  H5  UNL     1     -93.941 -15.376  11.650  1.00  0.00     0.210 HD
ENDBRANCH  33  36
BRANCH  34  38
HETATM   38  C22 UNL     1     -91.328 -17.854  10.544  1.00  0.00     0.124 C
BRANCH  38  39
HETATM   39  C23 UNL     1     -90.685 -17.700   9.198  1.00  0.00     0.388 C
HETATM   40  F1  UNL     1     -91.626 -17.129   8.335  1.00  0.00    -0.171 F
HETATM   41  F2  UNL     1     -89.554 -16.937   9.265  1.00  0.00    -0.171 F
HETATM   42  F3  UNL     1     -90.406 -18.965   8.696  1.00  0.00    -0.171 F
ENDBRANCH  38  39
ENDBRANCH  34  38
ENDBRANCH  29  30
ENDBRANCH   6  29
TORSDOF 13
ENDMDL