MODEL 2
REMARK VINA RESULT: -8.272174775      2.264      3.387
REMARK  12 active torsions:
REMARK  status: ('A' for Active; 'I' for Inactive)
REMARK    1  A    between atoms: C2_2  and  O1_3
REMARK    2  A    between atoms: C2_2  and  N1_5
REMARK    3  A    between atoms: N1_5  and  C3_7
REMARK    4  A    between atoms: C6_10  and  C7_11
REMARK    5  A    between atoms: C7_11  and  C8_12
REMARK       I    between atoms: C8_12  and  N2_14
REMARK    6  A    between atoms: N2_14  and  C9_15
REMARK    7  A    between atoms: C11_17  and  O3_18
REMARK    8  A    between atoms: C11_17  and  N3_20
REMARK    9  A    between atoms: C16_26  and  C17_27
REMARK       I    between atoms: C17_27  and  N4_29
REMARK   10  A    between atoms: N4_29  and  C18_31
REMARK   11  A    between atoms: C18_31  and  C20_33
REMARK   12  A    between atoms: C20_33  and  C21_35
ROOT
HETATM    1  C9  UNL     1     -86.081 -12.183  12.146  1.00  0.00     0.135 C
HETATM    2  C10 UNL     1     -84.815 -12.006  13.121  1.00  0.00     0.090 C
HETATM    3  C11 UNL     1     -87.134 -12.625  12.994  1.00  0.00     0.176 C
ENDROOT
BRANCH   3   4
HETATM    4  O3  UNL     1     -88.003 -11.795  13.492  1.00  0.00    -0.344 OA
ATOM      5  H3  UNL     1     -88.101 -11.681  14.430  1.00  0.00     0.219 HD
ENDBRANCH   3   4
BRANCH   3   6
HETATM    6  N3  UNL     1     -87.419 -13.978  13.431  1.00  0.00    -0.336 N
HETATM    7  C12 UNL     1     -86.986 -14.326  14.786  1.00  0.00     0.201 C
HETATM    8  S1  UNL     1     -87.951 -15.785  15.204  1.00  0.00    -0.137 SA
HETATM    9  C13 UNL     1     -89.139 -15.630  13.791  1.00  0.00     0.032 C
HETATM   10  C14 UNL     1     -89.589 -16.983  13.420  1.00  0.00     0.029 C
HETATM   11  C15 UNL     1     -90.179 -14.697  14.199  1.00  0.00     0.029 C
HETATM   12  C16 UNL     1     -88.100 -15.022  12.795  1.00  0.00     0.197 C
BRANCH  12  13
HETATM   13  C17 UNL     1     -88.848 -14.717  11.549  1.00  0.00     0.242 C
HETATM   14  O4  UNL     1     -89.381 -13.553  11.442  1.00  0.00    -0.271 OA
HETATM   15  N4  UNL     1     -88.987 -15.612  10.472  1.00  0.00    -0.348 N
ATOM     16  H4  UNL     1     -88.569 -16.530  10.624  1.00  0.00     0.163 HD
BRANCH  15  17
HETATM   17  C18 UNL     1     -89.610 -15.449   9.213  1.00  0.00     0.155 C
HETATM   18  C19 UNL     1     -88.637 -15.473   8.086  1.00  0.00     0.040 C
BRANCH  17  19
HETATM   19  C20 UNL     1     -90.867 -16.239   9.014  1.00  0.00     0.203 C
HETATM   20  O5  UNL     1     -91.711 -15.701   8.305  1.00  0.00    -0.291 OA
BRANCH  19  21
HETATM   21  C21 UNL     1     -91.126 -17.566   9.585  1.00  0.00     0.237 C
HETATM   22  C22 UNL     1     -91.702 -18.542   8.587  1.00  0.00     0.079 C
HETATM   23  F1  UNL     1     -89.977 -18.121  10.092  1.00  0.00    -0.217 F
HETATM   24 CL1  UNL     1     -92.244 -17.444  10.995  1.00  0.00    -0.074 Cl
ENDBRANCH  19  21
ENDBRANCH  17  19
ENDBRANCH  15  17
ENDBRANCH  12  13
ENDBRANCH   3   6
BRANCH   1  25
HETATM   25  N2  UNL     1     -85.682 -12.541  10.922  1.00  0.00    -0.371 NA
HETATM   26  C8  UNL     1     -85.264 -12.914   9.639  1.00  0.00     0.296 C
HETATM   27  O2  UNL     1     -84.614 -12.031   8.976  1.00  0.00    -0.257 OA
BRANCH  26  28
HETATM   28  C7  UNL     1     -85.464 -14.171   8.920  1.00  0.00     0.157 C
BRANCH  28  29
HETATM   29  C6  UNL     1     -84.856 -14.111   7.544  1.00  0.00    -0.048 A
HETATM   30  C5  UNL     1     -85.636 -13.797   6.425  1.00  0.00     0.010 A
HETATM   31  C4  UNL     1     -85.087 -13.748   5.191  1.00  0.00     0.030 A
HETATM   32  C3  UNL     1     -83.751 -14.013   4.953  1.00  0.00     0.033 A
HETATM   33  C24 UNL     1     -82.979 -14.335   6.024  1.00  0.00     0.030 A
HETATM   34  C23 UNL     1     -83.547 -14.371   7.299  1.00  0.00     0.010 A
BRANCH  32  35
HETATM   35  N1  UNL     1     -83.110 -13.948   3.682  1.00  0.00    -0.341 N
ATOM     36  H1  UNL     1     -83.444 -14.504   2.894  1.00  0.00     0.167 HD
BRANCH  35  37
HETATM   37  C2  UNL     1     -81.997 -13.089   3.548  1.00  0.00     0.111 C
HETATM   38  C1  UNL     1     -80.632 -13.412   3.243  1.00  0.00     0.097 C
BRANCH  37  39
HETATM   39  O1  UNL     1     -82.269 -11.796   3.724  1.00  0.00    -0.350 OA
ATOM     40  H1  UNL     1     -82.977 -11.596   4.324  1.00  0.00     0.219 HD
ENDBRANCH  37  39
ENDBRANCH  35  37
ENDBRANCH  32  35
ENDBRANCH  28  29
ENDBRANCH  26  28
ENDBRANCH   1  25
TORSDOF 12
ENDMDL