MODEL 2
REMARK VINA RESULT: -8.912671598      2.555      5.617
REMARK  10 active torsions:
REMARK  status: ('A' for Active; 'I' for Inactive)
REMARK    1  A    between atoms: C2_2  and  C4_4
REMARK    2  A    between atoms: C4_4  and  N1_5
REMARK    3  A    between atoms: C4_4  and  C23_33
REMARK       I    between atoms: N1_5  and  C5_7
REMARK    4  A    between atoms: C5_7  and  C6_9
REMARK    5  A    between atoms: C6_9  and  C7_10
REMARK    6  A    between atoms: C6_9  and  S1_25
REMARK       I    between atoms: C7_10  and  N2_12
REMARK    7  A    between atoms: C8_14  and  C9_15
REMARK    8  A    between atoms: S1_25  and  C17_27
REMARK    9  A    between atoms: C23_33  and  C24_35
REMARK   10  A    between atoms: C24_35  and  C25_38
ROOT
HETATM    1  C6  UNL     1     -87.808 -14.548  12.085  1.00  0.00     0.268 C
ENDROOT
BRANCH   1   2
HETATM    2  C5  UNL     1     -87.142 -14.801  13.416  1.00  0.00     0.244 C
HETATM    3  N1  UNL     1     -86.781 -16.120  13.799  1.00  0.00    -0.348 N
ATOM      4  H1  UNL     1     -86.982 -16.887  13.158  1.00  0.00     0.163 HD
HETATM    5  O1  UNL     1     -86.932 -13.813  14.141  1.00  0.00    -0.272 OA
BRANCH   3   6
HETATM    6  C4  UNL     1     -86.140 -16.421  15.062  1.00  0.00     0.164 C
BRANCH   6   7
HETATM    7  C2  UNL     1     -84.877 -17.223  14.867  1.00  0.00     0.008 C
HETATM    8  C1  UNL     1     -83.731 -16.275  14.481  1.00  0.00     0.012 C
HETATM    9  C3  UNL     1     -84.990 -18.230  13.746  1.00  0.00     0.012 C
ENDBRANCH   6   7
BRANCH   6  10
HETATM   10  C23 UNL     1     -87.094 -16.984  16.019  1.00  0.00     0.230 C
HETATM   11  O4  UNL     1     -86.839 -16.825  17.217  1.00  0.00    -0.288 OA
BRANCH  10  12
HETATM   12  C24 UNL     1     -88.325 -17.720  15.664  1.00  0.00     0.381 C
HETATM   13  F1  UNL     1     -88.188 -18.441  14.467  1.00  0.00    -0.187 F
HETATM   14  F2  UNL     1     -88.697 -18.601  16.690  1.00  0.00    -0.187 F
BRANCH  12  15
HETATM   15  C25 UNL     1     -89.502 -16.849  15.440  1.00  0.00     0.311 C
HETATM   16  N4  UNL     1     -89.402 -15.497  15.854  1.00  0.00    -0.056 NA
HETATM   17  O5  UNL     1     -90.531 -17.276  14.918  1.00  0.00    -0.270 OA
ENDBRANCH  12  15
ENDBRANCH  10  12
ENDBRANCH   6  10
ENDBRANCH   3   6
ENDBRANCH   1   2
BRANCH   1  18
HETATM   18  C7  UNL     1     -88.974 -13.637  12.272  1.00  0.00     0.247 C
HETATM   19  O2  UNL     1     -89.027 -12.483  11.710  1.00  0.00    -0.271 OA
HETATM   20  N2  UNL     1     -90.056 -13.983  13.057  1.00  0.00    -0.335 N
HETATM   21  C8  UNL     1     -91.134 -14.493  12.785  1.00  0.00     0.104 C
ATOM     22  H2  UNL     1     -89.934 -13.774  14.049  1.00  0.00     0.168 HD
BRANCH  21  23
HETATM   23  C9  UNL     1     -91.645 -14.915  11.510  1.00  0.00     0.007 A
HETATM   24  C10 UNL     1     -92.565 -14.328  10.687  1.00  0.00     0.102 A
HETATM   25  N3  UNL     1     -92.743 -15.094   9.565  1.00  0.00    -0.364 N
HETATM   26  C11 UNL     1     -91.959 -16.180   9.625  1.00  0.00     0.043 A
ATOM     27  H3  UNL     1     -93.378 -14.871   8.799  1.00  0.00     0.165 HD
HETATM   28  C12 UNL     1     -91.772 -17.252   8.748  1.00  0.00     0.030 A
HETATM   29  C16 UNL     1     -91.280 -16.086  10.809  1.00  0.00     0.004 A
HETATM   30  C13 UNL     1     -90.877 -18.235   9.095  1.00  0.00     0.002 A
HETATM   31  C14 UNL     1     -90.199 -18.135  10.286  1.00  0.00     0.001 A
HETATM   32  C15 UNL     1     -90.389 -17.076  11.143  1.00  0.00     0.014 A
ENDBRANCH  21  23
ENDBRANCH   1  18
BRANCH   1  33
HETATM   33  S1  UNL     1     -86.612 -13.992  10.911  1.00  0.00     0.072 S
HETATM   34  O3  UNL     1     -86.067 -12.620  11.187  1.00  0.00    -0.251 OA
BRANCH  33  35
HETATM   35  C17 UNL     1     -87.168 -14.135   9.255  1.00  0.00     0.032 A
HETATM   36  C18 UNL     1     -88.254 -14.961   8.955  1.00  0.00     0.021 A
HETATM   37  C19 UNL     1     -88.676 -15.080   7.651  1.00  0.00     0.001 A
HETATM   38  C20 UNL     1     -88.066 -14.414   6.622  1.00  0.00     0.000 A
HETATM   39  C21 UNL     1     -87.006 -13.609   6.919  1.00  0.00     0.001 A
HETATM   40  C22 UNL     1     -86.553 -13.467   8.234  1.00  0.00     0.021 A
ENDBRANCH  33  35
ENDBRANCH   1  33
TORSDOF 10
ENDMDL