MODEL 4
REMARK VINA RESULT: -8.103659629      2.519      5.672
REMARK  13 active torsions:
REMARK  status: ('A' for Active; 'I' for Inactive)
REMARK    1  A    between atoms: C2_2  and  C3_3
REMARK    2  A    between atoms: C3_3  and  C5_5
REMARK    3  A    between atoms: C5_5  and  N1_6
REMARK    4  A    between atoms: C5_5  and  C15_21
REMARK       I    between atoms: N1_6  and  C6_8
REMARK    5  A    between atoms: C6_8  and  C7_10
REMARK    6  A    between atoms: N3_16  and  C11_17
REMARK    7  A    between atoms: C15_21  and  O2_22
REMARK    8  A    between atoms: C15_21  and  N4_24
REMARK    9  A    between atoms: N4_24  and  C16_26
REMARK   10  A    between atoms: C16_26  and  C18_28
REMARK       I    between atoms: C18_28  and  N5_30
REMARK   11  A    between atoms: N5_30  and  C19_32
REMARK   12  A    between atoms: C19_32  and  C20_33
REMARK   13  A    between atoms: C25_38  and  C26_39
ROOT
HETATM    1  C15 UNL     1     -92.543 -15.313   9.873  1.00  0.00     0.135 C
ENDROOT
BRANCH   1   2
HETATM    2  C5  UNL     1     -92.744 -16.252  10.981  1.00  0.00     0.163 C
BRANCH   2   3
HETATM    3  C3  UNL     1     -93.136 -17.602  10.502  1.00  0.00     0.012 C
HETATM    4  C4  UNL     1     -93.708 -18.455  11.639  1.00  0.00     0.012 C
BRANCH   3   5
HETATM    5  C2  UNL     1     -91.932 -18.436  10.062  1.00  0.00     0.002 C
HETATM    6  C1  UNL     1     -92.050 -18.874   8.610  1.00  0.00     0.005 C
ENDBRANCH   3   5
ENDBRANCH   2   3
BRANCH   2   7
HETATM    7  N1  UNL     1     -91.543 -16.231  11.773  1.00  0.00    -0.344 N
HETATM    8  C6  UNL     1     -90.955 -15.234  12.548  1.00  0.00     0.264 C
HETATM    9  O1  UNL     1     -91.491 -14.114  12.652  1.00  0.00    -0.267 OA
ATOM     10  H1  UNL     1     -91.025 -17.110  11.765  1.00  0.00     0.163 HD
BRANCH   8  11
HETATM   11  C7  UNL     1     -89.692 -15.406  13.286  1.00  0.00     0.095 C
HETATM   12  C8  UNL     1     -89.721 -14.955  14.702  1.00  0.00     0.112 C
HETATM   13  N2  UNL     1     -88.770 -15.514  15.406  1.00  0.00    -0.396 N
HETATM   14  C9  UNL     1     -87.893 -16.420  14.763  1.00  0.00     0.134 C
ATOM     15  H2  UNL     1     -88.663 -15.301  16.397  1.00  0.00     0.158 HD
HETATM   16  C10 UNL     1     -87.535 -16.124  13.338  1.00  0.00     0.116 C
HETATM   17  N3  UNL     1     -88.463 -15.159  12.709  1.00  0.00    -0.268 NA
BRANCH  17  18
HETATM   18  C11 UNL     1     -87.877 -13.909  12.537  1.00  0.00     0.007 C
HETATM   19  C12 UNL     1     -88.378 -12.736  13.331  1.00  0.00     0.032 C
HETATM   20  C13 UNL     1     -87.842 -13.475  11.100  1.00  0.00     0.032 C
HETATM   21  C14 UNL     1     -86.383 -13.991  12.952  1.00  0.00     0.032 C
ENDBRANCH  17  18
ENDBRANCH   8  11
ENDBRANCH   2   7
ENDBRANCH   1   2
BRANCH   1  22
HETATM   22  O2  UNL     1     -93.589 -14.866   9.231  1.00  0.00    -0.348 OA
ATOM     23  H2  UNL     1     -93.558 -14.822   8.282  1.00  0.00     0.219 HD
ENDBRANCH   1  22
BRANCH   1  24
HETATM   24  N4  UNL     1     -91.331 -14.800   9.367  1.00  0.00    -0.360 N
ATOM     25  H4  UNL     1     -91.030 -13.871   9.663  1.00  0.00     0.162 HD
BRANCH  24  26
HETATM   26  C16 UNL     1     -90.495 -15.544   8.437  1.00  0.00     0.171 C
HETATM   27  C17 UNL     1     -89.286 -16.150   9.114  1.00  0.00     0.042 C
BRANCH  26  28
HETATM   28  C18 UNL     1     -90.027 -14.659   7.359  1.00  0.00     0.240 C
HETATM   29  O3  UNL     1     -90.851 -14.115   6.593  1.00  0.00    -0.271 OA
HETATM   30  N5  UNL     1     -88.636 -14.392   7.149  1.00  0.00    -0.357 N
ATOM     31  H5  UNL     1     -87.969 -14.840   7.777  1.00  0.00     0.162 HD
BRANCH  30  32
HETATM   32  C19 UNL     1     -88.112 -13.543   6.121  1.00  0.00     0.154 C
BRANCH  32  33
HETATM   33  C20 UNL     1     -86.613 -13.318   6.301  1.00  0.00     0.140 C
HETATM   34  C21 UNL     1     -85.906 -14.228   5.345  1.00  0.00     0.038 C
HETATM   35  C22 UNL     1     -84.397 -14.031   5.392  1.00  0.00    -0.014 C
HETATM   36  C23 UNL     1     -83.909 -13.172   4.252  1.00  0.00     0.010 C
HETATM   37  C24 UNL     1     -84.026 -13.382   6.709  1.00  0.00     0.042 C
HETATM   38  C25 UNL     1     -84.951 -13.886   7.796  1.00  0.00     0.187 C
HETATM   39  O4  UNL     1     -86.253 -13.468   7.617  1.00  0.00    -0.373 OA
BRANCH  38  40
HETATM   40  C26 UNL     1     -84.456 -13.318   9.120  1.00  0.00     0.381 C
HETATM   41  F1  UNL     1     -84.645 -14.237  10.149  1.00  0.00    -0.212 F
HETATM   42  F2  UNL     1     -85.157 -12.179   9.480  1.00  0.00    -0.212 F
ENDBRANCH  38  40
ENDBRANCH  32  33
ENDBRANCH  30  32
ENDBRANCH  26  28
ENDBRANCH  24  26
ENDBRANCH   1  24
TORSDOF 13
ENDMDL