MODEL 5
REMARK VINA RESULT: -8.742743772      2.945      5.810
REMARK  10 active torsions:
REMARK  status: ('A' for Active; 'I' for Inactive)
REMARK    1  A    between atoms: N1_1  and  C1_5
REMARK    2  A    between atoms: C1_5  and  C2_6
REMARK    3  A    between atoms: C1_5  and  C12_24
REMARK    4  A    between atoms: C2_6  and  C3_7
REMARK    5  A    between atoms: C3_7  and  S1_8
REMARK    6  A    between atoms: S1_8  and  C4_11
REMARK    7  A    between atoms: C4_11  and  C5_14
REMARK       I    between atoms: C12_24  and  N3_26
REMARK    8  A    between atoms: C16_30  and  C17_31
REMARK       I    between atoms: C17_31  and  N4_33
REMARK    9  A    between atoms: N4_33  and  C18_35
REMARK   10  A    between atoms: C18_35  and  C19_36
ROOT
HETATM    1  C1  UNL     1     -89.632 -16.626  13.341  1.00  0.00     0.275 C
ENDROOT
BRANCH   1   2
HETATM    2  N1  UNL     1     -88.748 -17.681  13.867  1.00  0.00    -0.066 N
ATOM      3  H13 UNL     1     -88.288 -18.220  13.134  1.00  0.00     0.275 HD
ATOM      4  H12 UNL     1     -87.905 -17.314  14.308  1.00  0.00     0.275 HD
ATOM      5  H11 UNL     1     -89.311 -18.256  14.494  1.00  0.00     0.275 HD
ENDBRANCH   1   2
BRANCH   1   6
HETATM    6  C2  UNL     1     -90.359 -17.205  12.191  1.00  0.00     0.058 C
BRANCH   6   7
HETATM    7  C3  UNL     1     -91.834 -17.266  12.284  1.00  0.00     0.149 C
BRANCH   7   8
HETATM    8  S1  UNL     1     -92.644 -16.834  10.790  1.00  0.00     0.218 S
HETATM    9  O1  UNL     1     -94.115 -17.187  10.972  1.00  0.00    -0.221 OA
HETATM   10  O2  UNL     1     -92.135 -17.703   9.681  1.00  0.00    -0.221 OA
BRANCH   8  11
HETATM   11  C4  UNL     1     -92.476 -15.157  10.328  1.00  0.00     0.385 C
HETATM   12  F1  UNL     1     -91.977 -14.419  11.399  1.00  0.00    -0.181 F
HETATM   13  F2  UNL     1     -93.672 -14.615   9.936  1.00  0.00    -0.181 F
BRANCH  11  14
HETATM   14  C5  UNL     1     -91.527 -14.969   9.192  1.00  0.00     0.098 A
HETATM   15  C6  UNL     1     -91.752 -14.433   7.932  1.00  0.00     0.043 A
HETATM   16  C7  UNL     1     -90.554 -14.478   7.242  1.00  0.00    -0.010 A
HETATM   17  C8  UNL     1     -89.617 -15.029   8.066  1.00  0.00     0.020 A
HETATM   18  C11 UNL     1     -90.205 -14.047   5.877  1.00  0.00     0.208 C
HETATM   19  N2  UNL     1     -90.229 -15.311   9.220  1.00  0.00    -0.357 N
HETATM   20  C9  UNL     1     -88.225 -15.203   7.590  1.00  0.00     0.084 C
ATOM     21  H2  UNL     1     -89.766 -15.734  10.025  1.00  0.00     0.166 HD
HETATM   22  C10 UNL     1     -87.965 -14.176   6.513  1.00  0.00     0.174 C
HETATM   23  O3  UNL     1     -88.907 -14.218   5.512  1.00  0.00    -0.386 OA
ENDBRANCH  11  14
ENDBRANCH   8  11
ENDBRANCH   7   8
ENDBRANCH   6   7
ENDBRANCH   1   6
BRANCH   1  24
HETATM   24  C12 UNL     1     -88.890 -15.400  13.154  1.00  0.00     0.251 C
HETATM   25  O4  UNL     1     -88.484 -15.118  11.966  1.00  0.00    -0.271 OA
HETATM   26  N3  UNL     1     -88.527 -14.417  14.126  1.00  0.00    -0.337 N
HETATM   27  C13 UNL     1     -88.896 -14.553  15.547  1.00  0.00     0.127 C
HETATM   28  C16 UNL     1     -87.831 -13.189  14.069  1.00  0.00     0.179 C
HETATM   29  C14 UNL     1     -87.645 -14.025  16.260  1.00  0.00     0.022 C
HETATM   30  C15 UNL     1     -86.758 -13.435  15.148  1.00  0.00     0.037 C
BRANCH  28  31
HETATM   31  C17 UNL     1     -87.400 -12.525  12.903  1.00  0.00     0.240 C
HETATM   32  O5  UNL     1     -88.006 -11.521  12.363  1.00  0.00    -0.271 OA
HETATM   33  N4  UNL     1     -86.208 -12.933  12.243  1.00  0.00    -0.359 N
ATOM     34  H4  UNL     1     -85.693 -13.738  12.600  1.00  0.00     0.162 HD
BRANCH  33  35
HETATM   35  C18 UNL     1     -85.711 -12.246  11.095  1.00  0.00     0.127 C
BRANCH  35  36
HETATM   36  C19 UNL     1     -85.098 -13.183  10.076  1.00  0.00     0.003 C
HETATM   37  C20 UNL     1     -85.399 -12.754   8.645  1.00  0.00     0.006 C
HETATM   38  C21 UNL     1     -84.377 -13.485   7.787  1.00  0.00     0.000 C
HETATM   39  C22 UNL     1     -83.858 -14.727   8.445  1.00  0.00     0.000 C
HETATM   40  C23 UNL     1     -84.891 -15.485   9.246  1.00  0.00     0.000 C
HETATM   41  C24 UNL     1     -85.665 -14.586  10.193  1.00  0.00     0.006 C
ENDBRANCH  35  36
ENDBRANCH  33  35
ENDBRANCH  28  31
ENDBRANCH   1  24
TORSDOF 10
ENDMDL