MODEL 5
REMARK VINA RESULT: -7.971678846      1.826      4.162
REMARK  9 active torsions:
REMARK  status: ('A' for Active; 'I' for Inactive)
REMARK    1  A    between atoms: N1_2  and  C2_5
REMARK    2  A    between atoms: C2_5  and  C4_7
REMARK       I    between atoms: C4_7  and  N2_9
REMARK    3  A    between atoms: N2_9  and  C5_11
REMARK    4  A    between atoms: C5_11  and  C6_12
REMARK    5  A    between atoms: C5_11  and  C13_19
REMARK    6  A    between atoms: C6_12  and  C7_13
REMARK       I    between atoms: C13_19  and  N3_21
REMARK    7  A    between atoms: N3_21  and  C14_23
REMARK    8  A    between atoms: C21_32  and  C22_33
REMARK       I    between atoms: C22_33  and  N4_35
REMARK    9  A    between atoms: N4_35  and  C24_37
ROOT
HETATM    1  C13 UNL     1     -86.593 -15.736  11.874  1.00  0.00     0.241 C
HETATM    2  O2  UNL     1     -85.350 -15.916  11.732  1.00  0.00    -0.271 OA
HETATM    3  N3  UNL     1     -87.120 -15.916  13.172  1.00  0.00    -0.354 N
ATOM      4  H3  UNL     1     -88.121 -15.778  13.311  1.00  0.00     0.162 HD
ENDROOT
BRANCH   1   5
HETATM    5  C5  UNL     1     -87.421 -15.356  10.702  1.00  0.00     0.180 C
BRANCH   5   6
HETATM    6  N2  UNL     1     -88.608 -16.176  10.667  1.00  0.00    -0.346 N
HETATM    7  C4  UNL     1     -89.916 -15.629  10.652  1.00  0.00     0.248 C
HETATM    8  O1  UNL     1     -90.098 -14.370  10.666  1.00  0.00    -0.271 OA
ATOM      9  H2  UNL     1     -88.501 -17.191  10.653  1.00  0.00     0.163 HD
BRANCH   7  10
HETATM   10  C2  UNL     1     -91.112 -16.500  10.619  1.00  0.00     0.272 C
HETATM   11  C3  UNL     1     -90.892 -17.778   9.846  1.00  0.00     0.050 C
BRANCH  10  12
HETATM   12  N1  UNL     1     -92.283 -15.790  10.147  1.00  0.00    -0.067 N
HETATM   13  C1  UNL     1     -93.500 -16.298  10.721  1.00  0.00     0.267 C
ATOM     14  H12 UNL     1     -92.328 -15.793   9.129  1.00  0.00     0.277 HD
ATOM     15  H11 UNL     1     -92.193 -14.787  10.305  1.00  0.00     0.277 HD
ENDBRANCH  10  12
ENDBRANCH   7  10
ENDBRANCH   5   6
BRANCH   5  16
HETATM   16  C6  UNL     1     -86.598 -15.574   9.460  1.00  0.00     0.073 C
BRANCH  16  17
HETATM   17  C7  UNL     1     -87.054 -14.831   8.287  1.00  0.00    -0.056 A
HETATM   18  C8  UNL     1     -88.040 -15.288   7.440  1.00  0.00     0.007 A
HETATM   19  C9  UNL     1     -88.451 -14.553   6.336  1.00  0.00     0.001 A
HETATM   20  C10 UNL     1     -87.879 -13.333   6.052  1.00  0.00     0.000 A
HETATM   21  C11 UNL     1     -86.896 -12.865   6.886  1.00  0.00     0.001 A
HETATM   22  C12 UNL     1     -86.503 -13.609   7.977  1.00  0.00     0.007 A
ENDBRANCH  16  17
ENDBRANCH   5  16
ENDBRANCH   1   5
BRANCH   3  23
HETATM   23  C14 UNL     1     -86.313 -16.285  14.313  1.00  0.00     0.100 C
HETATM   24  C15 UNL     1     -86.462 -17.765  14.426  1.00  0.00     0.041 C
HETATM   25  C16 UNL     1     -85.538 -18.466  15.357  1.00  0.00     0.056 C
HETATM   26  C17 UNL     1     -85.946 -19.925  15.397  1.00  0.00     0.022 C
HETATM   27  S1  UNL     1     -85.576 -17.871  17.058  1.00  0.00    -0.092 SA
HETATM   28  S2  UNL     1     -87.562 -17.155  17.351  1.00  0.00    -0.087 SA
HETATM   29  C18 UNL     1     -87.679 -15.623  16.383  1.00  0.00     0.025 C
HETATM   30  C19 UNL     1     -89.033 -15.592  15.762  1.00  0.00     0.028 C
HETATM   31  C20 UNL     1     -87.649 -14.487  17.395  1.00  0.00     0.028 C
HETATM   32  C21 UNL     1     -86.518 -15.459  15.508  1.00  0.00     0.119 C
BRANCH  32  33
HETATM   33  C22 UNL     1     -86.337 -14.020  15.169  1.00  0.00     0.231 C
HETATM   34  O3  UNL     1     -87.187 -13.407  14.443  1.00  0.00    -0.273 OA
HETATM   35  N4  UNL     1     -85.239 -13.230  15.605  1.00  0.00    -0.300 N
HETATM   36  C23 UNL     1     -84.166 -13.717  16.449  1.00  0.00     0.158 C
BRANCH  35  37
HETATM   37  C24 UNL     1     -85.114 -11.818  15.215  1.00  0.00     0.462 C
HETATM   38  F1  UNL     1     -83.753 -11.580  15.092  1.00  0.00    -0.191 F
HETATM   39  F2  UNL     1     -85.639 -10.982  16.177  1.00  0.00    -0.191 F
ENDBRANCH  35  37
ENDBRANCH  32  33
ENDBRANCH   3  23
TORSDOF 9
ENDMDL