MODEL 2
REMARK VINA RESULT: -7.931323772      2.488      4.927
REMARK  12 active torsions:
REMARK  status: ('A' for Active; 'I' for Inactive)
REMARK    1  A    between atoms: C2_2  and  N1_3
REMARK    2  A    between atoms: C2_2  and  C7_14
REMARK       I    between atoms: N1_3  and  C3_5
REMARK    3  A    between atoms: C3_5  and  C4_7
REMARK    4  A    between atoms: C4_7  and  N2_10
REMARK       I    between atoms: C7_14  and  N3_16
REMARK    5  A    between atoms: C12_21  and  C13_22
REMARK       I    between atoms: C13_22  and  N4_24
REMARK    6  A    between atoms: N4_24  and  C14_26
REMARK    7  A    between atoms: C14_26  and  C15_27
REMARK    8  A    between atoms: C14_26  and  C22_34
REMARK    9  A    between atoms: C15_27  and  C16_28
REMARK   10  A    between atoms: C22_34  and  O5_36
REMARK   11  A    between atoms: O5_36  and  C23_37
REMARK   12  A    between atoms: C23_37  and  C24_38
ROOT
HETATM    1  C7  UNL     1     -87.605 -14.890  14.065  1.00  0.00     0.243 C
HETATM    2  O2  UNL     1     -88.197 -15.797  13.414  1.00  0.00    -0.271 OA
HETATM    3  N3  UNL     1     -87.273 -13.646  13.521  1.00  0.00    -0.337 N
HETATM    4  C8  UNL     1     -86.480 -12.670  14.327  1.00  0.00     0.127 C
HETATM    5  C9  UNL     1     -85.117 -12.702  13.610  1.00  0.00     0.020 C
HETATM    6  C10 UNL     1     -85.300 -12.139  12.234  1.00  0.00     0.004 C
HETATM    7  C11 UNL     1     -86.290 -12.960  11.410  1.00  0.00     0.035 C
HETATM    8  C12 UNL     1     -87.565 -13.139  12.209  1.00  0.00     0.179 C
ENDROOT
BRANCH   8   9
HETATM    9  C13 UNL     1     -88.623 -13.728  11.420  1.00  0.00     0.241 C
HETATM   10  O3  UNL     1     -89.805 -13.256  11.624  1.00  0.00    -0.271 OA
HETATM   11  N4  UNL     1     -88.450 -14.759  10.479  1.00  0.00    -0.345 N
ATOM     12  H4  UNL     1     -87.506 -15.118  10.336  1.00  0.00     0.163 HD
BRANCH  11  13
HETATM   13  C14 UNL     1     -89.542 -15.358   9.684  1.00  0.00     0.184 C
BRANCH  13  14
HETATM   14  C15 UNL     1     -89.909 -16.638  10.263  1.00  0.00     0.040 C
BRANCH  14  15
HETATM   15  C16 UNL     1     -91.256 -17.137  10.455  1.00  0.00    -0.012 C
HETATM   16  C17 UNL     1     -91.967 -17.920   9.432  1.00  0.00     0.005 C
HETATM   17  C18 UNL     1     -92.968 -18.847  10.153  1.00  0.00     0.000 C
HETATM   18  C19 UNL     1     -93.584 -18.113  11.324  1.00  0.00     0.000 C
HETATM   19  C20 UNL     1     -93.585 -16.619  11.117  1.00  0.00     0.000 C
HETATM   20  C21 UNL     1     -92.178 -16.049  11.030  1.00  0.00     0.005 C
ENDBRANCH  14  15
ENDBRANCH  13  14
BRANCH  13  21
HETATM   21  C22 UNL     1     -89.167 -15.224   8.266  1.00  0.00     0.281 C
HETATM   22  O4  UNL     1     -90.133 -14.850   7.483  1.00  0.00    -0.263 OA
BRANCH  21  23
HETATM   23  O5  UNL     1     -88.001 -15.432   7.689  1.00  0.00    -0.317 OA
BRANCH  23  24
HETATM   24  C23 UNL     1     -87.054 -14.645   7.124  1.00  0.00     0.214 C
BRANCH  24  25
HETATM   25  C24 UNL     1     -85.793 -14.316   7.825  1.00  0.00     0.202 C
HETATM   26 CL1  UNL     1     -84.448 -13.996   6.753  1.00  0.00    -0.106 Cl
HETATM   27 CL2  UNL     1     -85.425 -15.706   8.919  1.00  0.00    -0.106 Cl
ENDBRANCH  24  25
ENDBRANCH  23  24
ENDBRANCH  21  23
ENDBRANCH  13  21
ENDBRANCH  11  13
ENDBRANCH   8   9
BRANCH   1  28
HETATM   28  C2  UNL     1     -87.275 -15.233  15.478  1.00  0.00     0.172 C
HETATM   29  C1  UNL     1     -88.388 -14.736  16.395  1.00  0.00     0.042 C
BRANCH  28  30
HETATM   30  N1  UNL     1     -87.275 -16.689  15.621  1.00  0.00    -0.346 N
HETATM   31  C3  UNL     1     -86.039 -17.383  15.730  1.00  0.00     0.253 C
HETATM   32  O1  UNL     1     -84.951 -16.757  15.706  1.00  0.00    -0.271 OA
ATOM     33  H1  UNL     1     -88.156 -17.202  15.641  1.00  0.00     0.163 HD
BRANCH  31  34
HETATM   34  C4  UNL     1     -85.990 -18.866  15.875  1.00  0.00     0.196 C
HETATM   35  C5  UNL     1     -87.304 -19.331  16.410  1.00  0.00     0.056 C
HETATM   36  C6  UNL     1     -85.711 -19.528  14.540  1.00  0.00     0.056 C
BRANCH  34  37
HETATM   37  N2  UNL     1     -84.919 -19.204  16.767  1.00  0.00    -0.062 N
ATOM     38  H23 UNL     1     -84.001 -19.072  16.342  1.00  0.00     0.275 HD
ATOM     39  H22 UNL     1     -84.819 -18.534  17.529  1.00  0.00     0.275 HD
ATOM     40  H21 UNL     1     -85.062 -20.157  17.101  1.00  0.00     0.275 HD
ENDBRANCH  34  37
ENDBRANCH  31  34
ENDBRANCH  28  30
ENDBRANCH   1  28
TORSDOF 12
ENDMDL