MODEL 1
REMARK VINA RESULT: -8.658713355      0.000      0.000
REMARK  9 active torsions:
REMARK  status: ('A' for Active; 'I' for Inactive)
REMARK    1  A    between atoms: N1_2  and  N2_3
REMARK    2  A    between atoms: N1_2  and  S2_19
REMARK    3  A    between atoms: N2_3  and  S1_5
REMARK    4  A    between atoms: S1_5  and  C2_8
REMARK    5  A    between atoms: C5_11  and  C6_12
REMARK    6  A    between atoms: S2_19  and  C9_22
REMARK    7  A    between atoms: C12_25  and  N5_26
REMARK       I    between atoms: N5_26  and  C13_28
REMARK    8  A    between atoms: C13_28  and  C14_30
REMARK    9  A    between atoms: C14_30  and  C15_31
ROOT
HETATM    1  S2  UNL     1     -84.947 -13.230  13.898  1.00  0.00     0.278 S
HETATM    2  O3  UNL     1     -84.855 -14.113  15.115  1.00  0.00    -0.199 OA
HETATM    3  O4  UNL     1     -85.178 -11.818  14.409  1.00  0.00    -0.199 OA
ENDROOT
BRANCH   1   4
HETATM    4  N1  UNL     1     -83.501 -13.270  13.016  1.00  0.00    -0.209 N
HETATM    5  C1  UNL     1     -82.340 -12.897  13.749  1.00  0.00     0.192 C
BRANCH   4   6
HETATM    6  N2  UNL     1     -83.565 -12.772  11.736  1.00  0.00    -0.211 N
ATOM      7  H2  UNL     1     -83.668 -11.791  11.479  1.00  0.00     0.201 HD
BRANCH   6   8
HETATM    8  S1  UNL     1     -83.441 -14.100  10.640  1.00  0.00     0.276 S
HETATM    9  O1  UNL     1     -83.292 -15.403  11.370  1.00  0.00    -0.199 OA
HETATM   10  O2  UNL     1     -82.242 -13.866   9.765  1.00  0.00    -0.199 OA
BRANCH   8  11
HETATM   11  C2  UNL     1     -84.843 -14.230   9.606  1.00  0.00     0.081 A
HETATM   12  C3  UNL     1     -85.323 -13.127   8.946  1.00  0.00     0.026 A
HETATM   13  C4  UNL     1     -86.446 -13.180   8.104  1.00  0.00     0.016 A
HETATM   14  C5  UNL     1     -87.129 -14.353   7.897  1.00  0.00     0.007 A
HETATM   15  C7  UNL     1     -86.620 -15.464   8.582  1.00  0.00     0.016 A
HETATM   16  C8  UNL     1     -85.519 -15.407   9.406  1.00  0.00     0.026 A
BRANCH  14  17
HETATM   17  C6  UNL     1     -88.293 -14.512   7.054  1.00  0.00     0.151 C
HETATM   18  N3  UNL     1     -89.531 -14.899   7.719  1.00  0.00    -0.080 NA
HETATM   19  N4  UNL     1     -88.404 -14.365   5.811  1.00  0.00    -0.210 N
HETATM   20  F1  UNL     1     -87.497 -14.025   4.922  1.00  0.00    -0.100 F
ATOM     21  H4  UNL     1     -89.337 -14.535   5.436  1.00  0.00     0.201 HD
ENDBRANCH  14  17
ENDBRANCH   8  11
ENDBRANCH   6   8
ENDBRANCH   4   6
ENDBRANCH   1   4
BRANCH   1  22
HETATM   22  C9  UNL     1     -86.349 -13.695  13.009  1.00  0.00     0.081 A
HETATM   23  C10 UNL     1     -86.831 -14.976  12.881  1.00  0.00     0.027 A
HETATM   24  C11 UNL     1     -87.988 -15.263  12.133  1.00  0.00     0.031 A
HETATM   25  C12 UNL     1     -88.689 -14.289  11.496  1.00  0.00     0.034 A
HETATM   26  C21 UNL     1     -88.190 -12.968  11.629  1.00  0.00     0.031 A
HETATM   27  C22 UNL     1     -87.077 -12.722  12.354  1.00  0.00     0.027 A
BRANCH  25  28
HETATM   28  N5  UNL     1     -89.845 -14.481  10.706  1.00  0.00    -0.327 N
HETATM   29  C13 UNL     1     -91.149 -14.384  11.190  1.00  0.00     0.226 C
HETATM   30  O5  UNL     1     -91.419 -14.124  12.366  1.00  0.00    -0.273 OA
ATOM     31  H5  UNL     1     -89.717 -14.707   9.720  1.00  0.00     0.169 HD
BRANCH  29  32
HETATM   32  C14 UNL     1     -92.267 -14.615  10.180  1.00  0.00     0.141 C
BRANCH  32  33
HETATM   33  C15 UNL     1     -92.597 -16.058  10.257  1.00  0.00    -0.050 A
HETATM   34  C16 UNL     1     -93.551 -16.569  11.115  1.00  0.00     0.007 A
HETATM   35  C17 UNL     1     -93.819 -17.902  11.148  1.00  0.00     0.001 A
HETATM   36  C18 UNL     1     -93.160 -18.821  10.335  1.00  0.00     0.000 A
HETATM   37  C19 UNL     1     -92.213 -18.323   9.482  1.00  0.00     0.001 A
HETATM   38  C20 UNL     1     -91.937 -16.982   9.440  1.00  0.00     0.007 A
ENDBRANCH  32  33
ENDBRANCH  29  32
ENDBRANCH  25  28
ENDBRANCH   1  22
TORSDOF 9
ENDMDL