MODEL 4
REMARK VINA RESULT: -6.318569728      3.496      5.895
REMARK  9 active torsions:
REMARK  status: ('A' for Active; 'I' for Inactive)
REMARK    1  A    between atoms: C3_3  and  C4_4
REMARK       I    between atoms: C4_4  and  N1_6
REMARK       I    between atoms: C5_8  and  N3_10
REMARK    2  A    between atoms: N3_10  and  C6_12
REMARK    3  A    between atoms: C6_12  and  C7_13
REMARK    4  A    between atoms: C7_13  and  S1_14
REMARK    5  A    between atoms: S1_14  and  S2_15
REMARK    6  A    between atoms: S2_15  and  C8_16
REMARK    7  A    between atoms: C8_16  and  C9_17
REMARK    8  A    between atoms: C9_17  and  N4_18
REMARK       I    between atoms: N4_18  and  C10_20
REMARK    9  A    between atoms: C10_20  and  C11_22
ROOT
HETATM    1  C1  UNL     1     -93.694 -18.127  11.174  1.00  0.00     0.012 C
HETATM    2  C2  UNL     1     -92.818 -18.162  10.345  1.00  0.00    -0.108 C
HETATM    3  C3  UNL     1     -91.756 -18.190   9.313  1.00  0.00     0.196 C
ENDROOT
BRANCH   3   4
HETATM    4  C4  UNL     1     -91.238 -16.829   9.093  1.00  0.00     0.235 C
HETATM    5  O1  UNL     1     -91.999 -15.947   8.575  1.00  0.00    -0.272 OA
HETATM    6  N1  UNL     1     -89.933 -16.446   9.429  1.00  0.00    -0.301 N
HETATM    7  C5  UNL     1     -89.448 -16.302  10.598  1.00  0.00     0.190 C
ATOM      8  H1  UNL     1     -89.300 -16.262   8.650  1.00  0.00     0.171 HD
HETATM    9  N2  UNL     1     -88.077 -15.900  10.703  1.00  0.00    -0.063 NA
HETATM   10  N3  UNL     1     -90.135 -16.502  11.815  1.00  0.00    -0.364 N
ATOM     11  H3  UNL     1     -89.892 -17.312  12.384  1.00  0.00     0.162 HD
BRANCH  10  12
HETATM   12  C6  UNL     1     -91.157 -15.619  12.285  1.00  0.00     0.133 C
BRANCH  12  13
HETATM   13  C7  UNL     1     -90.596 -14.364  12.951  1.00  0.00     0.105 C
BRANCH  13  14
HETATM   14  S1  UNL     1     -89.642 -14.945  14.395  1.00  0.00    -0.096 SA
BRANCH  14  15
HETATM   15  S2  UNL     1     -88.037 -13.634  14.820  1.00  0.00    -0.096 SA
BRANCH  15  16
HETATM   16  C8  UNL     1     -87.598 -12.621  13.387  1.00  0.00     0.105 C
BRANCH  16  17
HETATM   17  C9  UNL     1     -86.283 -13.087  12.857  1.00  0.00     0.134 C
BRANCH  17  18
HETATM   18  N4  UNL     1     -86.388 -13.346  11.446  1.00  0.00    -0.356 N
HETATM   19  C10 UNL     1     -85.317 -13.010  10.597  1.00  0.00     0.258 C
HETATM   20  O2  UNL     1     -84.284 -12.492  11.073  1.00  0.00    -0.267 OA
ATOM     21  H4  UNL     1     -87.233 -13.769  11.063  1.00  0.00     0.162 HD
BRANCH  19  22
HETATM   22  C11 UNL     1     -85.387 -13.260   9.139  1.00  0.00     0.075 A
HETATM   23  C12 UNL     1     -86.501 -13.527   8.384  1.00  0.00     0.045 A
HETATM   24  C13 UNL     1     -86.320 -13.720   7.073  1.00  0.00     0.036 A
HETATM   25 BR1  UNL     1     -87.786 -14.108   5.863  1.00  0.00    -0.049 Br
HETATM   26  C14 UNL     1     -85.043 -13.635   6.594  1.00  0.00     0.069 A
HETATM   27 BR2  UNL     1     -84.420 -13.855   4.781  1.00  0.00    -0.042 Br
HETATM   28  S3  UNL     1     -84.129 -13.288   7.991  1.00  0.00    -0.076 SA
ENDBRANCH  19  22
ENDBRANCH  17  18
ENDBRANCH  16  17
ENDBRANCH  15  16
ENDBRANCH  14  15
ENDBRANCH  13  14
ENDBRANCH  12  13
ENDBRANCH  10  12
ENDBRANCH   3   4
TORSDOF 9
ENDMDL