MODEL 2
REMARK VINA RESULT: -8.278659110      3.095      7.908
REMARK  11 active torsions:
REMARK  status: ('A' for Active; 'I' for Inactive)
REMARK    1  A    between atoms: C4_4  and  C5_5
REMARK    2  A    between atoms: C5_5  and  C6_6
REMARK    3  A    between atoms: C5_5  and  C7_8
REMARK    4  A    between atoms: C7_8  and  C9_10
REMARK    5  A    between atoms: C9_10  and  O2_12
REMARK    6  A    between atoms: O2_12  and  C10_13
REMARK    7  A    between atoms: C14_17  and  O3_18
REMARK    8  A    between atoms: O3_18  and  C15_19
REMARK    9  A    between atoms: C19_23  and  O4_24
REMARK   10  A    between atoms: C20_26  and  O5_27
REMARK   11  A    between atoms: C21_29  and  O6_30
ROOT
HETATM    1  C10 UNL     1     -68.627 -13.611  53.205  1.00  0.00     0.067 C
HETATM    2  C11 UNL     1     -68.970 -13.493  54.677  1.00  0.00     0.047 C
HETATM    3  C12 UNL     1     -69.875 -13.109  52.460  1.00  0.00     0.041 C
HETATM    4  C13 UNL     1     -69.484 -13.158  50.977  1.00  0.00     0.035 C
HETATM    5  C14 UNL     1     -69.402 -14.634  50.624  1.00  0.00     0.122 C
HETATM    6  C22 UNL     1     -68.277 -15.301  51.390  1.00  0.00     0.035 C
HETATM    7  C23 UNL     1     -68.383 -15.053  52.874  1.00  0.00     0.041 C
ENDROOT
BRANCH   1   8
HETATM    8  O2  UNL     1     -67.590 -12.746  52.821  1.00  0.00    -0.310 OA
BRANCH   8   9
HETATM    9  C9  UNL     1     -66.308 -12.751  53.291  1.00  0.00     0.264 C
HETATM   10  O1  UNL     1     -66.059 -12.101  54.339  1.00  0.00    -0.265 OA
BRANCH   9  11
HETATM   11  C7  UNL     1     -65.232 -13.512  52.575  1.00  0.00     0.089 C
HETATM   12  C8  UNL     1     -64.238 -13.988  53.565  1.00  0.00     0.021 C
BRANCH  11  13
HETATM   13  C5  UNL     1     -64.738 -12.808  51.375  1.00  0.00     0.042 C
BRANCH  13  14
HETATM   14  C4  UNL     1     -65.090 -13.304  50.043  1.00  0.00     0.142 C
HETATM   15  C3  UNL     1     -66.307 -12.777  49.380  1.00  0.00     0.077 C
HETATM   16  C2  UNL     1     -66.629 -13.824  48.341  1.00  0.00     0.010 C
HETATM   17  C1  UNL     1     -67.521 -13.690  47.379  1.00  0.00     0.025 C
HETATM   18  C24 UNL     1     -65.749 -14.938  48.670  1.00  0.00     0.289 C
HETATM   19  O7  UNL     1     -65.198 -14.713  49.941  1.00  0.00    -0.311 OA
HETATM   20  O8  UNL     1     -65.557 -15.919  47.893  1.00  0.00    -0.260 OA
ENDBRANCH  13  14
BRANCH  13  21
HETATM   21  C6  UNL     1     -64.977 -11.296  51.432  1.00  0.00     0.122 C
HETATM   22 CL1  UNL     1     -63.616 -10.501  52.291  1.00  0.00    -0.130 Cl
ENDBRANCH  13  21
ENDBRANCH  11  13
ENDBRANCH   9  11
ENDBRANCH   8   9
ENDBRANCH   1   8
BRANCH   5  23
HETATM   23  O3  UNL     1     -70.625 -15.195  50.930  1.00  0.00    -0.374 OA
BRANCH  23  24
HETATM   24  C15 UNL     1     -71.538 -15.128  49.882  1.00  0.00     0.176 C
HETATM   25  C16 UNL     1     -71.205 -16.226  48.935  1.00  0.00     0.012 C
HETATM   26  C17 UNL     1     -72.083 -16.708  48.061  1.00  0.00    -0.054 C
HETATM   27  C18 UNL     1     -71.727 -17.793  47.138  1.00  0.00     0.046 C
HETATM   28  C19 UNL     1     -73.438 -16.086  48.072  1.00  0.00     0.178 C
HETATM   29  C20 UNL     1     -73.893 -15.939  49.509  1.00  0.00     0.182 C
HETATM   30  C21 UNL     1     -72.954 -15.142  50.352  1.00  0.00     0.182 C
BRANCH  28  31
HETATM   31  O4  UNL     1     -73.359 -14.878  47.407  1.00  0.00    -0.389 OA
ATOM     32  H4  UNL     1     -74.160 -14.397  47.576  1.00  0.00     0.210 HD
ENDBRANCH  28  31
BRANCH  29  33
HETATM   33  O5  UNL     1     -74.056 -17.229  50.016  1.00  0.00    -0.390 OA
ATOM     34  H5  UNL     1     -74.231 -17.140  50.945  1.00  0.00     0.210 HD
ENDBRANCH  29  33
BRANCH  30  35
HETATM   35  O6  UNL     1     -73.479 -13.858  50.508  1.00  0.00    -0.390 OA
ATOM     36  H6  UNL     1     -74.414 -13.865  50.674  1.00  0.00     0.210 HD
ENDBRANCH  30  35
ENDBRANCH  23  24
ENDBRANCH   5  23
TORSDOF 11
ENDMDL