MODEL 4
REMARK VINA RESULT: -8.258135439      3.548      5.287
REMARK  11 active torsions:
REMARK  status: ('A' for Active; 'I' for Inactive)
REMARK    1  A    between atoms: N1_2  and  C1_4
REMARK    2  A    between atoms: C4_7  and  C5_8
REMARK    3  A    between atoms: C5_8  and  C6_9
REMARK    4  A    between atoms: C7_10  and  C8_11
REMARK    5  A    between atoms: C11_14  and  O3_15
REMARK    6  A    between atoms: O3_15  and  C12_16
REMARK    7  A    between atoms: C13_18  and  C14_19
REMARK    8  A    between atoms: C14_19  and  O5_20
REMARK    9  A    between atoms: C15_22  and  O6_23
REMARK   10  A    between atoms: C16_25  and  O7_26
REMARK   11  A    between atoms: C17_28  and  O8_29
ROOT
HETATM    1  C8  UNL     1     -69.242 -14.487  45.737  1.00  0.00    -0.035 A
HETATM    2  C9  UNL     1     -68.332 -14.368  46.819  1.00  0.00     0.014 A
HETATM    3  C10 UNL     1     -68.794 -14.260  48.089  1.00  0.00     0.039 A
HETATM    4  C11 UNL     1     -70.176 -14.258  48.416  1.00  0.00     0.089 A
HETATM    5  C18 UNL     1     -71.056 -14.371  47.380  1.00  0.00     0.045 A
HETATM    6 BR1  UNL     1     -72.971 -14.390  47.617  1.00  0.00    -0.048 Br
HETATM    7  C19 UNL     1     -70.566 -14.480  46.076  1.00  0.00     0.033 A
ENDROOT
BRANCH   4   8
HETATM    8  O3  UNL     1     -70.517 -14.148  49.692  1.00  0.00    -0.316 OA
BRANCH   8   9
HETATM    9  C12 UNL     1     -70.325 -14.583  50.938  1.00  0.00     0.298 C
HETATM   10  O4  UNL     1     -69.252 -13.883  51.512  1.00  0.00    -0.348 OA
HETATM   11  C13 UNL     1     -69.116 -14.017  52.857  1.00  0.00     0.179 C
HETATM   12  C15 UNL     1     -69.922 -15.128  53.487  1.00  0.00     0.180 C
HETATM   13  C16 UNL     1     -71.352 -15.161  53.066  1.00  0.00     0.183 C
HETATM   14  C17 UNL     1     -71.582 -14.406  51.798  1.00  0.00     0.205 C
BRANCH  11  15
HETATM   15  C14 UNL     1     -69.297 -12.712  53.614  1.00  0.00     0.198 C
BRANCH  15  16
HETATM   16  O5  UNL     1     -69.388 -11.629  52.764  1.00  0.00    -0.398 OA
ATOM     17  H5  UNL     1     -68.894 -11.761  51.963  1.00  0.00     0.209 HD
ENDBRANCH  15  16
ENDBRANCH  11  15
BRANCH  12  18
HETATM   18  O6  UNL     1     -69.263 -16.353  53.298  1.00  0.00    -0.390 OA
ATOM     19  H6  UNL     1     -69.446 -16.682  52.426  1.00  0.00     0.210 HD
ENDBRANCH  12  18
BRANCH  13  20
HETATM   20  O7  UNL     1     -72.221 -14.739  54.088  1.00  0.00    -0.390 OA
ATOM     21  H7  UNL     1     -72.398 -13.807  54.048  1.00  0.00     0.210 HD
ENDBRANCH  13  20
BRANCH  14  22
HETATM   22  O8  UNL     1     -72.614 -15.040  51.099  1.00  0.00    -0.388 OA
ATOM     23  H8  UNL     1     -72.445 -15.971  51.176  1.00  0.00     0.210 HD
ENDBRANCH  14  22
ENDBRANCH   8   9
ENDBRANCH   4   8
BRANCH   1  24
HETATM   24  C7  UNL     1     -68.724 -14.506  44.388  1.00  0.00     0.007 C
HETATM   25  C6  UNL     1     -67.915 -13.699  43.837  1.00  0.00    -0.021 C
BRANCH  25  26
HETATM   26  C5  UNL     1     -67.249 -12.511  44.315  1.00  0.00     0.065 C
BRANCH  26  27
HETATM   27  C4  UNL     1     -65.764 -12.843  44.364  1.00  0.00    -0.055 A
HETATM   28  C3  UNL     1     -65.049 -12.981  43.204  1.00  0.00     0.010 A
HETATM   29  C2  UNL     1     -63.710 -13.284  43.314  1.00  0.00     0.036 A
HETATM   30  C1  UNL     1     -63.082 -13.448  44.547  1.00  0.00     0.102 A
HETATM   31  C21 UNL     1     -63.848 -13.298  45.683  1.00  0.00     0.036 A
HETATM   32  C20 UNL     1     -65.210 -12.990  45.611  1.00  0.00     0.010 A
BRANCH  30  33
HETATM   33  N1  UNL     1     -61.690 -13.761  44.605  1.00  0.00    -0.116 N
HETATM   34  O1  UNL     1     -61.137 -13.704  45.720  1.00  0.00    -0.532 OA
HETATM   35  O2  UNL     1     -61.034 -14.101  43.458  1.00  0.00    -0.532 OA
ENDBRANCH  30  33
ENDBRANCH  26  27
ENDBRANCH  25  26
ENDBRANCH   1  24
TORSDOF 11
ENDMDL