MODEL 3
REMARK VINA RESULT: -7.923358155      2.427      5.183
REMARK  13 active torsions:
REMARK  status: ('A' for Active; 'I' for Inactive)
REMARK    1  A    between atoms: C3_3  and  C4_4
REMARK    2  A    between atoms: C4_4  and  N1_7
REMARK    3  A    between atoms: N1_7  and  C7_8
REMARK    4  A    between atoms: N1_7  and  C15_17
REMARK    5  A    between atoms: C7_8  and  C8_9
REMARK    6  A    between atoms: C20_23  and  O1_24
REMARK    7  A    between atoms: O1_24  and  C21_25
REMARK    8  A    between atoms: C21_25  and  C22_26
REMARK    9  A    between atoms: C23_28  and  C24_29
REMARK   10  A    between atoms: C24_29  and  O3_30
REMARK   11  A    between atoms: C25_32  and  O4_33
REMARK   12  A    between atoms: C26_35  and  O5_36
REMARK   13  A    between atoms: C27_38  and  O6_39
ROOT
HETATM    1  C1  UNL     1     -69.211 -14.430  55.176  1.00  0.00     0.112 C
HETATM    2  C2  UNL     1     -68.300 -14.576  54.039  1.00  0.00    -0.108 C
HETATM    3  C3  UNL     1     -67.527 -14.696  53.105  1.00  0.00    -0.076 C
ENDROOT
BRANCH   3   4
HETATM    4  C4  UNL     1     -66.613 -14.857  51.963  1.00  0.00     0.089 C
HETATM    5  C5  UNL     1     -65.206 -14.917  52.458  1.00  0.00     0.053 C
HETATM    6  C6  UNL     1     -66.904 -16.236  51.348  1.00  0.00     0.053 C
BRANCH   4   7
HETATM    7  N1  UNL     1     -66.862 -13.815  50.991  1.00  0.00    -0.355 N
BRANCH   7   8
HETATM    8  C7  UNL     1     -67.103 -12.492  51.530  1.00  0.00     0.163 C
BRANCH   8   9
HETATM    9  C8  UNL     1     -65.928 -11.814  52.070  1.00  0.00    -0.040 A
HETATM   10  C9  UNL     1     -65.956 -11.532  53.441  1.00  0.00     0.010 A
HETATM   11  C10 UNL     1     -64.908 -10.888  54.061  1.00  0.00     0.023 A
HETATM   12  C11 UNL     1     -63.833 -10.535  53.271  1.00  0.00     0.044 A
HETATM   13  C12 UNL     1     -62.728  -9.858  53.914  1.00  0.00     0.099 C
HETATM   14  C13 UNL     1     -63.799 -10.810  51.913  1.00  0.00     0.023 A
HETATM   15  N2  UNL     1     -61.852  -9.313  54.444  1.00  0.00    -0.191 NA
HETATM   16  C14 UNL     1     -64.840 -11.449  51.305  1.00  0.00     0.010 A
ENDBRANCH   8   9
ENDBRANCH   7   8
BRANCH   7  17
HETATM   17  C15 UNL     1     -66.857 -14.015  49.569  1.00  0.00     0.068 A
HETATM   18  C16 UNL     1     -65.687 -14.011  48.860  1.00  0.00     0.074 A
HETATM   19  C17 UNL     1     -65.678 -14.208  47.494  1.00  0.00     0.118 A
HETATM   20  F1  UNL     1     -64.507 -14.197  46.829  1.00  0.00    -0.206 F
HETATM   21  C18 UNL     1     -66.875 -14.415  46.837  1.00  0.00     0.045 A
HETATM   22  C19 UNL     1     -68.054 -14.422  47.535  1.00  0.00     0.042 A
HETATM   23  C20 UNL     1     -68.070 -14.226  48.889  1.00  0.00     0.095 A
BRANCH  23  24
HETATM   24  O1  UNL     1     -69.216 -14.220  49.646  1.00  0.00    -0.346 OA
BRANCH  24  25
HETATM   25  C21 UNL     1     -70.168 -15.122  49.966  1.00  0.00     0.210 C
BRANCH  25  26
HETATM   26  C22 UNL     1     -71.287 -15.413  49.003  1.00  0.00     0.177 C
HETATM   27  O2  UNL     1     -71.230 -16.740  48.701  1.00  0.00    -0.371 OA
HETATM   28  C23 UNL     1     -72.305 -17.410  48.303  1.00  0.00     0.177 C
HETATM   29  C25 UNL     1     -73.650 -16.867  48.647  1.00  0.00     0.180 C
HETATM   30  C26 UNL     1     -73.703 -15.364  48.636  1.00  0.00     0.180 C
HETATM   31  C27 UNL     1     -72.575 -14.919  49.558  1.00  0.00     0.180 C
BRANCH  28  32
HETATM   32  C24 UNL     1     -72.236 -17.597  46.786  1.00  0.00     0.198 C
BRANCH  32  33
HETATM   33  O3  UNL     1     -72.554 -18.892  46.420  1.00  0.00    -0.398 OA
ATOM     34  H3  UNL     1     -72.438 -19.029  45.487  1.00  0.00     0.209 HD
ENDBRANCH  32  33
ENDBRANCH  28  32
BRANCH  29  35
HETATM   35  O4  UNL     1     -74.029 -17.287  49.923  1.00  0.00    -0.390 OA
ATOM     36  H4  UNL     1     -74.298 -16.542  50.447  1.00  0.00     0.210 HD
ENDBRANCH  29  35
BRANCH  30  37
HETATM   37  O5  UNL     1     -73.604 -14.819  47.380  1.00  0.00    -0.390 OA
ATOM     38  H5  UNL     1     -72.880 -15.167  46.872  1.00  0.00     0.210 HD
ENDBRANCH  30  37
BRANCH  31  39
HETATM   39  O6  UNL     1     -72.881 -15.365  50.824  1.00  0.00    -0.390 OA
ATOM     40  H6  UNL     1     -73.239 -16.244  50.869  1.00  0.00     0.210 HD
ENDBRANCH  31  39
ENDBRANCH  25  26
ENDBRANCH  24  25
ENDBRANCH  23  24
ENDBRANCH   7  17
ENDBRANCH   4   7
ENDBRANCH   3   4
TORSDOF 13
ENDMDL