MODEL 3
REMARK VINA RESULT: -8.135219874      1.535      2.012
REMARK  11 active torsions:
REMARK  status: ('A' for Active; 'I' for Inactive)
REMARK    1  A    between atoms: N1_2  and  C2_3
REMARK    2  A    between atoms: N1_2  and  C22_34
REMARK    3  A    between atoms: C2_3  and  C3_4
REMARK    4  A    between atoms: C6_8  and  O1_9
REMARK    5  A    between atoms: O1_9  and  C7_10
REMARK    6  A    between atoms: C8_12  and  C9_13
REMARK    7  A    between atoms: C9_13  and  O3_14
REMARK    8  A    between atoms: C10_16  and  O4_17
REMARK    9  A    between atoms: C11_19  and  O5_20
REMARK   10  A    between atoms: C12_22  and  O6_23
REMARK   11  A    between atoms: C13_25  and  C14_26
ROOT
HETATM    1  C3  UNL     1     -67.540 -14.005  52.623  1.00  0.00    -0.028 A
HETATM    2  C4  UNL     1     -68.800 -14.087  53.145  1.00  0.00     0.035 A
HETATM    3  C5  UNL     1     -69.875 -14.185  52.311  1.00  0.00     0.069 A
HETATM    4 CL1  UNL     1     -71.464 -14.431  53.039  1.00  0.00    -0.081 Cl
HETATM    5  C6  UNL     1     -69.697 -14.204  50.917  1.00  0.00     0.104 A
HETATM    6  C13 UNL     1     -68.436 -14.136  50.334  1.00  0.00     0.002 A
HETATM    7  C21 UNL     1     -67.370 -14.034  51.265  1.00  0.00     0.023 A
ENDROOT
BRANCH   5   8
HETATM    8  O1  UNL     1     -70.841 -14.296  50.204  1.00  0.00    -0.315 OA
BRANCH   8   9
HETATM    9  C7  UNL     1     -71.631 -15.415  49.879  1.00  0.00     0.298 C
HETATM   10  O2  UNL     1     -71.078 -16.001  48.753  1.00  0.00    -0.348 OA
HETATM   11  C8  UNL     1     -71.860 -16.427  47.742  1.00  0.00     0.179 C
HETATM   12  C10 UNL     1     -72.921 -15.479  47.303  1.00  0.00     0.180 C
HETATM   13  C11 UNL     1     -73.454 -14.613  48.387  1.00  0.00     0.183 C
HETATM   14  C12 UNL     1     -73.045 -15.056  49.778  1.00  0.00     0.205 C
BRANCH  11  15
HETATM   15  C9  UNL     1     -72.249 -17.880  47.743  1.00  0.00     0.198 C
BRANCH  15  16
HETATM   16  O3  UNL     1     -71.933 -18.575  46.583  1.00  0.00    -0.398 OA
ATOM     17  H3  UNL     1     -72.062 -19.515  46.629  1.00  0.00     0.209 HD
ENDBRANCH  15  16
ENDBRANCH  11  15
BRANCH  12  18
HETATM   18  O4  UNL     1     -72.412 -14.579  46.321  1.00  0.00    -0.390 OA
ATOM     19  H4  UNL     1     -72.011 -13.824  46.737  1.00  0.00     0.210 HD
ENDBRANCH  12  18
BRANCH  13  20
HETATM   20  O5  UNL     1     -73.055 -13.267  48.281  1.00  0.00    -0.390 OA
ATOM     21  H5  UNL     1     -73.727 -12.650  48.547  1.00  0.00     0.210 HD
ENDBRANCH  13  20
BRANCH  14  22
HETATM   22  O6  UNL     1     -73.339 -13.933  50.592  1.00  0.00    -0.388 OA
ATOM     23  H6  UNL     1     -74.235 -13.969  50.908  1.00  0.00     0.210 HD
ENDBRANCH  14  22
ENDBRANCH   8   9
ENDBRANCH   5   8
BRANCH   6  24
HETATM   24  C14 UNL     1     -68.179 -14.146  48.885  1.00  0.00    -0.067 C
HETATM   25  C15 UNL     1     -67.143 -15.195  48.507  1.00  0.00     0.035 C
HETATM   26  C16 UNL     1     -66.141 -14.722  47.537  1.00  0.00     0.004 C
HETATM   27  C17 UNL     1     -66.602 -13.698  46.545  1.00  0.00     0.000 C
HETATM   28  C18 UNL     1     -67.807 -14.085  45.757  1.00  0.00     0.000 C
HETATM   29  C19 UNL     1     -69.066 -14.278  46.531  1.00  0.00     0.004 C
HETATM   30  C20 UNL     1     -69.084 -13.623  47.893  1.00  0.00     0.035 C
ENDBRANCH   6  24
BRANCH   1  31
HETATM   31  C2  UNL     1     -66.404 -13.789  53.539  1.00  0.00     0.311 C
BRANCH  31  32
HETATM   32  N1  UNL     1     -65.796 -15.048  53.902  1.00  0.00     0.097 N
HETATM   33  C1  UNL     1     -66.011 -15.516  55.214  1.00  0.00     0.310 C
BRANCH  32  34
HETATM   34  C22 UNL     1     -64.451 -15.053  53.428  1.00  0.00     0.270 C
HETATM   35  C23 UNL     1     -64.223 -15.666  52.054  1.00  0.00     0.205 C
HETATM   36  O7  UNL     1     -63.568 -16.744  52.658  1.00  0.00    -0.387 OA
HETATM   37  C24 UNL     1     -63.596 -16.179  53.945  1.00  0.00     0.205 C
ENDBRANCH  32  34
ENDBRANCH  31  32
ENDBRANCH   1  31
TORSDOF 11
ENDMDL