MODEL 4
REMARK VINA RESULT: -7.421264552      1.584      2.373
REMARK  10 active torsions:
REMARK  status: ('A' for Active; 'I' for Inactive)
REMARK    1  A    between atoms: C2_2  and  C3_3
REMARK    2  A    between atoms: C3_3  and  C4_4
REMARK    3  A    between atoms: C4_4  and  C5_5
REMARK    4  A    between atoms: C5_5  and  C6_6
REMARK    5  A    between atoms: C6_6  and  N2_10
REMARK    6  A    between atoms: N2_10  and  C7_12
REMARK    7  A    between atoms: C11_17  and  C13_19
REMARK    8  A    between atoms: C14_21  and  O2_22
REMARK    9  A    between atoms: C18_27  and  O4_28
REMARK   10  A    between atoms: C23_36  and  O7_37
ROOT
HETATM    1  C7  UNL     1     -67.580 -13.739  50.198  1.00  0.00     0.185 C
HETATM    2  C8  UNL     1     -68.507 -14.800  49.759  1.00  0.00     0.160 C
HETATM    3  O1  UNL     1     -67.912 -15.715  49.166  1.00  0.00    -0.295 OA
HETATM    4  C9  UNL     1     -69.955 -15.057  49.840  1.00  0.00     0.092 C
HETATM    5  C10 UNL     1     -70.576 -14.585  48.563  1.00  0.00     0.032 C
HETATM    6  C11 UNL     1     -71.869 -15.174  48.172  1.00  0.00     0.020 C
HETATM    7  C12 UNL     1     -72.684 -14.051  47.503  1.00  0.00     0.021 C
HETATM    8  C14 UNL     1     -72.729 -15.721  49.245  1.00  0.00     0.273 C
HETATM    9  O3  UNL     1     -72.939 -14.705  50.254  1.00  0.00    -0.331 OA
HETATM   10  C16 UNL     1     -71.927 -14.336  51.152  1.00  0.00     0.144 C
HETATM   11  C17 UNL     1     -70.608 -14.460  51.039  1.00  0.00    -0.009 C
HETATM   12  C18 UNL     1     -70.140 -13.896  52.293  1.00  0.00     0.126 C
HETATM   13  C19 UNL     1     -70.568 -14.631  53.539  1.00  0.00     0.157 C
HETATM   14  C20 UNL     1     -69.490 -14.188  54.499  1.00  0.00     0.263 C
HETATM   15  O5  UNL     1     -69.495 -14.458  55.721  1.00  0.00    -0.265 OA
HETATM   16  O6  UNL     1     -68.522 -13.448  53.790  1.00  0.00    -0.304 OA
HETATM   17  C21 UNL     1     -68.630 -13.952  52.449  1.00  0.00     0.130 C
HETATM   18  C22 UNL     1     -68.095 -15.341  52.476  1.00  0.00     0.053 C
HETATM   19  C23 UNL     1     -68.004 -13.043  51.446  1.00  0.00     0.186 C
ENDROOT
BRANCH   1  20
HETATM   20  N2  UNL     1     -67.404 -12.734  49.126  1.00  0.00    -0.366 N
ATOM     21  H2  UNL     1     -68.123 -12.027  48.979  1.00  0.00     0.161 HD
BRANCH  20  22
HETATM   22  C6  UNL     1     -66.258 -12.738  48.304  1.00  0.00     0.071 C
HETATM   23  N1  UNL     1     -66.322 -13.543  47.267  1.00  0.00    -0.389 N
ATOM     24  H12 UNL     1     -65.493 -13.546  46.673  1.00  0.00     0.157 HD
ATOM     25  H11 UNL     1     -67.181 -14.069  47.107  1.00  0.00     0.157 HD
BRANCH  22  26
HETATM   26  C5  UNL     1     -65.037 -11.990  48.532  1.00  0.00     0.075 C
BRANCH  26  27
HETATM   27  C4  UNL     1     -63.798 -12.535  47.936  1.00  0.00     0.007 C
BRANCH  27  28
HETATM   28  C3  UNL     1     -63.100 -11.768  46.886  1.00  0.00     0.000 C
BRANCH  28  29
HETATM   29  C2  UNL     1     -62.061 -10.782  47.248  1.00  0.00    -0.005 C
HETATM   30  C1  UNL     1     -61.716  -9.999  45.962  1.00  0.00     0.005 C
ENDBRANCH  28  29
ENDBRANCH  27  28
ENDBRANCH  26  27
ENDBRANCH  22  26
ENDBRANCH  20  22
ENDBRANCH   1  20
BRANCH  19  31
HETATM   31  O7  UNL     1     -66.952 -12.332  51.990  1.00  0.00    -0.390 OA
ATOM     32  H7  UNL     1     -66.771 -11.553  51.478  1.00  0.00     0.210 HD
ENDBRANCH  19  31
BRANCH  12  33
HETATM   33  O4  UNL     1     -70.556 -12.580  52.423  1.00  0.00    -0.381 OA
ATOM     34  H4  UNL     1     -71.039 -12.460  53.231  1.00  0.00     0.211 HD
ENDBRANCH  12  33
BRANCH   6  35
HETATM   35  C13 UNL     1     -71.721 -16.228  47.085  1.00  0.00     0.128 C
HETATM   36 CL1  UNL     1     -71.268 -17.804  47.780  1.00  0.00    -0.130 Cl
ENDBRANCH   6  35
BRANCH   8  37
HETATM   37  O2  UNL     1     -74.004 -15.953  48.734  1.00  0.00    -0.365 OA
HETATM   38  C15 UNL     1     -74.600 -16.987  49.410  1.00  0.00     0.204 C
ENDBRANCH   8  37
TORSDOF 10
ENDMDL