MODEL 5
REMARK VINA RESULT: -8.340546525      2.633      5.517
REMARK  11 active torsions:
REMARK  status: ('A' for Active; 'I' for Inactive)
REMARK    1  A    between atoms: C2_2  and  C5_5
REMARK    2  A    between atoms: C5_5  and  O2_7
REMARK    3  A    between atoms: O2_7  and  C6_8
REMARK    4  A    between atoms: C6_8  and  C7_9
REMARK    5  A    between atoms: C8_11  and  C9_12
REMARK    6  A    between atoms: C12_15  and  N1_16
REMARK    7  A    between atoms: N1_16  and  S1_18
REMARK    8  A    between atoms: S1_18  and  C13_21
REMARK    9  A    between atoms: C21_30  and  O6_31
REMARK   10  A    between atoms: C22_33  and  O7_34
REMARK   11  A    between atoms: C23_36  and  O8_37
ROOT
HETATM    1  C7  UNL     1     -71.997 -15.383  49.661  1.00  0.00     0.178 C
HETATM    2  O3  UNL     1     -70.949 -14.646  49.092  1.00  0.00    -0.368 OA
HETATM    3  C8  UNL     1     -70.269 -15.550  48.277  1.00  0.00     0.186 C
HETATM    4  C21 UNL     1     -71.125 -15.693  47.022  1.00  0.00     0.182 C
HETATM    5  C22 UNL     1     -72.359 -16.480  47.442  1.00  0.00     0.181 C
HETATM    6  C23 UNL     1     -73.002 -15.818  48.641  1.00  0.00     0.180 C
ENDROOT
BRANCH   3   7
HETATM    7  C9  UNL     1     -68.890 -15.166  47.965  1.00  0.00    -0.027 A
HETATM    8  C10 UNL     1     -68.521 -14.489  46.821  1.00  0.00     0.012 A
HETATM    9  C11 UNL     1     -67.206 -14.152  46.588  1.00  0.00     0.031 A
HETATM   10  C12 UNL     1     -66.183 -14.470  47.478  1.00  0.00     0.042 A
HETATM   11  C19 UNL     1     -66.543 -15.146  48.622  1.00  0.00     0.031 A
HETATM   12  C20 UNL     1     -67.875 -15.479  48.844  1.00  0.00     0.012 A
BRANCH  10  13
HETATM   13  N1  UNL     1     -64.841 -14.107  47.224  1.00  0.00    -0.281 N
ATOM     14  H1  UNL     1     -64.296 -14.663  46.564  1.00  0.00     0.179 HD
BRANCH  13  15
HETATM   15  S1  UNL     1     -64.100 -12.769  47.981  1.00  0.00     0.263 S
HETATM   16  O4  UNL     1     -62.641 -12.987  48.270  1.00  0.00    -0.200 OA
HETATM   17  O5  UNL     1     -64.280 -11.546  47.088  1.00  0.00    -0.200 OA
BRANCH  15  18
HETATM   18  C13 UNL     1     -64.876 -12.399  49.510  1.00  0.00     0.080 A
HETATM   19  C14 UNL     1     -64.261 -12.821  50.667  1.00  0.00     0.028 A
HETATM   20  C15 UNL     1     -64.779 -12.584  51.921  1.00  0.00     0.044 A
HETATM   21  C16 UNL     1     -65.964 -11.894  51.985  1.00  0.00     0.116 A
HETATM   22  F1  UNL     1     -66.524 -11.632  53.195  1.00  0.00    -0.206 F
HETATM   23  C17 UNL     1     -66.589 -11.466  50.834  1.00  0.00     0.044 A
HETATM   24  C18 UNL     1     -66.062 -11.708  49.576  1.00  0.00     0.028 A
ENDBRANCH  15  18
ENDBRANCH  13  15
ENDBRANCH  10  13
ENDBRANCH   3   7
BRANCH   4  25
HETATM   25  O6  UNL     1     -71.583 -14.404  46.697  1.00  0.00    -0.390 OA
ATOM     26  H6  UNL     1     -72.512 -14.484  46.512  1.00  0.00     0.210 HD
ENDBRANCH   4  25
BRANCH   1  27
HETATM   27  C6  UNL     1     -72.716 -14.630  50.756  1.00  0.00     0.213 C
BRANCH  27  28
HETATM   28  O2  UNL     1     -71.742 -13.830  51.404  1.00  0.00    -0.318 OA
BRANCH  28  29
HETATM   29  C5  UNL     1     -71.106 -14.178  52.574  1.00  0.00     0.266 C
HETATM   30  O1  UNL     1     -71.685 -14.956  53.362  1.00  0.00    -0.264 OA
BRANCH  29  31
HETATM   31  C2  UNL     1     -69.751 -13.640  52.895  1.00  0.00     0.037 C
HETATM   32  C1  UNL     1     -69.406 -13.802  54.341  1.00  0.00     0.025 C
HETATM   33  C3  UNL     1     -69.718 -12.184  52.490  1.00  0.00     0.025 C
HETATM   34  C4  UNL     1     -68.691 -14.361  52.063  1.00  0.00     0.025 C
ENDBRANCH  29  31
ENDBRANCH  28  29
ENDBRANCH  27  28
ENDBRANCH   1  27
BRANCH   5  35
HETATM   35  O7  UNL     1     -71.902 -17.771  47.747  1.00  0.00    -0.390 OA
ATOM     36  H7  UNL     1     -71.454 -18.077  46.967  1.00  0.00     0.210 HD
ENDBRANCH   5  35
BRANCH   6  37
HETATM   37  O8  UNL     1     -73.844 -14.802  48.231  1.00  0.00    -0.390 OA
ATOM     38  H8  UNL     1     -73.925 -14.737  47.287  1.00  0.00     0.210 HD
ENDBRANCH   6  37
TORSDOF 11
ENDMDL