MODEL 1
REMARK VINA RESULT: -8.294566918      0.000      0.000
REMARK  11 active torsions:
REMARK  status: ('A' for Active; 'I' for Inactive)
REMARK    1  A    between atoms: C3_3  and  O1_4
REMARK    2  A    between atoms: O1_4  and  C4_5
REMARK    3  A    between atoms: C4_5  and  C5_7
REMARK    4  A    between atoms: C5_7  and  C6_8
REMARK    5  A    between atoms: C6_8  and  C7_9
REMARK    6  A    between atoms: C7_9  and  C8_10
REMARK    7  A    between atoms: C8_10  and  C9_11
REMARK    8  A    between atoms: C19_25  and  O4_26
REMARK    9  A    between atoms: C20_28  and  O5_29
REMARK   10  A    between atoms: C22_34  and  C23_35
REMARK   11  A    between atoms: C23_35  and  O7_36
ROOT
HETATM    1  C1  UNL     1     -67.986 -13.520  46.273  1.00  0.00     0.017 C
HETATM    2  C2  UNL     1     -68.269 -14.358  47.243  1.00  0.00    -0.055 C
HETATM    3  C3  UNL     1     -69.344 -15.374  47.226  1.00  0.00     0.161 C
HETATM    4  C11 UNL     1     -69.860 -15.329  48.641  1.00  0.00     0.043 C
HETATM    5  C12 UNL     1     -68.812 -14.572  49.469  1.00  0.00     0.006 C
HETATM    6  C13 UNL     1     -67.610 -14.504  48.564  1.00  0.00     0.034 C
HETATM    7  C14 UNL     1     -66.663 -13.397  48.843  1.00  0.00     0.084 C
HETATM    8  C15 UNL     1     -65.371 -13.716  48.162  1.00  0.00    -0.012 C
HETATM    9  N1  UNL     1     -65.195 -14.799  47.511  1.00  0.00    -0.405 N
ATOM     10  H11 UNL     1     -64.313 -15.016  47.046  1.00  0.00     0.155 HD
ATOM     11  H12 UNL     1     -65.949 -15.483  47.439  1.00  0.00     0.155 HD
HETATM   12  C16 UNL     1     -64.270 -12.718  48.268  1.00  0.00     0.060 C
HETATM   13  C17 UNL     1     -63.942 -12.642  49.762  1.00  0.00     0.087 C
HETATM   14  C18 UNL     1     -65.202 -12.292  50.458  1.00  0.00     0.165 C
HETATM   15  O3  UNL     1     -65.212 -11.321  51.191  1.00  0.00    -0.295 OA
HETATM   16  C19 UNL     1     -66.458 -13.072  50.302  1.00  0.00     0.157 C
HETATM   17  C20 UNL     1     -66.333 -14.298  51.158  1.00  0.00     0.211 C
HETATM   18  C21 UNL     1     -67.637 -14.807  51.693  1.00  0.00     0.170 C
HETATM   19 CL1  UNL     1     -67.219 -16.117  52.856  1.00  0.00    -0.085 Cl
HETATM   20  O6  UNL     1     -68.371 -13.883  52.384  1.00  0.00    -0.354 OA
HETATM   21  C22 UNL     1     -69.702 -14.179  52.315  1.00  0.00     0.148 C
HETATM   22  C24 UNL     1     -69.861 -15.428  51.477  1.00  0.00     0.043 C
HETATM   23  C25 UNL     1     -68.544 -15.396  50.681  1.00  0.00     0.046 C
ENDROOT
BRANCH   3  24
HETATM   24  O1  UNL     1     -70.368 -15.079  46.298  1.00  0.00    -0.311 OA
BRANCH  24  25
HETATM   25  C4  UNL     1     -71.691 -15.254  46.598  1.00  0.00     0.259 C
HETATM   26  O2  UNL     1     -72.206 -16.394  46.528  1.00  0.00    -0.265 OA
BRANCH  25  27
HETATM   27  C5  UNL     1     -72.505 -14.086  47.006  1.00  0.00     0.111 C
BRANCH  27  28
HETATM   28  C6  UNL     1     -73.693 -14.596  47.810  1.00  0.00     0.010 C
BRANCH  28  29
HETATM   29  C7  UNL     1     -73.453 -14.484  49.283  1.00  0.00     0.000 C
BRANCH  29  30
HETATM   30  C8  UNL     1     -73.370 -15.849  49.900  1.00  0.00    -0.000 C
BRANCH  30  31
HETATM   31  C9  UNL     1     -74.489 -16.715  49.422  1.00  0.00    -0.005 C
HETATM   32  C10 UNL     1     -73.960 -18.120  49.068  1.00  0.00     0.005 C
ENDBRANCH  30  31
ENDBRANCH  29  30
ENDBRANCH  28  29
ENDBRANCH  27  28
ENDBRANCH  25  27
ENDBRANCH  24  25
ENDBRANCH   3  24
BRANCH  16  33
HETATM   33  O4  UNL     1     -67.502 -12.295  50.794  1.00  0.00    -0.378 OA
ATOM     34  H4  UNL     1     -67.172 -11.531  51.252  1.00  0.00     0.211 HD
ENDBRANCH  16  33
BRANCH  17  35
HETATM   35  O5  UNL     1     -65.666 -15.343  50.532  1.00  0.00    -0.388 OA
ATOM     36  H5  UNL     1     -65.786 -16.181  50.964  1.00  0.00     0.210 HD
ENDBRANCH  17  35
BRANCH  21  37
HETATM   37  C23 UNL     1     -70.351 -14.325  53.676  1.00  0.00     0.196 C
BRANCH  37  38
HETATM   38  O7  UNL     1     -71.661 -14.772  53.605  1.00  0.00    -0.398 OA
ATOM     39  H7  UNL     1     -72.008 -15.039  54.448  1.00  0.00     0.209 HD
ENDBRANCH  37  38
ENDBRANCH  21  37
TORSDOF 11
ENDMDL