MODEL 4
REMARK VINA RESULT: -7.176841287      2.865      6.389
REMARK  12 active torsions:
REMARK  status: ('A' for Active; 'I' for Inactive)
REMARK    1  A    between atoms: C3_3  and  C4_4
REMARK    2  A    between atoms: C5_7  and  C6_8
REMARK    3  A    between atoms: C6_8  and  O3_9
REMARK    4  A    between atoms: C7_11  and  O4_12
REMARK    5  A    between atoms: C8_14  and  O5_15
REMARK    6  A    between atoms: C9_17  and  O6_18
REMARK    7  A    between atoms: C12_23  and  O7_24
REMARK    8  A    between atoms: O7_24  and  C13_25
REMARK    9  A    between atoms: C13_25  and  C14_26
REMARK   10  A    between atoms: C14_26  and  C15_27
REMARK   11  A    between atoms: C15_27  and  O8_28
REMARK   12  A    between atoms: O8_28  and  C16_29
ROOT
HETATM    1  C1  UNL     1     -68.918 -14.807  45.887  1.00  0.00     0.049 C
HETATM    2  C2  UNL     1     -69.197 -14.512  47.330  1.00  0.00    -0.044 A
HETATM    3  C3  UNL     1     -70.499 -14.679  47.848  1.00  0.00    -0.016 A
HETATM    4  C10 UNL     1     -70.657 -14.419  49.187  1.00  0.00     0.032 A
HETATM    5  C11 UNL     1     -69.590 -14.008  50.008  1.00  0.00     0.045 A
HETATM    6 BR1  UNL     1     -69.909 -13.661  51.836  1.00  0.00    -0.048 Br
HETATM    7  C12 UNL     1     -68.326 -13.849  49.480  1.00  0.00     0.092 A
HETATM    8  C20 UNL     1     -68.173 -14.109  48.156  1.00  0.00    -0.021 A
HETATM    9  C21 UNL     1     -66.813 -13.981  47.574  1.00  0.00     0.052 C
ENDROOT
BRANCH   3  10
HETATM   10  C4  UNL     1     -71.559 -14.955  46.887  1.00  0.00     0.225 C
HETATM   11  O1  UNL     1     -72.464 -13.793  47.076  1.00  0.00    -0.228 OA
HETATM   12  O2  UNL     1     -72.960 -13.929  48.212  1.00  0.00    -0.230 OA
HETATM   13  C5  UNL     1     -74.043 -14.505  48.667  1.00  0.00     0.215 C
HETATM   14  C7  UNL     1     -73.801 -15.906  49.301  1.00  0.00     0.183 C
HETATM   15  C8  UNL     1     -72.546 -16.493  48.635  1.00  0.00     0.181 C
HETATM   16  C9  UNL     1     -72.567 -16.027  47.218  1.00  0.00     0.186 C
BRANCH  13  17
HETATM   17  C6  UNL     1     -74.533 -13.692  49.900  1.00  0.00     0.201 C
BRANCH  17  18
HETATM   18  O3  UNL     1     -73.652 -13.795  50.946  1.00  0.00    -0.398 OA
ATOM     19  H3  UNL     1     -73.719 -14.641  51.371  1.00  0.00     0.209 HD
ENDBRANCH  17  18
ENDBRANCH  13  17
BRANCH  14  20
HETATM   20  O4  UNL     1     -74.880 -16.709  48.950  1.00  0.00    -0.390 OA
ATOM     21  H4  UNL     1     -74.577 -17.310  48.279  1.00  0.00     0.210 HD
ENDBRANCH  14  20
BRANCH  15  22
HETATM   22  O5  UNL     1     -72.703 -17.871  48.637  1.00  0.00    -0.390 OA
ATOM     23  H5  UNL     1     -71.844 -18.243  48.472  1.00  0.00     0.210 HD
ENDBRANCH  15  22
BRANCH  16  24
HETATM   24  O6  UNL     1     -72.402 -17.131  46.318  1.00  0.00    -0.390 OA
ATOM     25  H6  UNL     1     -72.311 -17.934  46.817  1.00  0.00     0.210 HD
ENDBRANCH  16  24
ENDBRANCH   3  10
BRANCH   7  26
HETATM   26  O7  UNL     1     -67.305 -13.436  50.326  1.00  0.00    -0.349 OA
BRANCH  26  27
HETATM   27  C13 UNL     1     -67.119 -12.041  50.347  1.00  0.00     0.178 C
BRANCH  27  28
HETATM   28  C14 UNL     1     -65.922 -11.494  51.000  1.00  0.00     0.053 C
BRANCH  28  29
HETATM   29  C15 UNL     1     -65.694 -11.881  52.408  1.00  0.00     0.171 C
BRANCH  29  30
HETATM   30  O8  UNL     1     -66.720 -12.019  53.255  1.00  0.00    -0.381 OA
BRANCH  30  31
HETATM   31  C16 UNL     1     -66.754 -12.874  54.280  1.00  0.00     0.050 C
HETATM   32  C17 UNL     1     -68.027 -12.985  55.088  1.00  0.00     0.045 C
HETATM   33  C18 UNL     1     -66.556 -14.297  53.706  1.00  0.00     0.045 C
HETATM   34  C19 UNL     1     -65.585 -12.712  55.243  1.00  0.00     0.045 C
ENDBRANCH  30  31
ENDBRANCH  29  30
ENDBRANCH  28  29
ENDBRANCH  27  28
ENDBRANCH  26  27
ENDBRANCH   7  26
TORSDOF 12
ENDMDL