MODEL 4
REMARK VINA RESULT: -8.953190562      3.991      5.815
REMARK  12 active torsions:
REMARK  status: ('A' for Active; 'I' for Inactive)
REMARK    1  A    between atoms: C5_5  and  C6_6
REMARK    2  A    between atoms: C8_8  and  O1_9
REMARK    3  A    between atoms: C9_11  and  C11_13
REMARK    4  A    between atoms: C12_14  and  C13_15
REMARK    5  A    between atoms: C13_15  and  O2_16
REMARK    6  A    between atoms: O2_16  and  C14_17
REMARK    7  A    between atoms: C15_18  and  O3_19
REMARK    8  A    between atoms: C16_21  and  O4_22
REMARK    9  A    between atoms: C17_24  and  O5_25
REMARK   10  A    between atoms: C18_27  and  O6_28
REMARK   11  A    between atoms: O6_28  and  C19_29
REMARK   12  A    between atoms: C19_29  and  C20_31
ROOT
HETATM    1  C14 UNL     1     -72.063 -15.109  49.146  1.00  0.00     0.185 C
HETATM    2  C15 UNL     1     -73.250 -15.827  49.776  1.00  0.00     0.181 C
HETATM    3  C16 UNL     1     -73.441 -17.038  48.921  1.00  0.00     0.180 C
HETATM    4  C17 UNL     1     -73.129 -16.572  47.529  1.00  0.00     0.181 C
HETATM    5  C18 UNL     1     -72.242 -15.389  47.678  1.00  0.00     0.195 C
ENDROOT
BRANCH   1   6
HETATM    6  O2  UNL     1     -70.859 -15.500  49.655  1.00  0.00    -0.377 OA
BRANCH   6   7
HETATM    7  C13 UNL     1     -70.405 -14.809  50.748  1.00  0.00     0.195 C
BRANCH   7   8
HETATM    8  C12 UNL     1     -69.400 -13.787  50.396  1.00  0.00    -0.002 C
HETATM    9  C11 UNL     1     -68.894 -12.971  51.317  1.00  0.00     0.011 C
BRANCH   9  10
HETATM   10  C9  UNL     1     -67.880 -11.949  50.934  1.00  0.00     0.101 C
HETATM   11  C8  UNL     1     -66.989 -11.734  52.159  1.00  0.00     0.158 C
HETATM   12  C7  UNL     1     -65.927 -12.747  51.909  1.00  0.00     0.067 C
HETATM   13  C6  UNL     1     -65.895 -12.888  50.449  1.00  0.00     0.129 C
HETATM   14  O8  UNL     1     -67.056 -12.395  49.930  1.00  0.00    -0.368 OA
HETATM   15  C10 UNL     1     -68.589 -10.701  50.522  1.00  0.00     0.053 C
BRANCH  11  16
HETATM   16  O1  UNL     1     -67.695 -12.004  53.332  1.00  0.00    -0.392 OA
ATOM     17  H1  UNL     1     -68.288 -11.297  53.556  1.00  0.00     0.210 HD
ENDBRANCH  11  16
BRANCH  13  18
HETATM   18  C5  UNL     1     -64.710 -12.313  49.747  1.00  0.00     0.015 C
HETATM   19  C4  UNL     1     -63.627 -11.770  50.581  1.00  0.00     0.007 C
HETATM   20  C3  UNL     1     -62.376 -11.884  49.700  1.00  0.00     0.005 C
HETATM   21  C2  UNL     1     -62.792 -12.552  48.431  1.00  0.00    -0.018 C
HETATM   22  C1  UNL     1     -63.021 -11.489  47.380  1.00  0.00     0.010 C
HETATM   23  C26 UNL     1     -64.054 -13.287  48.783  1.00  0.00     0.011 C
ENDBRANCH  13  18
ENDBRANCH   9  10
ENDBRANCH   7   8
ENDBRANCH   6   7
ENDBRANCH   1   6
BRANCH   2  24
HETATM   24  O3  UNL     1     -74.363 -14.974  49.598  1.00  0.00    -0.390 OA
ATOM     25  H3  UNL     1     -75.005 -15.477  49.111  1.00  0.00     0.210 HD
ENDBRANCH   2  24
BRANCH   5  26
HETATM   26  O6  UNL     1     -71.045 -15.440  46.960  1.00  0.00    -0.307 OA
BRANCH  26  27
HETATM   27  C19 UNL     1     -70.647 -14.580  45.978  1.00  0.00     0.293 C
HETATM   28  O7  UNL     1     -71.525 -14.166  45.199  1.00  0.00    -0.259 OA
BRANCH  27  29
HETATM   29  C20 UNL     1     -69.268 -14.140  45.813  1.00  0.00     0.039 A
HETATM   30  C21 UNL     1     -68.356 -14.276  46.837  1.00  0.00     0.020 A
HETATM   31  C22 UNL     1     -67.042 -13.859  46.683  1.00  0.00     0.043 A
HETATM   32  C23 UNL     1     -66.606 -13.297  45.507  1.00  0.00     0.116 A
HETATM   33  F1  UNL     1     -65.302 -12.885  45.363  1.00  0.00    -0.206 F
HETATM   34  C24 UNL     1     -67.508 -13.156  44.477  1.00  0.00     0.043 A
HETATM   35  C25 UNL     1     -68.829 -13.578  44.641  1.00  0.00     0.020 A
ENDBRANCH  27  29
ENDBRANCH  26  27
ENDBRANCH   5  26
BRANCH   3  36
HETATM   36  O4  UNL     1     -74.792 -17.421  49.044  1.00  0.00    -0.390 OA
ATOM     37  H4  UNL     1     -75.140 -17.500  48.164  1.00  0.00     0.210 HD
ENDBRANCH   3  36
BRANCH   4  38
HETATM   38  O5  UNL     1     -72.603 -17.578  46.727  1.00  0.00    -0.390 OA
ATOM     39  H5  UNL     1     -71.947 -17.260  46.118  1.00  0.00     0.210 HD
ENDBRANCH   4  38
TORSDOF 12
ENDMDL