MODEL 5
REMARK VINA RESULT: -8.785443642      1.910      2.345
REMARK  13 active torsions:
REMARK  status: ('A' for Active; 'I' for Inactive)
REMARK    1  A    between atoms: O1_1  and  C1_3
REMARK    2  A    between atoms: C3_5  and  C4_6
REMARK    3  A    between atoms: C4_6  and  C5_7
REMARK    4  A    between atoms: C5_7  and  C6_8
REMARK    5  A    between atoms: C9_12  and  C10_13
REMARK    6  A    between atoms: C11_14  and  C12_15
REMARK    7  A    between atoms: C12_15  and  O2_16
REMARK    8  A    between atoms: O2_16  and  C13_17
REMARK    9  A    between atoms: C14_19  and  C15_20
REMARK   10  A    between atoms: C18_23  and  C19_24
REMARK   11  A    between atoms: C25_34  and  O4_35
REMARK   12  A    between atoms: C26_37  and  O5_38
REMARK   13  A    between atoms: C27_40  and  O6_41
ROOT
HETATM    1  C13 UNL     1     -70.222 -14.201  51.812  1.00  0.00     0.293 C
HETATM    2  O3  UNL     1     -68.820 -14.050  51.868  1.00  0.00    -0.344 OA
HETATM    3  C14 UNL     1     -68.516 -12.957  52.701  1.00  0.00     0.207 C
HETATM    4  C25 UNL     1     -68.655 -13.327  54.158  1.00  0.00     0.184 C
HETATM    5  C26 UNL     1     -69.645 -14.476  54.236  1.00  0.00     0.183 C
HETATM    6  C27 UNL     1     -70.724 -14.199  53.211  1.00  0.00     0.204 C
ENDROOT
BRANCH   1   7
HETATM    7  O2  UNL     1     -70.516 -15.342  51.098  1.00  0.00    -0.347 OA
BRANCH   7   8
HETATM    8  C12 UNL     1     -71.257 -15.094  49.965  1.00  0.00     0.265 C
BRANCH   8   9
HETATM    9  C11 UNL     1     -70.317 -14.752  48.895  1.00  0.00    -0.075 C
HETATM   10  C10 UNL     1     -69.550 -14.451  48.014  1.00  0.00    -0.062 C
BRANCH  10  11
HETATM   11  C9  UNL     1     -68.649 -14.073  46.952  1.00  0.00     0.051 A
HETATM   12  C1  UNL     1     -69.068 -13.953  45.644  1.00  0.00     0.085 A
HETATM   13  C2  UNL     1     -68.178 -13.586  44.630  1.00  0.00     0.045 A
HETATM   14  C3  UNL     1     -66.854 -13.333  44.901  1.00  0.00    -0.055 A
HETATM   15  C7  UNL     1     -66.448 -13.456  46.212  1.00  0.00     0.009 A
HETATM   16  C8  UNL     1     -67.321 -13.818  47.217  1.00  0.00     0.024 A
BRANCH  12  17
HETATM   17  O1  UNL     1     -70.400 -14.205  45.352  1.00  0.00    -0.359 OA
ATOM     18  H1  UNL     1     -70.972 -13.500  45.074  1.00  0.00     0.217 HD
ENDBRANCH  12  17
BRANCH  14  19
HETATM   19  C4  UNL     1     -65.891 -12.937  43.818  1.00  0.00     0.041 C
BRANCH  19  20
HETATM   20  C5  UNL     1     -64.457 -13.297  44.224  1.00  0.00     0.036 C
BRANCH  20  21
HETATM   21  C6  UNL     1     -63.595 -13.124  43.012  1.00  0.00     0.222 C
HETATM   22  F1  UNL     1     -64.238 -12.185  42.194  1.00  0.00    -0.255 F
ENDBRANCH  20  21
ENDBRANCH  19  20
ENDBRANCH  14  19
ENDBRANCH  10  11
ENDBRANCH   8   9
ENDBRANCH   7   8
ENDBRANCH   1   7
BRANCH   6  23
HETATM   23  O6  UNL     1     -71.756 -15.093  53.444  1.00  0.00    -0.388 OA
ATOM     24  H6  UNL     1     -71.771 -15.833  52.848  1.00  0.00     0.210 HD
ENDBRANCH   6  23
BRANCH   3  25
HETATM   25  C15 UNL     1     -67.172 -12.401  52.391  1.00  0.00     0.057 A
HETATM   26  C16 UNL     1     -66.451 -12.777  51.277  1.00  0.00     0.031 A
HETATM   27  C17 UNL     1     -65.195 -12.255  50.991  1.00  0.00     0.034 A
HETATM   28  C18 UNL     1     -64.665 -11.333  51.854  1.00  0.00     0.058 A
HETATM   29  N1  UNL     1     -65.394 -10.983  52.938  1.00  0.00    -0.300 N
HETATM   30  N2  UNL     1     -66.576 -11.492  53.183  1.00  0.00    -0.302 N
ATOM     31  H1  UNL     1     -65.009 -10.297  53.587  1.00  0.00     0.187 HD
ATOM     32  H2  UNL     1     -67.070 -11.183  54.020  1.00  0.00     0.186 HD
BRANCH  28  33
HETATM   33  C19 UNL     1     -63.339 -10.709  51.654  1.00  0.00    -0.008 A
HETATM   34  C20 UNL     1     -62.887  -9.802  52.570  1.00  0.00     0.014 A
HETATM   35  C21 UNL     1     -61.623  -9.239  52.331  1.00  0.00     0.001 A
HETATM   36  C22 UNL     1     -60.864  -9.562  51.248  1.00  0.00     0.000 A
HETATM   37  C23 UNL     1     -61.359 -10.480  50.352  1.00  0.00     0.001 A
HETATM   38  C24 UNL     1     -62.584 -11.052  50.545  1.00  0.00     0.014 A
ENDBRANCH  28  33
ENDBRANCH   3  25
BRANCH   5  39
HETATM   39  O5  UNL     1     -70.259 -14.428  55.488  1.00  0.00    -0.390 OA
ATOM     40  H5  UNL     1     -69.873 -15.108  56.029  1.00  0.00     0.210 HD
ENDBRANCH   5  39
BRANCH   4  41
HETATM   41  O4  UNL     1     -67.449 -13.690  54.738  1.00  0.00    -0.390 OA
ATOM     42  H4  UNL     1     -66.978 -12.950  55.103  1.00  0.00     0.210 HD
ENDBRANCH   4  41
TORSDOF 13
ENDMDL