MODEL 4
REMARK VINA RESULT: -7.221164798      3.418      7.634
REMARK  9 active torsions:
REMARK  status: ('A' for Active; 'I' for Inactive)
REMARK    1  A    between atoms: C2_2  and  N1_3
REMARK    2  A    between atoms: C4_5  and  N2_6
REMARK    3  A    between atoms: N2_6  and  N3_8
REMARK    4  A    between atoms: C5_10  and  N4_11
REMARK    5  A    between atoms: C5_10  and  C16_25
REMARK    6  A    between atoms: N4_11  and  C6_13
REMARK    7  A    between atoms: C13_20  and  O1_21
REMARK       I    between atoms: N5_29  and  C20_30
REMARK    8  A    between atoms: C20_30  and  C21_32
REMARK    9  A    between atoms: N6_37  and  O3_38
ROOT
HETATM    1  N3  UNL     1     -99.089 -15.295  48.080  1.00  0.00    -0.286 N
ATOM      2  H3  UNL     1     -98.672 -14.392  47.857  1.00  0.00     0.188 HD
HETATM    3  C5  UNL     1     -99.381 -15.492  49.301  1.00  0.00     0.115 C
ENDROOT
BRANCH   3   4
HETATM    4  N4  UNL     1     -99.139 -14.506  50.307  1.00  0.00    -0.372 N
ATOM      5  H4  UNL     1     -99.909 -14.279  50.936  1.00  0.00     0.161 HD
BRANCH   4   6
HETATM    6  C6  UNL     1     -97.918 -13.820  50.500  1.00  0.00     0.091 C
HETATM    7  C7  UNL     1     -97.689 -13.529  51.947  1.00  0.00     0.012 C
HETATM    8  C8  UNL     1     -97.213 -14.720  52.739  1.00  0.00     0.011 C
HETATM    9  C15 UNL     1     -96.650 -12.414  52.076  1.00  0.00     0.044 C
HETATM   10  C9  UNL     1     -95.926 -15.200  52.147  1.00  0.00    -0.011 C
HETATM   11  C10 UNL     1     -96.153 -15.603  50.713  1.00  0.00     0.011 C
HETATM   12  C14 UNL     1     -94.890 -14.088  52.214  1.00  0.00     0.042 C
HETATM   13  C11 UNL     1     -96.687 -14.447  49.926  1.00  0.00     0.012 C
HETATM   14  C12 UNL     1     -95.604 -13.355  49.993  1.00  0.00     0.044 C
HETATM   15  C13 UNL     1     -95.399 -12.887  51.407  1.00  0.00     0.059 C
BRANCH  15  16
HETATM   16  O1  UNL     1     -94.416 -11.912  51.384  1.00  0.00    -0.390 OA
ATOM     17  H1  UNL     1     -93.662 -12.279  50.940  1.00  0.00     0.210 HD
ENDBRANCH  15  16
ENDBRANCH   4   6
ENDBRANCH   3   4
BRANCH   3  18
HETATM   18  C16 UNL     1     -99.977 -16.795  49.672  1.00  0.00     0.156 C
HETATM   19  C17 UNL     1     -99.073 -17.419  50.696  1.00  0.00     0.035 C
HETATM   20  C18 UNL     1     -99.684 -17.027  52.008  1.00  0.00     0.022 C
HETATM   21  C19 UNL     1    -101.154 -16.967  51.705  1.00  0.00     0.127 C
HETATM   22  N5  UNL     1    -101.273 -16.635  50.301  1.00  0.00    -0.340 N
HETATM   23  C20 UNL     1    -102.476 -16.230  49.676  1.00  0.00     0.224 C
HETATM   24  O2  UNL     1    -103.514 -16.126  50.419  1.00  0.00    -0.273 OA
BRANCH  23  25
HETATM   25  C21 UNL     1    -102.635 -15.918  48.243  1.00  0.00     0.078 C
HETATM   26  C22 UNL     1    -104.099 -15.630  47.953  1.00  0.00     0.014 C
HETATM   27  C23 UNL     1    -104.779 -16.956  47.810  1.00  0.00     0.001 C
HETATM   28  C24 UNL     1    -103.689 -17.954  47.493  1.00  0.00     0.001 C
HETATM   29  C25 UNL     1    -102.406 -17.145  47.372  1.00  0.00     0.014 C
ENDBRANCH  23  25
ENDBRANCH   3  18
BRANCH   1  30
HETATM   30  N2  UNL     1     -99.268 -16.149  47.035  1.00  0.00    -0.281 N
ATOM     31  H2  UNL     1     -99.611 -17.097  47.192  1.00  0.00     0.188 HD
BRANCH  30  32
HETATM   32  C4  UNL     1     -98.966 -15.691  45.706  1.00  0.00     0.164 A
HETATM   33  C3  UNL     1     -97.739 -15.452  45.134  1.00  0.00     0.143 A
HETATM   34  N1  UNL     1     -97.891 -15.030  43.865  1.00  0.00    -0.348 N
HETATM   35  C26 UNL     1     -99.214 -15.005  43.641  1.00  0.00     0.218 A
HETATM   36  N6  UNL     1     -99.877 -15.409  44.767  1.00  0.00    -0.201 N
BRANCH  34  37
HETATM   37  C2  UNL     1     -96.793 -14.697  42.968  1.00  0.00     0.124 C
HETATM   38  C1  UNL     1     -95.549 -15.466  43.282  1.00  0.00     0.027 C
ENDBRANCH  34  37
BRANCH  36  39
HETATM   39  O3  UNL     1    -101.238 -15.476  44.827  1.00  0.00    -0.280 OA
ATOM     40  H3  UNL     1    -101.845 -15.978  44.296  1.00  0.00     0.245 HD
ENDBRANCH  36  39
ENDBRANCH  30  32
ENDBRANCH   1  30
TORSDOF 9
ENDMDL