MODEL 5
REMARK VINA RESULT: -5.970320420      1.766      2.654
REMARK  9 active torsions:
REMARK  status: ('A' for Active; 'I' for Inactive)
REMARK    1  A    between atoms: C12_15  and  C13_16
REMARK    2  A    between atoms: C13_16  and  C14_18
REMARK    3  A    between atoms: C14_18  and  N1_19
REMARK    4  A    between atoms: N1_19  and  N2_20
REMARK    5  A    between atoms: C15_26  and  C16_27
REMARK    6  A    between atoms: C16_27  and  C17_28
REMARK    7  A    between atoms: C17_28  and  C18_29
REMARK    8  A    between atoms: C18_29  and  C19_30
REMARK    9  A    between atoms: C19_30  and  N4_31
ROOT
HETATM    1  C1  UNL     1    -104.417 -15.102  47.277  1.00  0.00     0.032 C
HETATM    2  C2  UNL     1    -103.211 -15.776  47.953  1.00  0.00     0.080 C
HETATM    3  C3  UNL     1    -102.779 -16.873  46.992  1.00  0.00     0.024 C
HETATM    4  C4  UNL     1    -102.510 -16.203  45.643  1.00  0.00     0.002 C
HETATM    5  C5  UNL     1    -101.074 -15.717  45.566  1.00  0.00     0.001 C
HETATM    6  C6  UNL     1    -100.182 -16.718  44.891  1.00  0.00     0.008 C
HETATM    7  C7  UNL     1     -99.137 -15.968  44.096  1.00  0.00     0.091 C
HETATM    8  C8  UNL     1     -98.515 -14.965  45.005  1.00  0.00     0.185 C
HETATM    9  O1  UNL     1     -98.497 -13.808  44.675  1.00  0.00    -0.286 OA
HETATM   10  S1  UNL     1     -97.814 -15.501  46.555  1.00  0.00    -0.092 SA
HETATM   11  C9  UNL     1     -96.388 -14.453  46.963  1.00  0.00     0.092 C
HETATM   12  C10 UNL     1     -96.629 -13.591  48.164  1.00  0.00     0.084 C
HETATM   13  S2  UNL     1     -98.385 -13.614  48.666  1.00  0.00    -0.166 SA
HETATM   14  C11 UNL     1     -98.586 -14.978  49.835  1.00  0.00     0.115 C
HETATM   15  C12 UNL     1     -99.778 -14.736  50.767  1.00  0.00     0.271 C
HETATM   16  N3  UNL     1    -101.017 -15.073  50.139  1.00  0.00    -0.050 N
ATOM     17  H31 UNL     1    -100.882 -15.337  49.163  1.00  0.00     0.279 HD
ATOM     18  H32 UNL     1    -101.602 -14.250  50.000  1.00  0.00     0.279 HD
HETATM   19  C15 UNL     1    -101.739 -16.137  50.898  1.00  0.00     0.278 C
HETATM   20  C20 UNL     1    -103.149 -16.021  50.509  1.00  0.00     0.248 C
HETATM   21  O3  UNL     1    -103.963 -15.668  51.441  1.00  0.00    -0.271 OA
HETATM   22  N5  UNL     1    -103.671 -16.265  49.205  1.00  0.00    -0.355 N
ATOM     23  H5  UNL     1    -104.488 -16.875  49.165  1.00  0.00     0.162 HD
ENDROOT
BRANCH  19  24
HETATM   24  C16 UNL     1    -101.038 -17.396  50.657  1.00  0.00     0.043 C
BRANCH  24  25
HETATM   25  C17 UNL     1    -100.289 -18.110  51.683  1.00  0.00     0.004 C
BRANCH  25  26
HETATM   26  C18 UNL     1    -100.717 -17.943  53.118  1.00  0.00     0.027 C
BRANCH  26  27
HETATM   27  C19 UNL     1     -99.908 -16.801  53.770  1.00  0.00     0.229 C
BRANCH  27  28
HETATM   28  N4  UNL     1     -98.570 -16.766  53.247  1.00  0.00    -0.079 N
ATOM     29  H43 UNL     1     -98.432 -17.461  52.512  1.00  0.00     0.274 HD
ATOM     30  H42 UNL     1     -98.401 -15.925  52.694  1.00  0.00     0.274 HD
ATOM     31  H41 UNL     1     -97.888 -16.868  53.999  1.00  0.00     0.274 HD
ENDBRANCH  27  28
ENDBRANCH  26  27
ENDBRANCH  25  26
ENDBRANCH  24  25
ENDBRANCH  19  24
BRANCH  15  32
HETATM   32  C13 UNL     1     -99.769 -13.319  51.245  1.00  0.00     0.211 C
HETATM   33  O2  UNL     1    -100.612 -12.499  50.848  1.00  0.00    -0.288 OA
BRANCH  32  34
HETATM   34  C14 UNL     1     -98.743 -12.912  52.196  1.00  0.00     0.260 C
BRANCH  34  35
HETATM   35  N1  UNL     1     -98.666 -13.319  53.372  1.00  0.00    -0.342 NA
BRANCH  35  36
HETATM   36  N2  UNL     1     -98.642 -13.490  54.602  1.00  0.00    -0.281 N
ATOM     37  H22 UNL     1     -99.484 -12.922  54.698  1.00  0.00     0.191 HD
ATOM     38  H21 UNL     1     -98.457 -13.740  55.573  1.00  0.00     0.191 HD
ENDBRANCH  35  36
ENDBRANCH  34  35
ENDBRANCH  32  34
ENDBRANCH  15  32
TORSDOF 9
ENDMDL