MODEL 5
REMARK VINA RESULT: -7.000709818      3.049      6.441
REMARK  7 active torsions:
REMARK  status: ('A' for Active; 'I' for Inactive)
REMARK    1  A    between atoms: C9_9  and  O1_10
REMARK    2  A    between atoms: C14_17  and  C15_18
REMARK    3  A    between atoms: C15_18  and  S1_19
REMARK    4  A    between atoms: S1_19  and  C16_20
REMARK    5  A    between atoms: C16_20  and  C17_21
REMARK    6  A    between atoms: C17_21  and  N1_22
REMARK    7  A    between atoms: C17_21  and  C23_32
REMARK       I    between atoms: N1_22  and  C18_24
REMARK       I    between atoms: C18_24  and  N2_26
ROOT
HETATM    1  C1  UNL     1     -97.029 -16.073  46.143  1.00  0.00     0.022 C
HETATM    2  C2  UNL     1     -96.867 -14.966  47.164  1.00  0.00     0.003 C
HETATM    3  C3  UNL     1     -97.068 -13.670  46.313  1.00  0.00     0.022 C
HETATM    4  C4  UNL     1     -95.443 -14.969  47.554  1.00  0.00    -0.012 C
HETATM    5  C5  UNL     1     -94.943 -14.632  48.876  1.00  0.00    -0.080 C
HETATM    6  C6  UNL     1     -95.549 -13.534  49.662  1.00  0.00     0.041 C
HETATM    7  C7  UNL     1     -96.546 -13.966  50.705  1.00  0.00     0.022 C
HETATM    8  C8  UNL     1     -96.108 -15.126  51.529  1.00  0.00     0.045 C
HETATM    9  C9  UNL     1     -95.837 -16.265  50.584  1.00  0.00     0.062 C
HETATM   10  C10 UNL     1     -94.678 -15.889  49.723  1.00  0.00     0.071 C
HETATM   11  C11 UNL     1     -96.981 -16.649  49.714  1.00  0.00     0.048 C
HETATM   12  C12 UNL     1     -97.959 -15.611  49.387  1.00  0.00     0.054 A
HETATM   13  C13 UNL     1     -97.829 -14.293  50.029  1.00  0.00     0.134 A
HETATM   14  O2  UNL     1     -97.835 -13.677  48.807  1.00  0.00    -0.372 OA
HETATM   15  C14 UNL     1     -97.929 -14.931  48.106  1.00  0.00     0.086 A
ENDROOT
BRANCH  15  16
HETATM   16  C15 UNL     1     -99.339 -14.860  47.467  1.00  0.00     0.113 C
BRANCH  16  17
HETATM   17  S1  UNL     1    -100.126 -16.385  47.205  1.00  0.00    -0.164 SA
BRANCH  17  18
HETATM   18  C16 UNL     1    -101.821 -16.691  47.283  1.00  0.00     0.110 C
BRANCH  18  19
HETATM   19  C17 UNL     1    -102.714 -16.116  48.272  1.00  0.00     0.196 C
BRANCH  19  20
HETATM   20  N1  UNL     1    -102.096 -16.354  49.618  1.00  0.00    -0.328 N
HETATM   21  C18 UNL     1    -101.678 -15.260  50.363  1.00  0.00     0.319 C
HETATM   22  O3  UNL     1    -101.822 -14.075  49.930  1.00  0.00    -0.247 OA
HETATM   23  N2  UNL     1    -101.078 -15.453  51.628  1.00  0.00    -0.330 N
HETATM   24  C19 UNL     1    -100.644 -14.320  52.400  1.00  0.00     0.153 C
HETATM   25  C22 UNL     1    -100.897 -16.787  52.141  1.00  0.00     0.153 C
HETATM   26  C20 UNL     1    -100.812 -14.660  53.862  1.00  0.00     0.187 C
HETATM   27  O4  UNL     1    -100.207 -15.831  54.244  1.00  0.00    -0.388 OA
HETATM   28  C21 UNL     1     -99.834 -16.678  53.232  1.00  0.00     0.187 C
ATOM     29  H1  UNL     1    -101.985 -17.301  49.979  1.00  0.00     0.165 HD
ENDBRANCH  19  20
BRANCH  19  30
HETATM   30  C23 UNL     1    -104.064 -16.734  48.336  1.00  0.00     0.197 C
HETATM   31  O5  UNL     1    -104.845 -16.214  49.237  1.00  0.00    -0.646 OA
HETATM   32  O6  UNL     1    -104.522 -17.742  47.582  1.00  0.00    -0.646 OA
ENDBRANCH  19  30
ENDBRANCH  18  19
ENDBRANCH  17  18
ENDBRANCH  16  17
ENDBRANCH  15  16
BRANCH   9  33
HETATM   33  O1  UNL     1     -95.398 -17.342  51.384  1.00  0.00    -0.390 OA
ATOM     34  H1  UNL     1     -95.940 -18.086  51.145  1.00  0.00     0.210 HD
ENDBRANCH   9  33
TORSDOF 7
ENDMDL