MODEL 3
REMARK VINA RESULT: -8.320219044      3.061      5.279
REMARK  7 active torsions:
REMARK  status: ('A' for Active; 'I' for Inactive)
REMARK    1  A    between atoms: C2_2  and  C3_3
REMARK    2  A    between atoms: C3_3  and  N1_4
REMARK    3  A    between atoms: C5_6  and  C6_7
REMARK    4  A    between atoms: C6_7  and  C7_8
REMARK    5  A    between atoms: C12_13  and  N2_14
REMARK    6  A    between atoms: N2_14  and  C13_16
REMARK       I    between atoms: N4_25  and  C19_27
REMARK    7  A    between atoms: N6_29  and  C20_31
ROOT
HETATM    1  N1  UNL     1     -96.446 -13.580  50.480  1.00  0.00    -0.320 N
HETATM    2  C4  UNL     1     -97.489 -14.427  50.741  1.00  0.00     0.119 A
HETATM    3  C5  UNL     1     -97.778 -15.490  49.943  1.00  0.00     0.027 A
HETATM    4  N3  UNL     1     -96.979 -15.671  48.871  1.00  0.00    -0.340 N
ATOM      5  H3  UNL     1     -97.177 -16.462  48.258  1.00  0.00     0.167 HD
HETATM    6  C18 UNL     1     -95.931 -14.873  48.552  1.00  0.00     0.177 A
HETATM    7  N4  UNL     1     -95.224 -15.127  47.512  1.00  0.00    -0.312 N
ATOM      8  H4  UNL     1     -95.493 -15.940  46.958  1.00  0.00     0.170 HD
HETATM    9  C19 UNL     1     -94.122 -14.393  47.070  1.00  0.00     0.190 C
HETATM   10  N5  UNL     1     -92.834 -14.719  47.558  1.00  0.00    -0.063 NA
HETATM   11  N6  UNL     1     -94.277 -13.463  46.240  1.00  0.00    -0.360 N
ATOM     12  H6  UNL     1     -95.249 -13.332  45.958  1.00  0.00     0.162 HD
HETATM   13  C26 UNL     1     -95.688 -13.814  49.396  1.00  0.00     0.291 A
HETATM   14  O2  UNL     1     -94.729 -13.041  49.146  1.00  0.00    -0.264 OA
ENDROOT
BRANCH   3  15
HETATM   15  C6  UNL     1     -98.858 -16.455  50.182  1.00  0.00     0.068 C
BRANCH  15  16
HETATM   16  C7  UNL     1    -100.074 -16.367  49.340  1.00  0.00    -0.031 C
HETATM   17  C8  UNL     1    -101.306 -17.034  49.834  1.00  0.00     0.010 C
HETATM   18  C9  UNL     1    -102.607 -16.370  49.577  1.00  0.00     0.001 C
HETATM   19  C10 UNL     1    -102.872 -15.892  48.200  1.00  0.00     0.002 C
HETATM   20  C11 UNL     1    -101.930 -16.372  47.150  1.00  0.00     0.031 C
HETATM   21  C12 UNL     1    -100.502 -15.909  47.331  1.00  0.00     0.027 C
HETATM   22  C16 UNL     1    -100.319 -15.095  48.605  1.00  0.00     0.040 C
HETATM   23  C17 UNL     1     -99.745 -17.018  47.971  1.00  0.00     0.040 C
BRANCH  21  24
HETATM   24  N2  UNL     1     -99.940 -15.215  46.221  1.00  0.00    -0.404 N
ATOM     25  H2  UNL     1     -99.307 -14.426  46.357  1.00  0.00     0.154 HD
BRANCH  24  26
HETATM   26  C13 UNL     1    -100.288 -15.656  44.925  1.00  0.00     0.124 C
HETATM   27  C14 UNL     1     -99.451 -15.277  43.751  1.00  0.00     0.194 C
HETATM   28  O1  UNL     1    -100.671 -15.143  43.022  1.00  0.00    -0.387 OA
HETATM   29  C15 UNL     1    -101.264 -14.714  44.235  1.00  0.00     0.194 C
ENDBRANCH  24  26
ENDBRANCH  21  24
ENDBRANCH  15  16
ENDBRANCH   3  15
BRANCH   1  30
HETATM   30  C3  UNL     1     -96.154 -12.476  51.359  1.00  0.00     0.131 C
BRANCH  30  31
HETATM   31  C2  UNL     1     -95.664 -12.845  52.713  1.00  0.00     0.016 C
HETATM   32  C1  UNL     1     -96.625 -12.516  53.803  1.00  0.00     0.006 C
ENDBRANCH  30  31
ENDBRANCH   1  30
BRANCH  11  33
HETATM   33  C20 UNL     1     -93.393 -12.565  45.618  1.00  0.00     0.084 C
HETATM   34  C21 UNL     1     -93.546 -12.737  44.105  1.00  0.00     0.025 C
HETATM   35  C22 UNL     1     -92.216 -12.322  43.511  1.00  0.00     0.002 C
HETATM   36  C23 UNL     1     -91.604 -11.207  44.334  1.00  0.00     0.000 C
HETATM   37  C24 UNL     1     -92.656 -10.329  44.965  1.00  0.00     0.002 C
HETATM   38  C25 UNL     1     -93.546 -11.114  45.921  1.00  0.00     0.025 C
ENDBRANCH  11  33
TORSDOF 7
ENDMDL