MODEL 4
REMARK VINA RESULT: -6.895879212      3.060      7.641
REMARK  11 active torsions:
REMARK  status: ('A' for Active; 'I' for Inactive)
REMARK    1  A    between atoms: C2_2  and  C5_5
REMARK    2  A    between atoms: C5_5  and  N1_6
REMARK    3  A    between atoms: C8_10  and  C9_11
REMARK    4  A    between atoms: C9_11  and  O2_12
REMARK    5  A    between atoms: C11_15  and  O3_16
REMARK    6  A    between atoms: C13_19  and  C14_20
REMARK    7  A    between atoms: C14_20  and  O4_21
REMARK    8  A    between atoms: C15_23  and  C16_24
REMARK    9  A    between atoms: C16_24  and  C17_25
REMARK   10  A    between atoms: N2_30  and  C22_31
REMARK   11  A    between atoms: C22_31  and  C23_32
ROOT
HETATM    1  N1  UNL     1     -99.235 -15.189  49.673  1.00  0.00     0.107 N
HETATM    2  C6  UNL     1     -99.376 -16.580  49.867  1.00  0.00     0.301 C
HETATM    3  C7  UNL     1    -100.293 -16.925  48.717  1.00  0.00     0.174 C
HETATM    4  O1  UNL     1    -101.412 -17.280  48.498  1.00  0.00    -0.295 OA
HETATM    5  C8  UNL     1     -99.071 -16.593  47.919  1.00  0.00     0.084 C
HETATM    6  C10 UNL     1     -98.309 -17.255  49.001  1.00  0.00     0.076 C
HETATM    7  C11 UNL     1     -96.911 -16.773  49.249  1.00  0.00     0.134 C
HETATM    8  C12 UNL     1     -96.798 -15.299  49.270  1.00  0.00     0.052 C
HETATM    9  C13 UNL     1     -95.428 -14.768  48.910  1.00  0.00    -0.047 C
HETATM   10  C15 UNL     1     -95.563 -13.695  48.138  1.00  0.00    -0.072 C
HETATM   11  C26 UNL     1     -97.056 -13.434  48.011  1.00  0.00     0.042 C
HETATM   12  C27 UNL     1     -97.510 -14.829  47.978  1.00  0.00     0.035 C
HETATM   13  C28 UNL     1     -98.949 -15.114  48.227  1.00  0.00     0.247 C
ENDROOT
BRANCH  10  14
HETATM   14  C16 UNL     1     -94.521 -12.859  47.553  1.00  0.00     0.075 C
BRANCH  14  15
HETATM   15  C17 UNL     1     -93.660 -13.441  46.479  1.00  0.00     0.160 C
HETATM   16  C18 UNL     1     -93.350 -12.545  45.344  1.00  0.00     0.049 C
HETATM   17  C19 UNL     1     -92.430 -14.121  46.960  1.00  0.00     0.043 C
HETATM   18  C20 UNL     1     -92.058 -14.951  45.729  1.00  0.00     0.033 C
HETATM   19  C21 UNL     1     -93.390 -15.303  45.164  1.00  0.00     0.273 C
HETATM   20  N2  UNL     1     -94.424 -14.580  45.926  1.00  0.00     0.098 N
BRANCH  20  21
HETATM   21  C22 UNL     1     -95.432 -14.072  45.001  1.00  0.00     0.278 C
BRANCH  21  22
HETATM   22  C23 UNL     1     -96.324 -15.137  44.466  1.00  0.00     0.014 A
HETATM   23  C24 UNL     1     -97.611 -14.921  43.793  1.00  0.00     0.007 A
HETATM   24  C25 UNL     1     -96.400 -15.343  42.977  1.00  0.00     0.007 A
ENDBRANCH  21  22
ENDBRANCH  20  21
ENDBRANCH  14  15
ENDBRANCH  10  14
BRANCH   9  25
HETATM   25  C14 UNL     1     -94.237 -15.434  49.408  1.00  0.00     0.199 C
BRANCH  25  26
HETATM   26  O4  UNL     1     -93.947 -15.360  50.731  1.00  0.00    -0.397 OA
ATOM     27  H4  UNL     1     -93.976 -16.153  51.255  1.00  0.00     0.209 HD
ENDBRANCH  25  26
ENDBRANCH   9  25
BRANCH   7  28
HETATM   28  O3  UNL     1     -96.561 -17.242  50.537  1.00  0.00    -0.394 OA
ATOM     29  H3  UNL     1     -95.730 -17.691  50.434  1.00  0.00     0.210 HD
ENDBRANCH   7  28
BRANCH   1  30
HETATM   30  C5  UNL     1    -100.437 -14.471  49.931  1.00  0.00     0.282 C
BRANCH  30  31
HETATM   31  C2  UNL     1    -100.406 -13.416  50.966  1.00  0.00    -0.025 C
HETATM   32  C1  UNL     1     -99.049 -13.292  51.645  1.00  0.00     0.016 C
HETATM   33  C3  UNL     1    -101.471 -13.398  51.993  1.00  0.00     0.016 C
HETATM   34  C4  UNL     1    -100.553 -12.078  50.195  1.00  0.00     0.016 C
ENDBRANCH  30  31
ENDBRANCH   1  30
BRANCH   5  35
HETATM   35  C9  UNL     1     -99.013 -17.029  46.534  1.00  0.00     0.184 C
BRANCH  35  36
HETATM   36  O2  UNL     1    -100.052 -16.591  45.747  1.00  0.00    -0.400 OA
ATOM     37  H2  UNL     1     -99.990 -15.684  45.472  1.00  0.00     0.209 HD
ENDBRANCH  35  36
ENDBRANCH   5  35
TORSDOF 11
ENDMDL