MODEL 3
REMARK VINA RESULT: -8.114223247      2.293      7.488
REMARK  7 active torsions:
REMARK  status: ('A' for Active; 'I' for Inactive)
REMARK    1  A    between atoms: C4_4  and  C5_5
REMARK    2  A    between atoms: C5_5  and  N1_6
REMARK    3  A    between atoms: C14_18  and  C15_19
REMARK    4  A    between atoms: C15_19  and  C16_20
REMARK    5  A    between atoms: C15_19  and  C23_27
REMARK    6  A    between atoms: C16_20  and  C17_21
REMARK    7  A    between atoms: S1_30  and  N4_31
ROOT
HETATM    1  N1  UNL     1    -102.782 -15.182  50.479  1.00  0.00    -0.272 N
HETATM    2  C6  UNL     1    -102.113 -15.136  51.697  1.00  0.00     0.162 C
HETATM    3  C7  UNL     1    -100.619 -15.089  51.253  1.00  0.00     0.042 C
HETATM    4  C8  UNL     1    -100.103 -13.677  51.286  1.00  0.00    -0.009 C
HETATM    5  C9  UNL     1    -101.126 -12.643  50.892  1.00  0.00     0.010 C
HETATM    6  C10 UNL     1     -98.886 -13.484  50.441  1.00  0.00     0.024 C
HETATM    7  C11 UNL     1     -98.937 -14.082  49.067  1.00  0.00     0.105 C
HETATM    8  C12 UNL     1     -99.611 -15.397  48.947  1.00  0.00     0.126 C
HETATM    9  C13 UNL     1     -98.636 -16.494  49.102  1.00  0.00     0.226 C
HETATM   10  O1  UNL     1     -98.699 -17.257  50.140  1.00  0.00    -0.273 OA
HETATM   11  N2  UNL     1     -97.642 -16.717  48.131  1.00  0.00    -0.343 N
ATOM     12  H2  UNL     1     -97.467 -17.664  47.793  1.00  0.00     0.163 HD
HETATM   13  C14 UNL     1     -96.848 -15.589  47.597  1.00  0.00     0.198 C
HETATM   14  S1  UNL     1     -97.258 -14.100  48.462  1.00  0.00     0.046 S
HETATM   15  O3  UNL     1     -97.011 -12.849  47.687  1.00  0.00    -0.248 OA
HETATM   16  C24 UNL     1    -100.745 -15.651  49.889  1.00  0.00     0.172 C
HETATM   17  O4  UNL     1    -101.956 -15.187  49.440  1.00  0.00    -0.272 OA
ENDROOT
BRANCH  13  18
HETATM   18  C15 UNL     1     -96.858 -15.541  46.130  1.00  0.00     0.111 C
BRANCH  18  19
HETATM   19  C16 UNL     1     -97.988 -14.970  45.384  1.00  0.00     0.021 C
BRANCH  19  20
HETATM   20  C17 UNL     1     -99.212 -15.708  44.993  1.00  0.00    -0.014 C
HETATM   21  C18 UNL     1     -99.577 -15.220  43.597  1.00  0.00     0.005 C
HETATM   22  C19 UNL     1    -100.964 -15.339  43.167  1.00  0.00     0.000 C
HETATM   23  C20 UNL     1    -101.970 -14.965  44.247  1.00  0.00     0.000 C
HETATM   24  C21 UNL     1    -101.716 -15.958  45.355  1.00  0.00     0.000 C
HETATM   25  C22 UNL     1    -100.338 -15.628  45.938  1.00  0.00     0.005 C
ENDBRANCH  19  20
ENDBRANCH  18  19
BRANCH  18  26
HETATM   26  C23 UNL     1     -95.624 -14.953  45.516  1.00  0.00     0.238 C
HETATM   27  N3  UNL     1     -94.437 -14.693  46.211  1.00  0.00    -0.062 NA
HETATM   28  O2  UNL     1     -95.669 -14.678  44.294  1.00  0.00    -0.276 OA
ENDBRANCH  18  26
ENDBRANCH  13  18
BRANCH  14  29
HETATM   29  N4  UNL     1     -96.271 -13.930  49.701  1.00  0.00    -0.358 N
ATOM     30  H42 UNL     1     -95.525 -14.581  49.947  1.00  0.00     0.165 HD
ATOM     31  H41 UNL     1     -96.513 -13.070  50.194  1.00  0.00     0.165 HD
ENDBRANCH  14  29
BRANCH   1  32
HETATM   32  C5  UNL     1    -103.958 -15.917  50.356  1.00  0.00     0.095 C
BRANCH  32  33
HETATM   33  C4  UNL     1    -104.209 -16.809  49.214  1.00  0.00     0.030 A
HETATM   34  C2  UNL     1    -104.520 -16.536  47.831  1.00  0.00    -0.009 A
HETATM   35  C1  UNL     1    -104.762 -15.250  47.136  1.00  0.00     0.011 C
HETATM   36  C3  UNL     1    -105.652 -16.955  48.738  1.00  0.00     0.015 A
ENDBRANCH  32  33
ENDBRANCH   1  32
TORSDOF 7
ENDMDL