MODEL 2
REMARK VINA RESULT: -6.965059805      3.239      6.046
REMARK  6 active torsions:
REMARK  status: ('A' for Active; 'I' for Inactive)
REMARK    1  A    between atoms: C2_2  and  C3_3
REMARK    2  A    between atoms: C3_3  and  N1_4
REMARK    3  A    between atoms: C6_11  and  C7_12
REMARK    4  A    between atoms: C16_26  and  C17_27
REMARK    5  A    between atoms: C17_27  and  C18_28
REMARK    6  A    between atoms: C21_33  and  O5_34
ROOT
HETATM    1  N1  UNL     1     -96.974 -13.479  52.935  1.00  0.00    -0.363 N
ATOM      2  H1  UNL     1     -97.660 -12.754  53.144  1.00  0.00     0.165 HD
HETATM    3  C4  UNL     1     -97.117 -13.957  51.785  1.00  0.00     0.132 C
HETATM    4  C5  UNL     1     -96.230 -14.998  51.327  1.00  0.00     0.271 C
HETATM    5  O1  UNL     1     -95.976 -15.859  52.223  1.00  0.00    -0.266 OA
HETATM    6  N2  UNL     1     -95.602 -15.207  50.040  1.00  0.00    -0.342 N
ATOM      7  H2  UNL     1     -95.090 -16.077  49.892  1.00  0.00     0.163 HD
HETATM    8  C6  UNL     1     -95.657 -14.244  48.935  1.00  0.00     0.187 C
HETATM    9  C8  UNL     1     -97.016 -13.690  48.755  1.00  0.00     0.248 C
HETATM   10  O2  UNL     1     -97.171 -13.179  47.575  1.00  0.00    -0.271 OA
HETATM   11  N3  UNL     1     -98.181 -13.597  49.588  1.00  0.00    -0.310 N
HETATM   12  C9  UNL     1     -99.321 -13.797  48.704  1.00  0.00     0.132 C
HETATM   13  C10 UNL     1     -99.256 -15.199  48.177  1.00  0.00     0.023 C
HETATM   14  C11 UNL     1    -100.369 -15.573  47.255  1.00  0.00     0.039 C
HETATM   15  C12 UNL     1    -101.612 -16.097  47.989  1.00  0.00     0.063 C
HETATM   16  C13 UNL     1    -101.289 -17.512  48.413  1.00  0.00     0.046 C
HETATM   17  C14 UNL     1    -102.690 -16.220  46.935  1.00  0.00     0.046 C
HETATM   18  O3  UNL     1    -101.942 -15.356  49.080  1.00  0.00    -0.309 OA
HETATM   19  C15 UNL     1    -102.237 -15.484  50.367  1.00  0.00     0.282 C
HETATM   20  O4  UNL     1    -103.348 -15.633  50.929  1.00  0.00    -0.263 OA
HETATM   21  C16 UNL     1    -101.063 -15.450  51.346  1.00  0.00     0.184 C
HETATM   22  N4  UNL     1    -100.687 -14.081  51.541  1.00  0.00    -0.355 N
ATOM     23  H4  UNL     1    -101.500 -13.467  51.599  1.00  0.00     0.162 HD
HETATM   24  C21 UNL     1     -99.508 -13.388  51.671  1.00  0.00     0.166 C
HETATM   25  C22 UNL     1     -98.232 -13.341  50.977  1.00  0.00     0.120 C
ENDROOT
BRANCH   1  26
HETATM   26  C3  UNL     1     -96.094 -13.707  53.998  1.00  0.00     0.061 C
BRANCH  26  27
HETATM   27  C2  UNL     1     -96.335 -12.818  55.190  1.00  0.00     0.040 C
HETATM   28  C1  UNL     1     -97.757 -12.938  55.698  1.00  0.00     0.010 C
ENDBRANCH  26  27
ENDBRANCH   1  26
BRANCH  24  29
HETATM   29  O5  UNL     1     -99.557 -12.550  52.692  1.00  0.00    -0.345 OA
ATOM     30  H5  UNL     1     -98.973 -12.825  53.390  1.00  0.00     0.219 HD
ENDBRANCH  24  29
BRANCH   8  31
HETATM   31  C7  UNL     1     -95.188 -14.991  47.715  1.00  0.00     0.120 C
HETATM   32  S1  UNL     1     -93.664 -14.351  47.007  1.00  0.00    -0.095 SA
ENDBRANCH   8  31
BRANCH  21  33
HETATM   33  C17 UNL     1    -101.542 -16.026  52.677  1.00  0.00     0.039 C
BRANCH  33  34
HETATM   34  C18 UNL     1    -100.673 -17.124  53.176  1.00  0.00    -0.020 C
HETATM   35  C19 UNL     1     -99.379 -16.598  53.776  1.00  0.00     0.009 C
HETATM   36  C20 UNL     1    -100.305 -18.108  52.083  1.00  0.00     0.009 C
ENDBRANCH  33  34
ENDBRANCH  21  33
TORSDOF 6
ENDMDL