MODEL 1
REMARK VINA RESULT: -8.528726312      0.000      0.000
REMARK  9 active torsions:
REMARK  status: ('A' for Active; 'I' for Inactive)
REMARK    1  A    between atoms: O1_1  and  C1_3
REMARK    2  A    between atoms: C4_6  and  N1_7
REMARK    3  A    between atoms: N1_7  and  C5_9
REMARK    4  A    between atoms: C6_12  and  N3_13
REMARK    5  A    between atoms: N3_13  and  C7_15
REMARK    6  A    between atoms: N4_18  and  C10_19
REMARK    7  A    between atoms: C10_19  and  C11_20
REMARK    8  A    between atoms: C11_20  and  N5_21
REMARK    9  A    between atoms: C21_34  and  C22_35
ROOT
HETATM    1  C5  UNL     1    -100.188 -16.286  47.518  1.00  0.00     0.125 A
HETATM    2  N2  UNL     1     -99.618 -15.960  48.683  1.00  0.00    -0.176 N
ATOM      3  H2  UNL     1    -100.036 -16.326  49.539  1.00  0.00     0.186 HD
HETATM    4  C6  UNL     1     -98.508 -15.166  48.797  1.00  0.00     0.679 A
HETATM    5  N6  UNL     1     -97.996 -14.711  47.646  1.00  0.00    -0.201 N
ATOM      6  H6  UNL     1     -97.169 -14.115  47.683  1.00  0.00     0.183 HD
HETATM    7  C20 UNL     1     -98.527 -15.006  46.438  1.00  0.00     0.117 A
HETATM    8  C21 UNL     1     -99.636 -15.799  46.315  1.00  0.00     0.006 A
ENDROOT
BRANCH   4   9
HETATM    9  N3  UNL     1     -98.038 -14.907  49.968  1.00  0.00    -0.221 N
ATOM     10  H3  UNL     1     -97.106 -14.500  50.043  1.00  0.00     0.178 HD
BRANCH   9  11
HETATM   11  C7  UNL     1     -98.776 -15.169  51.175  1.00  0.00     0.102 C
HETATM   12  C8  UNL     1     -97.838 -15.634  52.274  1.00  0.00     0.045 C
HETATM   13  C9  UNL     1     -98.314 -15.348  53.654  1.00  0.00     0.119 C
HETATM   14  N4  UNL     1     -99.729 -15.262  53.736  1.00  0.00    -0.411 N
HETATM   15  C18 UNL     1    -100.340 -14.336  52.846  1.00  0.00     0.119 C
HETATM   16  C19 UNL     1     -99.441 -13.910  51.709  1.00  0.00     0.045 C
BRANCH  14  17
HETATM   17  C10 UNL     1    -100.293 -15.274  55.034  1.00  0.00     0.136 C
BRANCH  17  18
HETATM   18  C11 UNL     1    -100.160 -16.575  55.747  1.00  0.00     0.136 C
BRANCH  18  19
HETATM   19  N5  UNL     1    -101.403 -17.152  56.150  1.00  0.00    -0.408 N
HETATM   20  C12 UNL     1    -101.303 -18.216  57.072  1.00  0.00     0.123 C
HETATM   21  C13 UNL     1    -102.538 -19.018  57.273  1.00  0.00     0.029 C
HETATM   22  C14 UNL     1    -102.679 -19.956  56.079  1.00  0.00     0.174 C
HETATM   23  C16 UNL     1    -103.738 -18.096  57.019  1.00  0.00     0.042 C
HETATM   24  O2  UNL     1    -103.511 -19.355  55.166  1.00  0.00    -0.384 OA
HETATM   25  C15 UNL     1    -103.623 -18.006  55.492  1.00  0.00     0.139 C
HETATM   26  C17 UNL     1    -102.388 -17.252  55.131  1.00  0.00     0.149 C
ENDBRANCH  18  19
ENDBRANCH  17  18
ENDBRANCH  14  17
ENDBRANCH   9  11
ENDBRANCH   4   9
BRANCH   1  27
HETATM   27  N1  UNL     1    -101.218 -17.008  47.387  1.00  0.00    -0.371 N
ATOM     28  H1  UNL     1    -101.076 -17.841  46.816  1.00  0.00     0.161 HD
BRANCH  27  29
HETATM   29  C4  UNL     1    -102.533 -16.866  47.893  1.00  0.00     0.083 C
HETATM   30  C3  UNL     1    -103.142 -15.510  47.795  1.00  0.00     0.028 C
HETATM   31  C2  UNL     1    -104.556 -15.516  47.275  1.00  0.00     0.034 C
HETATM   32  C1  UNL     1    -105.433 -16.498  48.008  1.00  0.00     0.118 C
HETATM   33  C27 UNL     1    -104.757 -17.853  48.119  1.00  0.00     0.034 C
HETATM   34  C26 UNL     1    -103.502 -17.858  47.271  1.00  0.00     0.028 C
BRANCH  32  35
HETATM   35  O1  UNL     1    -105.835 -16.056  49.263  1.00  0.00    -0.396 OA
ATOM     36  H1  UNL     1    -106.389 -16.675  49.725  1.00  0.00     0.210 HD
ENDBRANCH  32  35
ENDBRANCH  27  29
ENDBRANCH   1  27
BRANCH   8  37
HETATM   37  C22 UNL     1    -100.271 -16.169  45.030  1.00  0.00     0.024 C
HETATM   38  C23 UNL     1    -101.480 -15.387  44.605  1.00  0.00     0.009 C
HETATM   39  C24 UNL     1    -100.545 -14.431  43.872  1.00  0.00     0.001 C
HETATM   40  C25 UNL     1     -99.563 -15.609  43.808  1.00  0.00     0.009 C
ENDBRANCH   8  37
TORSDOF 9
ENDMDL