MODEL 3
REMARK VINA RESULT: -7.592599320      2.930      4.078
REMARK  7 active torsions:
REMARK  status: ('A' for Active; 'I' for Inactive)
REMARK    1  A    between atoms: C2_2  and  C4_4
REMARK    2  A    between atoms: C2_2  and  C6_12
REMARK       I    between atoms: C4_4  and  N1_6
REMARK    3  A    between atoms: N1_6  and  S1_8
REMARK    4  A    between atoms: C17_23  and  O4_24
REMARK    5  A    between atoms: C20_28  and  C21_29
REMARK    6  A    between atoms: N2_30  and  N3_32
REMARK       I    between atoms: N3_32  and  C22_34
REMARK    7  A    between atoms: C22_34  and  C23_36
ROOT
HETATM    1  C6  UNL     1     -96.155 -14.380  47.475  1.00  0.00     0.011 C
HETATM    2  C7  UNL     1     -97.124 -14.721  46.338  1.00  0.00     0.007 C
HETATM    3  C8  UNL     1     -98.415 -14.866  47.076  1.00  0.00     0.011 C
HETATM    4  C9  UNL     1     -98.087 -15.310  48.486  1.00  0.00    -0.024 C
HETATM    5  C10 UNL     1     -98.377 -16.812  48.498  1.00  0.00     0.017 C
HETATM    6  C11 UNL     1     -96.631 -14.994  48.713  1.00  0.00    -0.031 C
HETATM    7  C12 UNL     1     -95.938 -16.241  49.153  1.00  0.00     0.016 C
HETATM    8  C13 UNL     1     -96.427 -14.011  49.877  1.00  0.00     0.011 C
HETATM    9  C14 UNL     1     -97.399 -12.896  49.932  1.00  0.00     0.007 C
HETATM   10  C15 UNL     1     -98.800 -13.189  49.585  1.00  0.00     0.002 C
HETATM   11  C16 UNL     1     -99.857 -12.584  50.471  1.00  0.00     0.037 C
HETATM   12  C17 UNL     1     -99.967 -13.207  51.822  1.00  0.00     0.118 C
HETATM   13  C18 UNL     1     -99.277 -14.501  51.975  1.00  0.00     0.033 C
HETATM   14  C19 UNL     1     -99.160 -15.375  50.777  1.00  0.00     0.018 C
HETATM   15  C20 UNL     1     -99.057 -14.690  49.449  1.00  0.00     0.005 C
ENDROOT
BRANCH   1  16
HETATM   16  C2  UNL     1     -94.807 -14.601  46.916  1.00  0.00     0.039 C
HETATM   17  C1  UNL     1     -94.750 -15.327  45.614  1.00  0.00     0.025 C
HETATM   18  C3  UNL     1     -93.738 -15.111  47.814  1.00  0.00     0.025 C
BRANCH  16  19
HETATM   19  C4  UNL     1     -94.337 -13.184  46.600  1.00  0.00     0.239 C
HETATM   20  O1  UNL     1     -94.651 -12.207  47.320  1.00  0.00    -0.272 OA
HETATM   21  N1  UNL     1     -93.524 -12.934  45.470  1.00  0.00    -0.254 N
ATOM     22  H1  UNL     1     -93.250 -13.709  44.865  1.00  0.00     0.181 HD
BRANCH  21  23
HETATM   23  S1  UNL     1     -92.990 -11.335  45.104  1.00  0.00     0.229 S
HETATM   24  C5  UNL     1     -92.741 -11.208  43.328  1.00  0.00     0.186 C
HETATM   25  O2  UNL     1     -91.638 -11.071  45.735  1.00  0.00    -0.206 OA
HETATM   26  O3  UNL     1     -93.926 -10.297  45.607  1.00  0.00    -0.206 OA
ENDBRANCH  21  23
ENDBRANCH  16  19
ENDBRANCH   1  16
BRANCH  15  27
HETATM   27  C21 UNL     1    -100.424 -14.766  48.824  1.00  0.00     0.091 C
HETATM   28  N2  UNL     1    -101.411 -15.335  49.421  1.00  0.00    -0.312 N
ATOM     29  H2  UNL     1    -101.239 -15.738  50.342  1.00  0.00     0.185 HD
BRANCH  28  30
HETATM   30  N3  UNL     1    -102.688 -15.437  48.904  1.00  0.00    -0.265 N
HETATM   31  C22 UNL     1    -103.170 -16.634  48.321  1.00  0.00     0.297 C
HETATM   32  O5  UNL     1    -102.455 -17.660  48.248  1.00  0.00    -0.263 OA
ATOM     33  H3  UNL     1    -103.304 -14.625  48.942  1.00  0.00     0.190 HD
BRANCH  31  34
HETATM   34  C23 UNL     1    -104.530 -16.710  47.783  1.00  0.00     0.334 C
HETATM   35  O6  UNL     1    -104.984 -15.809  47.014  1.00  0.00    -0.296 OA
ENDBRANCH  31  34
ENDBRANCH  28  30
ENDBRANCH  15  27
BRANCH  12  36
HETATM   36  O4  UNL     1    -101.314 -13.341  52.242  1.00  0.00    -0.396 OA
ATOM     37  H4  UNL     1    -101.400 -13.311  53.188  1.00  0.00     0.210 HD
ENDBRANCH  12  36
TORSDOF 7
ENDMDL