MODEL 3
REMARK VINA RESULT: -7.141074572      1.175      1.727
REMARK  8 active torsions:
REMARK  status: ('A' for Active; 'I' for Inactive)
REMARK    1  A    between atoms: C2_2  and  O1_5
REMARK    2  A    between atoms: O1_5  and  C5_6
REMARK       I    between atoms: C5_6  and  N1_8
REMARK    3  A    between atoms: C9_12  and  C10_13
REMARK    4  A    between atoms: C10_13  and  C11_14
REMARK    5  A    between atoms: C12_17  and  C13_18
REMARK       I    between atoms: C13_18  and  N2_20
REMARK    6  A    between atoms: N2_20  and  C14_22
REMARK    7  A    between atoms: C14_22  and  C15_23
REMARK       I    between atoms: C15_23  and  N3_25
REMARK    8  A    between atoms: N3_25  and  C16_27
ROOT
HETATM    1  C16 UNL     1     -96.963 -15.107  44.618  1.00  0.00     0.122 A
HETATM    2  C17 UNL     1     -98.410 -15.008  44.429  1.00  0.00     0.091 C
HETATM    3  N4  UNL     1     -99.570 -14.944  44.291  1.00  0.00    -0.195 NA
HETATM    4  C18 UNL     1     -96.103 -14.298  43.727  1.00  0.00     0.050 A
HETATM    5  C19 UNL     1     -96.169 -15.783  43.488  1.00  0.00     0.050 A
ENDROOT
BRANCH   1   6
HETATM    6  N3  UNL     1     -96.543 -15.399  45.983  1.00  0.00    -0.337 N
HETATM    7  C15 UNL     1     -96.584 -14.430  47.019  1.00  0.00     0.248 C
HETATM    8  O6  UNL     1     -97.040 -13.291  46.614  1.00  0.00    -0.271 OA
ATOM      9  H3  UNL     1     -96.206 -16.337  46.203  1.00  0.00     0.164 HD
BRANCH   7  10
HETATM   10  C14 UNL     1     -96.195 -14.574  48.406  1.00  0.00     0.121 C
HETATM   11  C20 UNL     1     -95.216 -13.474  48.898  1.00  0.00     0.024 C
HETATM   12  C21 UNL     1     -94.014 -13.669  48.065  1.00  0.00     0.008 C
HETATM   13  C24 UNL     1     -95.008 -14.467  50.053  1.00  0.00     0.015 C
HETATM   14  C22 UNL     1     -93.852 -15.183  48.210  1.00  0.00     0.008 C
HETATM   15  C23 UNL     1     -95.136 -15.490  48.866  1.00  0.00     0.024 C
BRANCH  10  16
HETATM   16  N2  UNL     1     -97.330 -14.593  49.357  1.00  0.00    -0.341 N
HETATM   17  C13 UNL     1     -98.416 -15.468  49.343  1.00  0.00     0.242 C
HETATM   18  O5  UNL     1     -98.536 -16.353  48.466  1.00  0.00    -0.271 OA
ATOM     19  H2  UNL     1     -97.317 -13.894  50.099  1.00  0.00     0.163 HD
BRANCH  17  20
HETATM   20  C12 UNL     1     -99.506 -15.381  50.403  1.00  0.00     0.186 C
HETATM   21  N1  UNL     1    -100.808 -15.278  49.807  1.00  0.00    -0.314 N
HETATM   22  C5  UNL     1    -101.515 -16.450  49.469  1.00  0.00     0.364 C
HETATM   23  C6  UNL     1    -101.424 -14.008  49.537  1.00  0.00     0.129 C
HETATM   24  O2  UNL     1    -101.007 -17.558  49.695  1.00  0.00    -0.238 OA
HETATM   25  C7  UNL     1    -101.054 -12.941  50.529  1.00  0.00     0.020 C
HETATM   26  C8  UNL     1     -99.588 -12.935  50.792  1.00  0.00     0.009 C
HETATM   27  C9  UNL     1     -99.143 -14.276  51.334  1.00  0.00     0.028 C
BRANCH  22  28
HETATM   28  O1  UNL     1    -102.771 -16.460  48.885  1.00  0.00    -0.294 OA
BRANCH  28  29
HETATM   29  C2  UNL     1    -103.016 -16.612  47.527  1.00  0.00     0.061 C
HETATM   30  C1  UNL     1    -104.210 -15.754  47.100  1.00  0.00     0.046 C
HETATM   31  C3  UNL     1    -103.499 -18.054  47.318  1.00  0.00     0.046 C
HETATM   32  C4  UNL     1    -101.862 -16.387  46.623  1.00  0.00     0.046 C
ENDBRANCH  28  29
ENDBRANCH  22  28
BRANCH  27  33
HETATM   33  C10 UNL     1     -99.618 -14.446  52.745  1.00  0.00     0.120 C
BRANCH  33  34
HETATM   34  C11 UNL     1     -99.986 -15.802  53.136  1.00  0.00     0.172 C
HETATM   35  O3  UNL     1     -99.137 -16.639  53.535  1.00  0.00    -0.648 OA
HETATM   36  O4  UNL     1    -101.304 -16.236  53.085  1.00  0.00    -0.648 OA
ENDBRANCH  33  34
ENDBRANCH  27  33
ENDBRANCH  17  20
ENDBRANCH  10  16
ENDBRANCH   7  10
ENDBRANCH   1   6
TORSDOF 8
ENDMDL