MODEL 1
REMARK VINA RESULT: -8.681177037      0.000      0.000
REMARK  5 active torsions:
REMARK  status: ('A' for Active; 'I' for Inactive)
REMARK    1  A    between atoms: C7_10  and  S1_11
REMARK    2  A    between atoms: S1_11  and  C8_12
REMARK    3  A    between atoms: C8_12  and  C9_13
REMARK    4  A    between atoms: C12_19  and  N3_20
REMARK    5  A    between atoms: C16_28  and  C17_29
ROOT
HETATM    1  C1  UNL     1     -30.175   0.646 -27.984  1.00  0.00     0.229 C
HETATM    2  N1  UNL     1     -29.378  -0.192 -28.035  1.00  0.00    -0.428 NA
HETATM    3  C2  UNL     1     -28.419  -1.178 -28.103  1.00  0.00     0.123 A
HETATM    4  C3  UNL     1     -27.313  -0.963 -28.907  1.00  0.00     0.071 A
HETATM    5  C4  UNL     1     -26.329  -1.916 -29.009  1.00  0.00     0.059 A
HETATM    6 CL1  UNL     1     -24.921  -1.693 -30.004  1.00  0.00    -0.082 Cl
HETATM    7  C5  UNL     1     -26.462  -3.091 -28.297  1.00  0.00     0.057 A
HETATM    8 CL2  UNL     1     -25.224  -4.314 -28.412  1.00  0.00    -0.083 Cl
HETATM    9  C6  UNL     1     -27.545  -3.334 -27.494  1.00  0.00     0.047 A
HETATM   10  C7  UNL     1     -28.520  -2.369 -27.403  1.00  0.00     0.043 A
ENDROOT
BRANCH  10  11
HETATM   11  S1  UNL     1     -29.974  -2.583 -26.384  1.00  0.00    -0.120 SA
BRANCH  11  12
HETATM   12  C8  UNL     1     -29.496  -3.093 -24.703  1.00  0.00     0.137 C
BRANCH  12  13
HETATM   13  C9  UNL     1     -28.998  -1.872 -24.013  1.00  0.00     0.041 A
HETATM   14  C10 UNL     1     -28.545  -1.986 -22.715  1.00  0.00     0.101 A
HETATM   15  C11 UNL     1     -28.069  -0.900 -22.014  1.00  0.00     0.261 A
HETATM   16  O1  UNL     1     -27.666  -1.028 -20.842  1.00  0.00    -0.268 OA
HETATM   17  N2  UNL     1     -28.069   0.293 -22.669  1.00  0.00    -0.156 N
HETATM   18  C12 UNL     1     -28.498   0.438 -23.925  1.00  0.00     0.690 A
ATOM     19  H2  UNL     1     -27.724   1.116 -22.176  1.00  0.00     0.187 HD
HETATM   20  N7  UNL     1     -28.963  -0.672 -24.578  1.00  0.00    -0.194 N
ATOM     21  H7  UNL     1     -29.295  -0.573 -25.537  1.00  0.00     0.184 HD
BRANCH  18  22
HETATM   22  N3  UNL     1     -28.475   1.686 -24.611  1.00  0.00    -0.152 N
HETATM   23  C13 UNL     1     -29.429   2.732 -24.491  1.00  0.00     0.114 C
HETATM   24  N4  UNL     1     -30.100   3.148 -23.520  1.00  0.00    -0.387 N
HETATM   25  C14 UNL     1     -29.470   3.340 -25.884  1.00  0.00     0.174 C
ATOM     26  H42 UNL     1     -30.072   2.740 -22.586  1.00  0.00     0.157 HD
ATOM     27  H41 UNL     1     -30.785   3.899 -23.434  1.00  0.00     0.157 HD
HETATM   28  C15 UNL     1     -30.061   4.657 -25.868  1.00  0.00     0.072 C
HETATM   29  C16 UNL     1     -27.984   3.364 -26.173  1.00  0.00     0.106 C
HETATM   30  N5  UNL     1     -30.530   5.697 -25.870  1.00  0.00    -0.196 NA
HETATM   31  C21 UNL     1     -27.469   2.099 -25.584  1.00  0.00     0.228 C
HETATM   32  C22 UNL     1     -26.169   2.259 -24.937  1.00  0.00     0.086 C
HETATM   33  N6  UNL     1     -25.146   2.391 -24.448  1.00  0.00    -0.195 NA
BRANCH  29  34
HETATM   34  C17 UNL     1     -27.851   3.390 -27.664  1.00  0.00     0.061 A
HETATM   35  C18 UNL     1     -27.120   2.546 -28.456  1.00  0.00     0.035 A
HETATM   36  C19 UNL     1     -27.319   2.978 -29.765  1.00  0.00     0.027 A
HETATM   37  C20 UNL     1     -28.156   4.052 -29.697  1.00  0.00     0.142 A
HETATM   38  O2  UNL     1     -28.439   4.252 -28.427  1.00  0.00    -0.327 OA
ENDBRANCH  29  34
ENDBRANCH  18  22
ENDBRANCH  12  13
ENDBRANCH  11  12
ENDBRANCH  10  11
TORSDOF 5
ENDMDL