MODEL 1
REMARK VINA RESULT: -8.502519134      0.000      0.000
REMARK  7 active torsions:
REMARK  status: ('A' for Active; 'I' for Inactive)
REMARK    1  A    between atoms: C2_2  and  O1_4
REMARK    2  A    between atoms: O1_4  and  C3_5
REMARK    3  A    between atoms: C6_9  and  N1_10
REMARK    4  A    between atoms: N1_10  and  C7_12
REMARK    5  A    between atoms: N5_25  and  C14_26
REMARK    6  A    between atoms: C14_26  and  C15_27
REMARK    7  A    between atoms: C24_36  and  N6_37
ROOT
HETATM    1  C7  UNL     1     -26.854  -1.950 -28.783  1.00  0.00     0.115 A
HETATM    2  N2  UNL     1     -25.781  -1.663 -29.531  1.00  0.00    -0.338 N
ATOM      3  H2  UNL     1     -25.753  -0.766 -30.013  1.00  0.00     0.168 HD
HETATM    4  C8  UNL     1     -24.732  -2.506 -29.678  1.00  0.00     0.182 A
HETATM    5  N3  UNL     1     -24.716  -3.699 -29.066  1.00  0.00    -0.351 N
ATOM      6  H3  UNL     1     -23.926  -4.335 -29.176  1.00  0.00     0.166 HD
HETATM    7  C9  UNL     1     -25.774  -4.034 -28.301  1.00  0.00     0.056 A
HETATM    8  C10 UNL     1     -26.851  -3.194 -28.138  1.00  0.00     0.014 A
HETATM    9  C11 UNL     1     -28.005  -3.553 -27.318  1.00  0.00     0.051 A
HETATM   10  C12 UNL     1     -27.971  -4.851 -26.616  1.00  0.00     0.064 A
HETATM   11  C13 UNL     1     -26.778  -5.685 -26.854  1.00  0.00     0.040 A
HETATM   12  N4  UNL     1     -26.464  -6.923 -26.373  1.00  0.00    -0.302 N
ATOM     13  H4  UNL     1     -27.048  -7.477 -25.747  1.00  0.00     0.186 HD
HETATM   14  N5  UNL     1     -25.292  -7.292 -26.841  1.00  0.00    -0.302 N
HETATM   15  C21 UNL     1     -24.771  -6.347 -27.639  1.00  0.00     0.126 A
HETATM   16  C22 UNL     1     -25.711  -5.338 -27.643  1.00  0.00     0.032 A
ENDROOT
BRANCH   1  17
HETATM   17  N1  UNL     1     -27.866  -1.182 -28.612  1.00  0.00    -0.342 N
ATOM     18  H1  UNL     1     -28.777  -1.528 -28.913  1.00  0.00     0.167 HD
BRANCH  17  19
HETATM   19  C6  UNL     1     -27.815   0.095 -28.044  1.00  0.00     0.037 A
HETATM   20  C5  UNL     1     -28.128   1.214 -28.781  1.00  0.00     0.056 A
HETATM   21  C4  UNL     1     -28.081   2.486 -28.234  1.00  0.00     0.072 A
HETATM   22  C3  UNL     1     -27.711   2.661 -26.912  1.00  0.00     0.125 A
HETATM   23 CL2  UNL     1     -28.516   3.839 -29.251  1.00  0.00    -0.081 Cl
HETATM   24  C24 UNL     1     -27.395   1.577 -26.149  1.00  0.00     0.140 A
HETATM   25  C23 UNL     1     -27.452   0.295 -26.736  1.00  0.00     0.068 A
BRANCH  22  26
HETATM   26  O1  UNL     1     -27.665   3.940 -26.390  1.00  0.00    -0.327 OA
BRANCH  26  27
HETATM   27  C2  UNL     1     -28.752   4.547 -25.722  1.00  0.00     0.220 C
HETATM   28  C1  UNL     1     -29.942   3.685 -25.488  1.00  0.00     0.057 C
HETATM   29 CL1  UNL     1     -29.324   5.891 -26.781  1.00  0.00    -0.095 Cl
ENDBRANCH  26  27
ENDBRANCH  22  26
BRANCH  24  30
HETATM   30  N6  UNL     1     -27.032   1.635 -24.786  1.00  0.00    -0.113 N
HETATM   31  O2  UNL     1     -27.819   1.337 -23.894  1.00  0.00    -0.532 OA
HETATM   32  O3  UNL     1     -25.753   1.994 -24.456  1.00  0.00    -0.532 OA
ENDBRANCH  24  30
ENDBRANCH  17  19
ENDBRANCH   1  17
BRANCH  14  33
HETATM   33  C14 UNL     1     -24.645  -8.543 -26.537  1.00  0.00     0.152 C
BRANCH  33  34
HETATM   34  C15 UNL     1     -23.345  -8.302 -25.749  1.00  0.00     0.005 C
HETATM   35  C16 UNL     1     -23.634  -8.001 -24.338  1.00  0.00     0.006 C
HETATM   36  C17 UNL     1     -22.679  -8.541 -23.326  1.00  0.00     0.000 C
HETATM   37  C18 UNL     1     -22.067  -9.852 -23.686  1.00  0.00     0.000 C
HETATM   38  C19 UNL     1     -21.359  -9.658 -25.014  1.00  0.00     0.000 C
HETATM   39  C20 UNL     1     -22.430  -9.424 -26.044  1.00  0.00     0.006 C
ENDBRANCH  33  34
ENDBRANCH  14  33
TORSDOF 7
ENDMDL