MODEL 4
REMARK VINA RESULT: -7.265300897      1.019      1.646
REMARK  10 active torsions:
REMARK  status: ('A' for Active; 'I' for Inactive)
REMARK    1  A    between atoms: S1_2  and  C2_3
REMARK    2  A    between atoms: C2_3  and  C25_38
REMARK    3  A    between atoms: N1_4  and  C3_6
REMARK    4  A    between atoms: C4_7  and  C5_8
REMARK    5  A    between atoms: C10_13  and  C11_14
REMARK    6  A    between atoms: C14_19  and  O1_20
REMARK    7  A    between atoms: N3_22  and  C15_23
REMARK    8  A    between atoms: C15_23  and  C16_24
REMARK    9  A    between atoms: C16_24  and  N4_25
REMARK   10  A    between atoms: C21_30  and  O2_31
ROOT
HETATM    1  C3  UNL     1     -27.784   0.566 -26.232  1.00  0.00     0.082 A
HETATM    2  C4  UNL     1     -27.893   0.087 -27.504  1.00  0.00    -0.020 A
HETATM    3  C9  UNL     1     -27.589  -1.261 -27.723  1.00  0.00     0.027 A
HETATM    4  C10 UNL     1     -27.192  -2.105 -26.708  1.00  0.00     0.029 A
HETATM    5  C23 UNL     1     -27.085  -1.616 -25.424  1.00  0.00     0.169 A
HETATM    6  F1  UNL     1     -26.693  -2.446 -24.413  1.00  0.00    -0.202 F
HETATM    7  C24 UNL     1     -27.380  -0.296 -25.196  1.00  0.00     0.182 A
HETATM    8  F2  UNL     1     -27.283   0.130 -23.902  1.00  0.00    -0.200 F
ENDROOT
BRANCH   4   9
HETATM    9  C11 UNL     1     -26.875  -3.525 -26.977  1.00  0.00     0.027 A
HETATM   10  N2  UNL     1     -25.762  -3.998 -27.415  1.00  0.00    -0.354 N
HETATM   11  C12 UNL     1     -25.831  -5.423 -27.551  1.00  0.00     0.095 A
ATOM     12  H2  UNL     1     -24.941  -3.434 -27.636  1.00  0.00     0.166 HD
HETATM   13  C13 UNL     1     -27.087  -5.829 -27.161  1.00  0.00     0.030 A
HETATM   14  C21 UNL     1     -25.115  -6.551 -27.924  1.00  0.00     0.172 A
HETATM   15  C14 UNL     1     -27.110  -7.213 -27.307  1.00  0.00     0.153 A
HETATM   16  C22 UNL     1     -27.849  -4.620 -26.763  1.00  0.00     0.103 A
HETATM   17  N3  UNL     1     -25.912  -7.614 -27.766  1.00  0.00    -0.304 N
BRANCH  15  18
HETATM   18  O1  UNL     1     -28.210  -8.037 -27.018  1.00  0.00    -0.345 OA
ATOM     19  H1  UNL     1     -28.172  -8.980 -26.912  1.00  0.00     0.219 HD
ENDBRANCH  15  18
BRANCH  17  20
HETATM   20  C15 UNL     1     -25.547  -8.989 -28.045  1.00  0.00     0.163 C
BRANCH  20  21
HETATM   21  C16 UNL     1     -24.680  -9.556 -26.932  1.00  0.00     0.292 C
BRANCH  21  22
HETATM   22  N4  UNL     1     -25.411 -10.595 -26.237  1.00  0.00     0.090 N
HETATM   23  C17 UNL     1     -26.488 -11.124 -27.019  1.00  0.00     0.272 C
HETATM   24  C18 UNL     1     -27.260 -11.932 -25.982  1.00  0.00     0.032 C
HETATM   25  C19 UNL     1     -27.267 -10.982 -24.801  1.00  0.00     0.032 C
HETATM   26  C20 UNL     1     -26.089 -10.083 -25.067  1.00  0.00     0.272 C
ENDBRANCH  21  22
ENDBRANCH  20  21
ENDBRANCH  17  20
BRANCH  14  27
HETATM   27  O2  UNL     1     -23.785  -6.515 -28.382  1.00  0.00    -0.344 OA
ATOM     28  H2  UNL     1     -23.263  -7.292 -28.545  1.00  0.00     0.219 HD
ENDBRANCH  14  27
ENDBRANCH   4   9
BRANCH   2  29
HETATM   29  C5  UNL     1     -28.352   0.900 -28.618  1.00  0.00    -0.022 C
HETATM   30  C6  UNL     1     -28.203   0.082 -29.920  1.00  0.00     0.019 C
HETATM   31  C7  UNL     1     -29.835   1.222 -28.546  1.00  0.00     0.019 C
HETATM   32  C8  UNL     1     -27.511   2.111 -28.809  1.00  0.00     0.019 C
ENDBRANCH   2  29
BRANCH   1  33
HETATM   33  N1  UNL     1     -28.043   1.866 -25.890  1.00  0.00    -0.351 N
HETATM   34  C2  UNL     1     -28.953   2.519 -25.374  1.00  0.00     0.051 C
ATOM     35  H1  UNL     1     -27.256   2.469 -26.132  1.00  0.00     0.166 HD
BRANCH  34  36
HETATM   36  S1  UNL     1     -30.491   1.909 -24.799  1.00  0.00    -0.121 SA
HETATM   37  C1  UNL     1     -30.493   0.946 -23.313  1.00  0.00     0.097 C
ENDBRANCH  34  36
BRANCH  34  38
HETATM   38  C25 UNL     1     -28.756   4.019 -25.250  1.00  0.00     0.043 A
HETATM   39  C26 UNL     1     -29.000   4.775 -26.555  1.00  0.00     0.012 A
HETATM   40  C27 UNL     1     -29.905   4.938 -25.395  1.00  0.00     0.012 A
ENDBRANCH  34  38
ENDBRANCH   1  33
TORSDOF 10
ENDMDL