MODEL 3
REMARK VINA RESULT: -7.816079672      1.411      1.900
REMARK  7 active torsions:
REMARK  status: ('A' for Active; 'I' for Inactive)
REMARK    1  A    between atoms: C2_2  and  C3_3
REMARK    2  A    between atoms: C3_3  and  C4_4
REMARK    3  A    between atoms: C15_20  and  C16_21
REMARK    4  A    between atoms: C16_21  and  C18_24
REMARK    5  A    between atoms: N4_26  and  N5_28
REMARK    6  A    between atoms: N5_28  and  C19_30
REMARK    7  A    between atoms: C21_34  and  S1_35
ROOT
HETATM    1  C16 UNL     1     -28.500   2.616 -25.703  1.00  0.00     0.195 C
HETATM    2  C17 UNL     1     -28.480   3.951 -26.238  1.00  0.00     0.074 C
HETATM    3  N3  UNL     1     -28.484   5.023 -26.682  1.00  0.00    -0.196 NA
ENDROOT
BRANCH   1   4
HETATM    4  C15 UNL     1     -28.336   1.546 -26.741  1.00  0.00     0.114 C
HETATM    5  C13 UNL     1     -29.537   1.287 -27.537  1.00  0.00    -0.050 C
HETATM    6  C12 UNL     1     -29.178   0.890 -28.753  1.00  0.00    -0.012 C
HETATM    7  C14 UNL     1     -30.959   1.430 -27.114  1.00  0.00     0.046 C
HETATM    8  C11 UNL     1     -27.669   0.849 -28.859  1.00  0.00     0.048 C
HETATM    9  C7  UNL     1     -27.274  -0.465 -28.325  1.00  0.00    -0.011 A
HETATM   10  C23 UNL     1     -27.340   1.956 -27.835  1.00  0.00     0.058 C
HETATM   11  C6  UNL     1     -27.368  -0.681 -26.968  1.00  0.00     0.106 A
HETATM   12  C8  UNL     1     -26.825  -1.448 -29.150  1.00  0.00     0.055 A
HETATM   13  C5  UNL     1     -27.000  -1.912 -26.448  1.00  0.00     0.098 A
HETATM   14  O1  UNL     1     -27.834   0.359 -26.163  1.00  0.00    -0.331 OA
HETATM   15  N1  UNL     1     -26.977  -2.420 -25.208  1.00  0.00    -0.342 N
HETATM   16  C10 UNL     1     -26.537  -2.936 -27.283  1.00  0.00     0.102 A
HETATM   17  C4  UNL     1     -26.529  -3.690 -25.227  1.00  0.00     0.082 A
ATOM     18  H1  UNL     1     -27.259  -1.915 -24.367  1.00  0.00     0.167 HD
HETATM   19  N2  UNL     1     -26.259  -4.000 -26.507  1.00  0.00    -0.342 N
ATOM     20  H2  UNL     1     -25.902  -4.896 -26.837  1.00  0.00     0.167 HD
HETATM   21  C9  UNL     1     -26.447  -2.706 -28.644  1.00  0.00     0.146 A
HETATM   22  F1  UNL     1     -26.000  -3.685 -29.462  1.00  0.00    -0.204 F
BRANCH  17  23
HETATM   23  C3  UNL     1     -26.360  -4.596 -24.042  1.00  0.00     0.076 C
BRANCH  23  24
HETATM   24  C2  UNL     1     -27.654  -4.705 -23.263  1.00  0.00     0.003 C
HETATM   25  C1  UNL     1     -27.338  -4.438 -21.791  1.00  0.00     0.005 C
ENDBRANCH  23  24
ENDBRANCH  17  23
ENDBRANCH   1   4
BRANCH   1  26
HETATM   26  C18 UNL     1     -27.605   2.415 -24.536  1.00  0.00     0.116 C
HETATM   27 CL1  UNL     1     -25.873   2.790 -24.727  1.00  0.00    -0.066 Cl
HETATM   28  N4  UNL     1     -27.926   2.003 -23.385  1.00  0.00    -0.290 N
ATOM     29  H4  UNL     1     -27.150   1.939 -22.727  1.00  0.00     0.188 HD
BRANCH  28  30
HETATM   30  N5  UNL     1     -29.134   1.630 -22.875  1.00  0.00    -0.279 N
ATOM     31  H5  UNL     1     -29.731   2.344 -22.457  1.00  0.00     0.189 HD
BRANCH  30  32
HETATM   32  C19 UNL     1     -29.562   0.384 -22.898  1.00  0.00     0.164 A
HETATM   33  N6  UNL     1     -29.651  -0.412 -23.960  1.00  0.00    -0.344 N
HETATM   34  C20 UNL     1     -30.100  -1.624 -23.792  1.00  0.00     0.116 A
ATOM     35  H6  UNL     1     -29.374  -0.082 -24.884  1.00  0.00     0.167 HD
HETATM   36  C21 UNL     1     -30.455  -2.007 -22.525  1.00  0.00     0.059 A
HETATM   37  S2  UNL     1     -30.126  -0.598 -21.622  1.00  0.00    -0.044 SA
BRANCH  36  38
HETATM   38  S1  UNL     1     -31.102  -3.609 -22.002  1.00  0.00    -0.126 SA
HETATM   39  C22 UNL     1     -31.442  -4.640 -23.465  1.00  0.00     0.096 C
ENDBRANCH  36  38
ENDBRANCH  30  32
ENDBRANCH  28  30
ENDBRANCH   1  26
TORSDOF 7
ENDMDL