MODEL 4
REMARK VINA RESULT: -7.250176727      3.796      8.775
REMARK  9 active torsions:
REMARK  status: ('A' for Active; 'I' for Inactive)
REMARK    1  A    between atoms: C2_2  and  C3_3
REMARK    2  A    between atoms: C3_3  and  S1_4
REMARK    3  A    between atoms: S1_4  and  N1_5
REMARK    4  A    between atoms: N1_5  and  C4_7
REMARK    5  A    between atoms: C5_8  and  C6_9
REMARK    6  A    between atoms: C7_12  and  C8_13
REMARK    7  A    between atoms: C8_13  and  O1_16
REMARK       I    between atoms: N2_19  and  C12_20
REMARK       I    between atoms: C12_20  and  N3_22
REMARK    8  A    between atoms: N3_22  and  C13_24
REMARK    9  A    between atoms: C18_29  and  N4_30
ROOT
HETATM    1  C4  UNL     1     -28.214  -0.759 -27.276  1.00  0.00     0.118 A
HETATM    2  C5  UNL     1     -27.904   0.209 -28.212  1.00  0.00     0.049 A
HETATM    3  C7  UNL     1     -28.116   1.551 -27.974  1.00  0.00     0.005 A
HETATM    4  C11 UNL     1     -28.661   1.880 -26.734  1.00  0.00     0.116 A
HETATM    5  N2  UNL     1     -28.978   0.990 -25.798  1.00  0.00    -0.238 N
HETATM    6  C12 UNL     1     -29.541   1.347 -24.523  1.00  0.00     0.334 C
HETATM    7  O2  UNL     1     -29.784   0.398 -23.750  1.00  0.00    -0.246 OA
HETATM    8  N3  UNL     1     -29.798   2.661 -24.176  1.00  0.00    -0.306 N
ATOM      9  H3  UNL     1     -29.559   3.356 -24.883  1.00  0.00     0.171 HD
HETATM   10  C23 UNL     1     -28.748  -0.327 -26.087  1.00  0.00     0.283 A
HETATM   11  O3  UNL     1     -29.061  -1.142 -25.175  1.00  0.00    -0.265 OA
ENDROOT
BRANCH   3  12
HETATM   12  C8  UNL     1     -27.790   2.604 -28.957  1.00  0.00     0.080 C
HETATM   13  C9  UNL     1     -28.562   3.869 -28.570  1.00  0.00     0.051 C
HETATM   14  C10 UNL     1     -28.235   2.295 -30.362  1.00  0.00     0.051 C
BRANCH  12  15
HETATM   15  O1  UNL     1     -26.444   3.021 -28.887  1.00  0.00    -0.386 OA
ATOM     16  H1  UNL     1     -26.250   3.742 -29.475  1.00  0.00     0.211 HD
ENDBRANCH  12  15
ENDBRANCH   3  12
BRANCH   8  17
HETATM   17  C13 UNL     1     -30.348   3.179 -22.972  1.00  0.00     0.063 A
HETATM   18  C14 UNL     1     -29.918   2.860 -21.706  1.00  0.00     0.032 A
HETATM   19  C15 UNL     1     -30.490   3.342 -20.532  1.00  0.00     0.002 A
HETATM   20  C16 UNL     1     -31.560   4.198 -20.629  1.00  0.00     0.002 A
HETATM   21  C17 UNL     1     -32.025   4.546 -21.868  1.00  0.00     0.031 A
HETATM   22  C18 UNL     1     -31.443   4.056 -23.041  1.00  0.00     0.057 A
BRANCH  22  23
HETATM   23  N4  UNL     1     -31.946   4.480 -24.277  1.00  0.00    -0.379 N
HETATM   24  C19 UNL     1     -31.533   5.624 -25.048  1.00  0.00     0.123 C
HETATM   25  C20 UNL     1     -32.867   6.262 -25.489  1.00  0.00     0.021 C
HETATM   26  C21 UNL     1     -33.737   5.042 -25.702  1.00  0.00     0.021 C
HETATM   27  C22 UNL     1     -33.003   3.869 -25.041  1.00  0.00     0.123 C
ENDBRANCH  22  23
ENDBRANCH   8  17
BRANCH   1  28
HETATM   28  N1  UNL     1     -28.007  -2.079 -27.520  1.00  0.00    -0.343 N
ATOM     29  H1  UNL     1     -28.792  -2.526 -27.995  1.00  0.00     0.172 HD
BRANCH  28  30
HETATM   30  S1  UNL     1     -26.587  -3.258 -27.173  1.00  0.00    -0.179 SA
HETATM   31  C24 UNL     1     -26.293  -3.550 -25.227  1.00  0.00     0.074 C
HETATM   32  C25 UNL     1     -27.211  -4.718 -24.823  1.00  0.00     0.011 C
HETATM   33  C26 UNL     1     -28.484  -4.383 -25.623  1.00  0.00     0.011 C
HETATM   34  C27 UNL     1     -27.876  -4.666 -27.012  1.00  0.00     0.074 C
BRANCH  30  35
HETATM   35  C3  UNL     1     -25.593  -4.133 -28.424  1.00  0.00     0.073 C
BRANCH  35  36
HETATM   36  C2  UNL     1     -25.824  -5.620 -28.477  1.00  0.00     0.006 C
HETATM   37  C1  UNL     1     -24.712  -6.470 -27.950  1.00  0.00     0.006 C
ENDBRANCH  35  36
ENDBRANCH  30  35
ENDBRANCH  28  30
ENDBRANCH   1  28
BRANCH   2  38
HETATM   38  C6  UNL     1     -27.332  -0.252 -29.493  1.00  0.00     0.389 C
HETATM   39  F1  UNL     1     -28.143  -1.264 -29.975  1.00  0.00    -0.209 F
HETATM   40  F2  UNL     1     -26.044  -0.699 -29.230  1.00  0.00    -0.209 F
ENDBRANCH   2  38
TORSDOF 9
ENDMDL