MODEL 3
REMARK VINA RESULT: -7.493363225      3.858      5.473
REMARK  8 active torsions:
REMARK  status: ('A' for Active; 'I' for Inactive)
REMARK    1  A    between atoms: C2_2  and  O1_3
REMARK    2  A    between atoms: O1_3  and  C3_4
REMARK    3  A    between atoms: C3_4  and  C4_6
REMARK    4  A    between atoms: C5_7  and  N1_8
REMARK    5  A    between atoms: C10_13  and  C11_14
REMARK       I    between atoms: C11_14  and  N2_16
REMARK    6  A    between atoms: N2_16  and  C12_18
REMARK    7  A    between atoms: C20_29  and  C21_30
REMARK    8  A    between atoms: C21_30  and  C22_32
ROOT
HETATM    1  N1  UNL     1     -27.514  -2.662 -25.626  1.00  0.00    -0.374 N
HETATM    2  C6  UNL     1     -28.742  -3.366 -25.966  1.00  0.00     0.123 C
HETATM    3  C7  UNL     1     -28.527  -4.467 -26.981  1.00  0.00     0.020 C
HETATM    4  C8  UNL     1     -27.116  -4.640 -27.420  1.00  0.00     0.002 C
HETATM    5  C9  UNL     1     -26.224  -5.398 -26.509  1.00  0.00     0.014 C
HETATM    6  C10 UNL     1     -26.582  -5.427 -25.074  1.00  0.00     0.080 C
HETATM    7  C18 UNL     1     -26.166  -4.217 -24.286  1.00  0.00     0.034 C
HETATM    8  C19 UNL     1     -26.230  -2.941 -25.067  1.00  0.00     0.124 C
ENDROOT
BRANCH   1   9
HETATM    9  C5  UNL     1     -27.602  -1.252 -25.959  1.00  0.00     0.091 A
HETATM   10  C4  UNL     1     -27.432  -0.628 -27.173  1.00  0.00     0.098 A
HETATM   11  C26 UNL     1     -27.575   0.705 -27.197  1.00  0.00     0.086 A
HETATM   12  C20 UNL     1     -27.874   1.329 -26.022  1.00  0.00     0.079 A
HETATM   13  N3  UNL     1     -27.430   1.529 -28.397  1.00  0.00    -0.100 NA
HETATM   14  S1  UNL     1     -27.953   0.056 -24.907  1.00  0.00    -0.066 SA
BRANCH  10  15
HETATM   15  C3  UNL     1     -27.107  -1.429 -28.374  1.00  0.00     0.298 C
HETATM   16  O2  UNL     1     -27.991  -1.720 -29.199  1.00  0.00    -0.259 OA
BRANCH  15  17
HETATM   17  O1  UNL     1     -25.817  -1.851 -28.575  1.00  0.00    -0.318 OA
BRANCH  17  18
HETATM   18  C2  UNL     1     -25.375  -2.184 -29.872  1.00  0.00     0.174 C
HETATM   19  C1  UNL     1     -24.787  -0.909 -30.469  1.00  0.00     0.034 C
ENDBRANCH  17  18
ENDBRANCH  15  17
ENDBRANCH  10  15
BRANCH  12  20
HETATM   20  C21 UNL     1     -28.086   2.767 -25.746  1.00  0.00     0.175 C
HETATM   21  O4  UNL     1     -27.090   3.532 -25.705  1.00  0.00    -0.291 OA
BRANCH  20  22
HETATM   22  C22 UNL     1     -29.419   3.325 -25.520  1.00  0.00     0.015 C
HETATM   23  C23 UNL     1     -29.454   4.758 -25.975  1.00  0.00     0.023 C
HETATM   24  C24 UNL     1     -30.516   2.560 -26.218  1.00  0.00     0.023 C
HETATM   25  C25 UNL     1     -29.683   3.299 -24.017  1.00  0.00     0.023 C
ENDBRANCH  20  22
ENDBRANCH  12  20
ENDBRANCH   1   9
BRANCH   6  26
HETATM   26  C11 UNL     1     -25.870  -6.610 -24.442  1.00  0.00     0.226 C
HETATM   27  O3  UNL     1     -26.586  -7.378 -23.784  1.00  0.00    -0.273 OA
HETATM   28  N2  UNL     1     -24.503  -6.801 -24.605  1.00  0.00    -0.324 N
ATOM     29  H2  UNL     1     -24.026  -6.098 -25.170  1.00  0.00     0.169 HD
BRANCH  28  30
HETATM   30  C12 UNL     1     -23.680  -7.835 -24.096  1.00  0.00     0.073 A
HETATM   31  C13 UNL     1     -23.533  -9.075 -24.665  1.00  0.00     0.036 A
HETATM   32  C14 UNL     1     -22.693 -10.021 -24.079  1.00  0.00     0.044 A
HETATM   33  C15 UNL     1     -22.009  -9.719 -22.926  1.00  0.00     0.119 A
HETATM   34  F1  UNL     1     -21.197 -10.639 -22.361  1.00  0.00    -0.206 F
HETATM   35  C16 UNL     1     -22.140  -8.481 -22.333  1.00  0.00     0.086 A
HETATM   36  C17 UNL     1     -22.968  -7.555 -22.916  1.00  0.00     0.145 A
HETATM   37  F2  UNL     1     -23.094  -6.327 -22.323  1.00  0.00    -0.204 F
ENDBRANCH  28  30
ENDBRANCH   6  26
TORSDOF 8
ENDMDL