MODEL 5
REMARK VINA RESULT: -6.727734671      5.372     12.042
REMARK  7 active torsions:
REMARK  status: ('A' for Active; 'I' for Inactive)
REMARK    1  A    between atoms: N1_3  and  C2_4
REMARK    2  A    between atoms: C9_11  and  O2_12
REMARK    3  A    between atoms: N2_14  and  C10_15
REMARK    4  A    between atoms: C13_18  and  N3_19
REMARK    5  A    between atoms: C15_22  and  C16_23
REMARK    6  A    between atoms: C19_27  and  C20_28
REMARK    7  A    between atoms: C20_28  and  C21_29
ROOT
HETATM    1  C10 UNL     1     -27.187  -1.837 -26.975  1.00  0.00     0.097 C
HETATM    2  C11 UNL     1     -28.555  -1.781 -27.641  1.00  0.00     0.028 C
HETATM    3  C12 UNL     1     -29.456  -0.841 -26.867  1.00  0.00     0.038 C
HETATM    4  C13 UNL     1     -28.574   0.322 -26.438  1.00  0.00     0.226 C
HETATM    5  C22 UNL     1     -27.780  -0.155 -25.267  1.00  0.00     0.038 C
HETATM    6  C23 UNL     1     -27.334  -1.586 -25.517  1.00  0.00     0.028 C
ENDROOT
BRANCH   1   7
HETATM    7  N2  UNL     1     -26.637  -3.132 -27.309  1.00  0.00    -0.274 N
HETATM    8  C1  UNL     1     -26.790  -4.350 -26.823  1.00  0.00     0.331 A
HETATM    9  O1  UNL     1     -27.542  -4.608 -25.842  1.00  0.00    -0.246 OA
HETATM   10  N1  UNL     1     -26.052  -5.250 -27.502  1.00  0.00    -0.301 N
HETATM   11  C8  UNL     1     -25.395  -4.576 -28.468  1.00  0.00     0.152 A
HETATM   12  C9  UNL     1     -25.757  -3.255 -28.350  1.00  0.00     0.162 A
BRANCH  10  13
HETATM   13  C2  UNL     1     -25.940  -6.669 -27.298  1.00  0.00     0.094 C
HETATM   14  C3  UNL     1     -24.480  -7.096 -27.360  1.00  0.00     0.026 C
HETATM   15  C4  UNL     1     -24.323  -8.549 -27.052  1.00  0.00     0.002 C
HETATM   16  C5  UNL     1     -25.121  -9.338 -28.103  1.00  0.00     0.000 C
HETATM   17  C6  UNL     1     -26.563  -8.926 -27.933  1.00  0.00     0.002 C
HETATM   18  C7  UNL     1     -26.645  -7.466 -28.390  1.00  0.00     0.026 C
ENDBRANCH  10  13
BRANCH  12  19
HETATM   19  O2  UNL     1     -25.286  -2.255 -29.170  1.00  0.00    -0.345 OA
ATOM     20  H2  UNL     1     -25.739  -1.952 -29.948  1.00  0.00     0.219 HD
ENDBRANCH  12  19
ENDBRANCH   1   7
BRANCH   4  21
HETATM   21  N3  UNL     1     -29.290   1.538 -26.292  1.00  0.00     0.121 N
HETATM   22  C14 UNL     1     -29.606   2.122 -27.578  1.00  0.00     0.351 C
HETATM   23  S1  UNL     1     -27.845   2.608 -27.673  1.00  0.00    -0.098 SA
HETATM   24  C15 UNL     1     -28.532   2.712 -25.971  1.00  0.00     0.327 C
BRANCH  24  25
HETATM   25  C16 UNL     1     -29.453   3.914 -25.855  1.00  0.00     0.028 A
HETATM   26  C17 UNL     1     -30.530   4.045 -25.025  1.00  0.00     0.042 A
HETATM   27  C18 UNL     1     -31.208   5.203 -25.060  1.00  0.00     0.048 A
HETATM   28 CL1  UNL     1     -32.613   5.526 -23.994  1.00  0.00    -0.083 Cl
HETATM   29  C19 UNL     1     -30.775   6.166 -25.921  1.00  0.00     0.006 A
HETATM   30  S2  UNL     1     -29.412   5.411 -26.666  1.00  0.00    -0.094 SA
BRANCH  29  31
HETATM   31  C20 UNL     1     -31.279   7.522 -26.235  1.00  0.00     0.063 C
BRANCH  31  32
HETATM   32  C21 UNL     1     -32.736   7.632 -26.487  1.00  0.00     0.119 C
HETATM   33 CL2  UNL     1     -33.327   9.239 -26.890  1.00  0.00    -0.130 Cl
ENDBRANCH  31  32
ENDBRANCH  29  31
ENDBRANCH  24  25
ENDBRANCH   4  21
TORSDOF 7
ENDMDL