MODEL 2
REMARK VINA RESULT: -7.633916831      1.725      1.930
REMARK  8 active torsions:
REMARK  status: ('A' for Active; 'I' for Inactive)
REMARK    1  A    between atoms: O1_2  and  N1_3
REMARK    2  A    between atoms: C2_5  and  C3_6
REMARK    3  A    between atoms: C4_7  and  S1_8
REMARK    4  A    between atoms: S1_8  and  C5_9
REMARK    5  A    between atoms: C9_16  and  C10_17
REMARK    6  A    between atoms: C10_17  and  O2_18
REMARK    7  A    between atoms: C16_30  and  C17_31
REMARK    8  A    between atoms: C17_31  and  O3_34
ROOT
HETATM    1  C5  UNL     1     -28.153  -0.207 -28.954  1.00  0.00     0.052 A
HETATM    2  C6  UNL     1     -27.016   0.201 -29.595  1.00  0.00     0.025 A
HETATM    3  C7  UNL     1     -26.883   1.507 -30.243  1.00  0.00     0.070 C
HETATM    4  N2  UNL     1     -25.957  -0.623 -29.635  1.00  0.00    -0.352 N
ATOM      5  H2  UNL     1     -25.107  -0.322 -30.112  1.00  0.00     0.166 HD
HETATM    6  C8  UNL     1     -25.995  -1.860 -29.049  1.00  0.00     0.089 A
HETATM    7  S2  UNL     1     -24.867  -3.106 -28.921  1.00  0.00    -0.066 SA
HETATM    8  C9  UNL     1     -25.835  -4.278 -27.992  1.00  0.00     0.080 A
HETATM    9  C13 UNL     1     -26.984  -3.590 -27.856  1.00  0.00     0.070 A
HETATM   10 CL1  UNL     1     -28.414  -4.306 -27.032  1.00  0.00    -0.082 Cl
HETATM   11  C14 UNL     1     -27.081  -2.344 -28.393  1.00  0.00     0.044 A
HETATM   12  C15 UNL     1     -28.174  -1.464 -28.363  1.00  0.00     0.068 A
HETATM   13 CL2  UNL     1     -29.688  -1.891 -27.560  1.00  0.00    -0.082 Cl
ENDROOT
BRANCH   1  14
HETATM   14  S1  UNL     1     -29.628   0.739 -28.817  1.00  0.00    -0.068 SA
BRANCH  14  15
HETATM   15  C4  UNL     1     -30.002   1.613 -27.417  1.00  0.00     0.087 A
HETATM   16  C3  UNL     1     -29.428   2.833 -27.016  1.00  0.00     0.023 A
HETATM   17  C20 UNL     1     -30.058   3.218 -25.857  1.00  0.00    -0.022 A
HETATM   18  C16 UNL     1     -30.988   2.276 -25.547  1.00  0.00     0.051 A
HETATM   19  C21 UNL     1     -29.779   4.455 -25.065  1.00  0.00     0.051 C
HETATM   20  N4  UNL     1     -30.936   1.329 -26.491  1.00  0.00    -0.350 N
ATOM     21  H4  UNL     1     -31.529   0.498 -26.507  1.00  0.00     0.166 HD
BRANCH  16  22
HETATM   22  C2  UNL     1     -28.360   3.544 -27.705  1.00  0.00     0.128 C
HETATM   23  N1  UNL     1     -28.661   4.400 -28.619  1.00  0.00    -0.278 N
ATOM     24  H1  UNL     1     -29.649   4.548 -28.828  1.00  0.00     0.193 HD
BRANCH  23  25
HETATM   25  O1  UNL     1     -27.745   5.119 -29.322  1.00  0.00    -0.286 OA
HETATM   26  C1  UNL     1     -27.415   4.839 -30.680  1.00  0.00     0.237 C
ENDBRANCH  23  25
ENDBRANCH  16  22
BRANCH  18  27
HETATM   27  C17 UNL     1     -31.918   2.274 -24.364  1.00  0.00     0.093 C
HETATM   28  C18 UNL     1     -31.160   2.315 -23.061  1.00  0.00     0.052 C
HETATM   29  C19 UNL     1     -32.923   3.396 -24.473  1.00  0.00     0.052 C
BRANCH  27  30
HETATM   30  O3  UNL     1     -32.655   1.084 -24.388  1.00  0.00    -0.384 OA
ATOM     31  H3  UNL     1     -32.748   0.810 -25.293  1.00  0.00     0.211 HD
ENDBRANCH  27  30
ENDBRANCH  18  27
ENDBRANCH  14  15
ENDBRANCH   1  14
BRANCH   8  32
HETATM   32  C10 UNL     1     -25.325  -5.566 -27.639  1.00  0.00     0.156 C
HETATM   33  N3  UNL     1     -25.460  -6.481 -26.654  1.00  0.00    -0.370 N
HETATM   34  C11 UNL     1     -24.672  -7.785 -26.825  1.00  0.00     0.151 C
HETATM   35  C12 UNL     1     -26.181  -6.446 -25.416  1.00  0.00     0.151 C
BRANCH  32  36
HETATM   36  O2  UNL     1     -24.441  -5.990 -28.572  1.00  0.00    -0.345 OA
ATOM     37  H2  UNL     1     -24.073  -6.828 -28.317  1.00  0.00     0.219 HD
ENDBRANCH  32  36
ENDBRANCH   8  32
TORSDOF 8
ENDMDL