MODEL 4
REMARK VINA RESULT: -7.753023449      3.981      5.658
REMARK  8 active torsions:
REMARK  status: ('A' for Active; 'I' for Inactive)
REMARK    1  A    between atoms: C2_2  and  C3_5
REMARK    2  A    between atoms: C6_10  and  C7_11
REMARK    3  A    between atoms: C8_12  and  S1_13
REMARK    4  A    between atoms: S1_13  and  C9_14
REMARK    5  A    between atoms: C14_20  and  N1_21
REMARK    6  A    between atoms: N2_24  and  C15_25
REMARK    7  A    between atoms: C15_25  and  C16_26
REMARK    8  A    between atoms: C16_26  and  C17_27
ROOT
HETATM    1  C7  UNL     1     -27.865  -0.440 -26.229  1.00  0.00     0.067 A
HETATM    2  C8  UNL     1     -27.183  -1.657 -26.282  1.00  0.00     0.070 A
HETATM    3  S2  UNL     1     -26.861  -2.012 -24.650  1.00  0.00    -0.045 SA
HETATM    4  C14 UNL     1     -27.567  -0.670 -23.969  1.00  0.00     0.146 A
HETATM    5  N2  UNL     1     -28.060   0.065 -25.036  1.00  0.00    -0.327 N
ENDROOT
BRANCH   5   6
HETATM    6  C15 UNL     1     -28.740   1.303 -24.574  1.00  0.00     0.136 C
BRANCH   6   7
HETATM    7  C16 UNL     1     -30.098   1.106 -24.062  1.00  0.00     0.059 C
BRANCH   7   8
HETATM    8  C17 UNL     1     -31.008   2.252 -24.379  1.00  0.00    -0.054 A
HETATM    9  C18 UNL     1     -32.371   2.223 -24.359  1.00  0.00     0.009 A
HETATM   10  C19 UNL     1     -33.177   3.306 -24.623  1.00  0.00     0.032 A
HETATM   11  C20 UNL     1     -32.605   4.522 -24.933  1.00  0.00     0.060 A
HETATM   12  N3  UNL     1     -33.162   5.698 -25.217  1.00  0.00    -0.351 N
HETATM   13  C22 UNL     1     -31.237   4.595 -24.963  1.00  0.00     0.060 A
HETATM   14  C21 UNL     1     -32.124   6.554 -25.439  1.00  0.00     0.181 A
ATOM     15  H3  UNL     1     -34.159   5.913 -25.260  1.00  0.00     0.166 HD
HETATM   16  N4  UNL     1     -30.950   5.892 -25.286  1.00  0.00    -0.350 N
ATOM     17  H4  UNL     1     -30.018   6.291 -25.392  1.00  0.00     0.166 HD
HETATM   18  C23 UNL     1     -30.447   3.501 -24.697  1.00  0.00     0.039 A
ENDBRANCH   7   8
ENDBRANCH   6   7
ENDBRANCH   5   6
BRANCH   1  19
HETATM   19  C6  UNL     1     -28.421   0.053 -27.581  1.00  0.00     0.185 C
HETATM   20  C3  UNL     1     -27.761   1.253 -28.110  1.00  0.00     0.083 C
HETATM   21  C4  UNL     1     -28.236   2.582 -27.579  1.00  0.00     0.181 C
HETATM   22  O1  UNL     1     -29.563   2.656 -27.997  1.00  0.00    -0.366 OA
HETATM   23  C5  UNL     1     -30.269   1.554 -27.734  1.00  0.00     0.338 C
HETATM   24  O2  UNL     1     -29.766   0.338 -27.513  1.00  0.00    -0.355 OA
BRANCH  20  25
HETATM   25  C2  UNL     1     -27.503   1.299 -29.585  1.00  0.00     0.118 C
HETATM   26  C1  UNL     1     -26.297   0.425 -29.989  1.00  0.00     0.051 C
HETATM   27 CL1  UNL     1     -28.804   1.080 -30.696  1.00  0.00    -0.102 Cl
HETATM   28 CL2  UNL     1     -26.802   2.955 -30.052  1.00  0.00    -0.102 Cl
ENDBRANCH  20  25
ENDBRANCH   1  19
BRANCH   4  29
HETATM   29  N1  UNL     1     -27.598  -0.439 -22.705  1.00  0.00    -0.379 N
ATOM     30  H12 UNL     1     -27.253  -0.990 -21.918  1.00  0.00     0.158 HD
ATOM     31  H11 UNL     1     -28.011   0.395 -22.288  1.00  0.00     0.158 HD
ENDBRANCH   4  29
BRANCH   2  32
HETATM   32  S1  UNL     1     -26.691  -2.639 -27.716  1.00  0.00    -0.116 SA
BRANCH  32  33
HETATM   33  C9  UNL     1     -26.565  -4.341 -27.328  1.00  0.00     0.053 C
HETATM   34  C10 UNL     1     -26.018  -5.172 -28.480  1.00  0.00     0.015 C
HETATM   35  C11 UNL     1     -26.304  -6.611 -28.076  1.00  0.00     0.001 C
HETATM   36  C12 UNL     1     -27.360  -6.572 -26.998  1.00  0.00     0.001 C
HETATM   37  C13 UNL     1     -27.799  -5.108 -26.984  1.00  0.00     0.015 C
ENDBRANCH  32  33
ENDBRANCH   2  32
TORSDOF 8
ENDMDL