MODEL 3
REMARK VINA RESULT: -7.973203126      0.062      1.432
REMARK  9 active torsions:
REMARK  status: ('A' for Active; 'I' for Inactive)
REMARK    1  A    between atoms: C2_2  and  O2_4
REMARK    2  A    between atoms: O2_4  and  C3_5
REMARK    3  A    between atoms: C7_9  and  C8_10
REMARK    4  A    between atoms: C9_13  and  C10_14
REMARK    5  A    between atoms: C10_14  and  C11_15
REMARK    6  A    between atoms: C10_14  and  C20_28
REMARK    7  A    between atoms: C13_17  and  C14_18
REMARK    8  A    between atoms: C20_28  and  O4_29
REMARK    9  A    between atoms: C20_28  and  C21_31
ROOT
HETATM    1  C10 UNL     1     -26.143  -9.102 -27.498  1.00  0.00     0.091 C
ENDROOT
BRANCH   1   2
HETATM    2  C9  UNL     1     -26.776  -7.743 -27.674  1.00  0.00     0.099 C
HETATM    3  N1  UNL     1     -26.004  -6.766 -28.264  1.00  0.00    -0.399 N
HETATM    4  C8  UNL     1     -25.550  -5.702 -27.492  1.00  0.00     0.173 C
ATOM      5  H1  UNL     1     -25.767  -6.823 -29.255  1.00  0.00     0.155 HD
HETATM    6  S1  UNL     1     -26.293  -5.995 -25.856  1.00  0.00    -0.137 SA
HETATM    7  C23 UNL     1     -27.472  -7.281 -26.414  1.00  0.00     0.102 C
BRANCH   4   8
HETATM    8  C7  UNL     1     -26.110  -4.386 -27.962  1.00  0.00    -0.025 A
HETATM    9  C6  UNL     1     -27.359  -3.961 -27.569  1.00  0.00     0.019 A
HETATM   10  C4  UNL     1     -27.896  -2.761 -27.984  1.00  0.00    -0.027 A
HETATM   11  C3  UNL     1     -27.147  -1.940 -28.836  1.00  0.00     0.091 A
HETATM   12  C5  UNL     1     -29.236  -2.331 -27.548  1.00  0.00     0.051 C
HETATM   13  C25 UNL     1     -25.893  -2.348 -29.241  1.00  0.00    -0.027 A
HETATM   14  C24 UNL     1     -25.381  -3.574 -28.799  1.00  0.00     0.019 A
HETATM   15  C26 UNL     1     -25.116  -1.464 -30.144  1.00  0.00     0.051 C
BRANCH  11  16
HETATM   16  O2  UNL     1     -27.627  -0.721 -29.291  1.00  0.00    -0.278 OA
BRANCH  16  17
HETATM   17  C2  UNL     1     -27.316   0.474 -28.678  1.00  0.00     0.260 C
HETATM   18  C1  UNL     1     -27.325   0.688 -27.213  1.00  0.00     0.126 C
HETATM   19  O1  UNL     1     -27.003   1.453 -29.399  1.00  0.00    -0.265 OA
ENDBRANCH  16  17
ENDBRANCH  11  16
ENDBRANCH   4   8
ENDBRANCH   1   2
BRANCH   1  20
HETATM   20  C11 UNL     1     -24.855  -9.064 -26.758  1.00  0.00     0.044 A
HETATM   21  C12 UNL     1     -24.591  -9.501 -25.470  1.00  0.00     0.067 A
HETATM   22  C13 UNL     1     -23.272  -9.275 -25.207  1.00  0.00     0.109 A
HETATM   23  O3  UNL     1     -22.785  -8.733 -26.291  1.00  0.00    -0.237 OA
HETATM   24  N2  UNL     1     -23.681  -8.597 -27.211  1.00  0.00    -0.264 N
ATOM     25  H2  UNL     1     -23.522  -8.198 -28.136  1.00  0.00     0.194 HD
BRANCH  22  26
HETATM   26  C14 UNL     1     -22.584  -9.591 -23.957  1.00  0.00     0.008 C
HETATM   27  C15 UNL     1     -22.359  -8.624 -23.094  1.00  0.00    -0.014 C
HETATM   28  C16 UNL     1     -21.668  -8.866 -21.804  1.00  0.00     0.028 C
HETATM   29  C17 UNL     1     -20.637  -9.933 -22.029  1.00  0.00     0.007 C
HETATM   30  C18 UNL     1     -21.219 -11.195 -22.604  1.00  0.00     0.042 C
HETATM   31  C19 UNL     1     -22.175 -10.982 -23.723  1.00  0.00     0.205 C
HETATM   32  F1  UNL     1     -23.306 -11.770 -23.623  1.00  0.00    -0.244 F
ENDBRANCH  22  26
ENDBRANCH   1  20
BRANCH   1  33
HETATM   33  C20 UNL     1     -25.944  -9.843 -28.774  1.00  0.00     0.148 C
BRANCH  33  34
HETATM   34  O4  UNL     1     -26.720  -9.381 -29.820  1.00  0.00    -0.393 OA
ATOM     35  H4  UNL     1     -27.652  -9.520 -29.701  1.00  0.00     0.210 HD
ENDBRANCH  33  34
BRANCH  33  36
HETATM   36  C21 UNL     1     -26.278 -11.306 -28.570  1.00  0.00     0.107 C
HETATM   37  C22 UNL     1     -27.294 -11.518 -27.479  1.00  0.00     0.029 C
HETATM   38 CL1  UNL     1     -24.847 -12.286 -28.253  1.00  0.00    -0.123 Cl
ENDBRANCH  33  36
ENDBRANCH   1  33
TORSDOF 9
ENDMDL