MODEL 5
REMARK VINA RESULT: -8.107139664      1.843      2.416
REMARK  6 active torsions:
REMARK  status: ('A' for Active; 'I' for Inactive)
REMARK    1  A    between atoms: C2_2  and  C3_3
REMARK    2  A    between atoms: C3_3  and  C4_4
REMARK    3  A    between atoms: C4_4  and  C5_5
REMARK    4  A    between atoms: C10_11  and  C11_12
REMARK    5  A    between atoms: C15_19  and  N1_20
REMARK    6  A    between atoms: N4_29  and  C18_30
ROOT
HETATM    1  C1  UNL     1     -88.063 -18.785  11.509  1.00  0.00     0.024 C
HETATM    2  C2  UNL     1     -88.197 -17.330  11.985  1.00  0.00     0.023 C
HETATM    3  C9  UNL     1     -86.795 -16.833  12.216  1.00  0.00     0.037 C
HETATM    4  C10 UNL     1     -86.155 -15.987  11.205  1.00  0.00     0.145 C
HETATM    5  C12 UNL     1     -86.700 -16.031   9.841  1.00  0.00     0.041 A
HETATM    6  C13 UNL     1     -88.079 -16.290   9.718  1.00  0.00     0.052 A
HETATM    7  C14 UNL     1     -88.372 -16.267   8.403  1.00  0.00     0.068 A
HETATM    8  C15 UNL     1     -89.544 -16.449   7.715  1.00  0.00     0.114 A
HETATM    9  N2  UNL     1     -89.511 -16.358   6.378  1.00  0.00    -0.338 N
ATOM     10  H2  UNL     1     -90.375 -16.491   5.854  1.00  0.00     0.168 HD
HETATM   11  C16 UNL     1     -88.376 -16.098   5.707  1.00  0.00     0.183 A
HETATM   12  N3  UNL     1     -87.238 -15.924   6.397  1.00  0.00    -0.338 N
ATOM     13  H3  UNL     1     -86.381 -15.727   5.880  1.00  0.00     0.168 HD
HETATM   14  C17 UNL     1     -87.176 -15.995   7.723  1.00  0.00     0.124 A
HETATM   15  N4  UNL     1     -86.181 -15.859   8.634  1.00  0.00    -0.330 N
HETATM   16  C24 UNL     1     -88.851 -16.527  10.942  1.00  0.00     0.171 C
HETATM   17  O1  UNL     1     -89.981 -16.030  10.996  1.00  0.00    -0.291 OA
ENDROOT
BRANCH   2  18
HETATM   18  C3  UNL     1     -88.899 -17.284  13.316  1.00  0.00     0.022 C
BRANCH  18  19
HETATM   19  C4  UNL     1     -88.657 -16.082  14.146  1.00  0.00     0.040 C
BRANCH  19  20
HETATM   20  C5  UNL     1     -88.140 -16.468  15.524  1.00  0.00    -0.051 A
HETATM   21  C6  UNL     1     -88.514 -17.582  16.164  1.00  0.00     0.014 A
HETATM   22  C7  UNL     1     -87.974 -17.811  17.401  1.00  0.00     0.050 A
HETATM   23  S1  UNL     1     -86.959 -16.461  17.629  1.00  0.00    -0.113 SA
HETATM   24  C8  UNL     1     -87.247 -15.648  16.157  1.00  0.00     0.056 A
ENDBRANCH  19  20
ENDBRANCH  18  19
ENDBRANCH   2  18
BRANCH   4  25
HETATM   25  C11 UNL     1     -86.128 -14.557  11.771  1.00  0.00     0.396 C
HETATM   26  F1  UNL     1     -85.058 -13.861  11.181  1.00  0.00    -0.170 F
HETATM   27  F2  UNL     1     -87.245 -13.836  11.461  1.00  0.00    -0.170 F
HETATM   28  F3  UNL     1     -85.852 -14.536  13.121  1.00  0.00    -0.170 F
ENDBRANCH   4  25
BRANCH  15  29
HETATM   29  C18 UNL     1     -84.788 -15.588   8.237  1.00  0.00     0.091 C
HETATM   30  C19 UNL     1     -84.656 -14.902   6.935  1.00  0.00     0.026 C
HETATM   31  C20 UNL     1     -83.819 -15.565   5.910  1.00  0.00     0.002 C
HETATM   32  C21 UNL     1     -82.659 -16.351   6.399  1.00  0.00     0.000 C
HETATM   33  C22 UNL     1     -82.604 -16.592   7.870  1.00  0.00     0.002 C
HETATM   34  C23 UNL     1     -84.029 -16.895   8.322  1.00  0.00     0.026 C
ENDBRANCH  15  29
BRANCH   8  35
HETATM   35  N1  UNL     1     -90.658 -16.706   8.282  1.00  0.00    -0.385 N
ATOM     36  H12 UNL     1     -91.131 -17.581   8.052  1.00  0.00     0.157 HD
ATOM     37  H11 UNL     1     -91.100 -16.085   8.959  1.00  0.00     0.157 HD
ENDBRANCH   8  35
TORSDOF 6
ENDMDL