MODEL 2
REMARK VINA RESULT: -8.128526441      0.765      1.396
REMARK  6 active torsions:
REMARK  status: ('A' for Active; 'I' for Inactive)
REMARK    1  A    between atoms: C2_2  and  O1_3
REMARK    2  A    between atoms: O1_3  and  C3_4
REMARK    3  A    between atoms: C3_4  and  C4_6
REMARK    4  A    between atoms: C5_7  and  C6_8
REMARK       I    between atoms: C6_8  and  N1_10
REMARK       I    between atoms: N1_10  and  C7_12
REMARK       I    between atoms: C7_12  and  N2_14
REMARK    5  A    between atoms: N2_14  and  C8_16
REMARK    6  A    between atoms: C14_22  and  C15_23
ROOT
HETATM    1  C6  UNL     1     -86.304 -17.258  10.856  1.00  0.00     0.267 C
HETATM    2  O3  UNL     1     -86.253 -18.195   9.990  1.00  0.00    -0.267 OA
HETATM    3  N1  UNL     1     -85.596 -16.107  10.628  1.00  0.00    -0.274 N
ATOM      4  H1  UNL     1     -85.662 -15.385  11.345  1.00  0.00     0.173 HD
HETATM    5  C7  UNL     1     -84.787 -15.811   9.515  1.00  0.00     0.327 C
HETATM    6  O4  UNL     1     -84.237 -14.647   9.562  1.00  0.00    -0.247 OA
HETATM    7  N2  UNL     1     -84.547 -16.622   8.425  1.00  0.00    -0.308 N
ATOM      8  H2  UNL     1     -85.015 -17.528   8.437  1.00  0.00     0.170 HD
ENDROOT
BRANCH   1   9
HETATM    9  C5  UNL     1     -87.158 -17.568  12.031  1.00  0.00     0.090 A
HETATM   10  C4  UNL     1     -88.372 -17.181  12.447  1.00  0.00     0.069 A
HETATM   11  C17 UNL     1     -88.844 -17.700  13.622  1.00  0.00    -0.023 A
HETATM   12  C16 UNL     1     -88.045 -18.575  14.282  1.00  0.00    -0.005 A
HETATM   13  C18 UNL     1     -90.159 -17.473  14.365  1.00  0.00     0.021 C
HETATM   14  S1  UNL     1     -86.676 -18.676  13.304  1.00  0.00    -0.087 SA
HETATM   15  C21 UNL     1     -88.587 -19.132  15.571  1.00  0.00     0.026 C
HETATM   16  C20 UNL     1     -89.890 -19.806  15.193  1.00  0.00     0.010 C
HETATM   17  C22 UNL     1     -88.964 -17.975  16.502  1.00  0.00     0.010 C
HETATM   18  C19 UNL     1     -90.800 -18.833  14.502  1.00  0.00     0.010 C
HETATM   19  C23 UNL     1     -89.756 -16.966  15.734  1.00  0.00     0.010 C
BRANCH  10  20
HETATM   20  C3  UNL     1     -89.241 -16.214  11.692  1.00  0.00     0.295 C
HETATM   21  O2  UNL     1     -90.297 -16.620  11.144  1.00  0.00    -0.259 OA
BRANCH  20  22
HETATM   22  O1  UNL     1     -88.911 -14.879  11.584  1.00  0.00    -0.318 OA
BRANCH  22  23
HETATM   23  C2  UNL     1     -88.330 -14.210  12.699  1.00  0.00     0.174 C
HETATM   24  C1  UNL     1     -87.979 -12.792  12.303  1.00  0.00     0.034 C
ENDBRANCH  22  23
ENDBRANCH  20  22
ENDBRANCH  10  20
ENDBRANCH   1   9
BRANCH   7  25
HETATM   25  C8  UNL     1     -83.726 -16.363   7.278  1.00  0.00     0.051 A
HETATM   26  C9  UNL     1     -82.357 -16.489   7.298  1.00  0.00     0.037 A
HETATM   27  C10 UNL     1     -81.548 -16.264   6.173  1.00  0.00    -0.060 A
HETATM   28  C11 UNL     1     -80.063 -16.413   6.240  1.00  0.00     0.048 C
HETATM   29  C12 UNL     1     -82.169 -15.901   5.008  1.00  0.00     0.007 A
HETATM   30  C13 UNL     1     -83.531 -15.768   4.956  1.00  0.00     0.019 A
HETATM   31  C14 UNL     1     -84.329 -15.997   6.095  1.00  0.00     0.074 A
BRANCH  31  32
HETATM   32  C15 UNL     1     -85.788 -15.825   5.996  1.00  0.00     0.419 C
HETATM   33  F1  UNL     1     -86.258 -14.723   6.682  1.00  0.00    -0.166 F
HETATM   34  F2  UNL     1     -86.506 -16.983   6.266  1.00  0.00    -0.166 F
HETATM   35  F3  UNL     1     -86.076 -15.520   4.641  1.00  0.00    -0.166 F
ENDBRANCH  31  32
ENDBRANCH   7  25
TORSDOF 6
ENDMDL