MODEL 2
REMARK VINA RESULT: -8.418813923      0.427      1.715
REMARK  6 active torsions:
REMARK  status: ('A' for Active; 'I' for Inactive)
REMARK    1  A    between atoms: C6_6  and  S1_7
REMARK    2  A    between atoms: S1_7  and  C7_8
REMARK    3  A    between atoms: C11_14  and  C12_15
REMARK    4  A    between atoms: C12_15  and  C13_16
REMARK    5  A    between atoms: C16_20  and  O2_21
REMARK    6  A    between atoms: C21_29  and  O4_30
ROOT
HETATM    1  C7  UNL     1     -87.854 -17.128   8.759  1.00  0.00     0.077 A
HETATM    2  C8  UNL     1     -89.093 -16.698   8.781  1.00  0.00     0.104 A
HETATM    3 CL1  UNL     1     -89.991 -16.219   7.366  1.00  0.00    -0.078 Cl
HETATM    4  C9  UNL     1     -89.818 -16.590  10.069  1.00  0.00     0.195 A
HETATM    5  O1  UNL     1     -90.996 -16.177  10.047  1.00  0.00    -0.287 OA
HETATM    6  C10 UNL     1     -89.218 -16.941  11.325  1.00  0.00     0.068 A
HETATM    7  C11 UNL     1     -87.986 -17.369  11.329  1.00  0.00     0.002 A
HETATM    8  C19 UNL     1     -87.263 -17.483  10.097  1.00  0.00     0.197 A
HETATM    9  O3  UNL     1     -86.082 -17.892  10.084  1.00  0.00    -0.286 OA
ENDROOT
BRANCH   1  10
HETATM   10  S1  UNL     1     -86.861 -17.314   7.380  1.00  0.00    -0.119 SA
BRANCH  10  11
HETATM   11  C6  UNL     1     -85.368 -16.628   6.987  1.00  0.00     0.055 C
HETATM   12  C5  UNL     1     -84.551 -15.886   8.024  1.00  0.00     0.016 C
HETATM   13  C4  UNL     1     -83.072 -16.265   7.734  1.00  0.00     0.012 C
HETATM   14  C2  UNL     1     -82.768 -15.662   6.396  1.00  0.00    -0.022 C
HETATM   15  C1  UNL     1     -81.780 -14.512   6.639  1.00  0.00     0.017 C
HETATM   16  C3  UNL     1     -82.006 -16.680   5.576  1.00  0.00     0.017 C
HETATM   17  C21 UNL     1     -83.926 -15.076   5.665  1.00  0.00     0.127 C
HETATM   18  C20 UNL     1     -85.173 -15.912   5.659  1.00  0.00     0.048 C
BRANCH  17  19
HETATM   19  O4  UNL     1     -83.539 -14.959   4.306  1.00  0.00    -0.395 OA
ATOM     20  H4  UNL     1     -83.194 -15.804   4.042  1.00  0.00     0.210 HD
ENDBRANCH  17  19
ENDBRANCH  10  11
ENDBRANCH   1  10
BRANCH   7  21
HETATM   21  C12 UNL     1     -87.349 -17.738  12.629  1.00  0.00     0.081 C
BRANCH  21  22
HETATM   22  C13 UNL     1     -88.300 -18.437  13.508  1.00  0.00    -0.050 A
HETATM   23  C14 UNL     1     -88.377 -19.818  13.552  1.00  0.00     0.034 A
HETATM   24  C15 UNL     1     -89.272 -20.472  14.373  1.00  0.00     0.069 A
HETATM   25 CL2  UNL     1     -89.327 -22.222  14.389  1.00  0.00    -0.081 Cl
HETATM   26  C16 UNL     1     -90.138 -19.769  15.195  1.00  0.00     0.109 A
HETATM   27  C17 UNL     1     -90.073 -18.396  15.163  1.00  0.00     0.069 A
HETATM   28 CL3  UNL     1     -91.158 -17.493  16.193  1.00  0.00    -0.081 Cl
HETATM   29  C18 UNL     1     -89.178 -17.743  14.341  1.00  0.00     0.034 A
BRANCH  26  30
HETATM   30  O2  UNL     1     -91.037 -20.445  16.019  1.00  0.00    -0.357 OA
ATOM     31  H2  UNL     1     -91.572 -19.967  16.641  1.00  0.00     0.217 HD
ENDBRANCH  26  30
ENDBRANCH  21  22
ENDBRANCH   7  21
TORSDOF 6
ENDMDL