MODEL 4
REMARK VINA RESULT: -8.057738120      3.668      8.577
REMARK  8 active torsions:
REMARK  status: ('A' for Active; 'I' for Inactive)
REMARK    1  A    between atoms: C2_2  and  C3_3
REMARK    2  A    between atoms: C2_2  and  C6_11
REMARK    3  A    between atoms: C3_3  and  O1_4
REMARK    4  A    between atoms: O1_4  and  C4_5
REMARK    5  A    between atoms: C4_5  and  C5_7
REMARK    6  A    between atoms: C15_23  and  O3_24
REMARK    7  A    between atoms: C19_29  and  C21_31
REMARK    8  A    between atoms: C21_31  and  O4_32
ROOT
HETATM    1  C6  UNL     1     -88.334 -16.425   8.291  1.00  0.00     0.053 C
HETATM    2  C7  UNL     1     -88.821 -16.042   6.953  1.00  0.00     0.008 C
HETATM    3  N1  UNL     1     -89.994 -16.140   6.420  1.00  0.00    -0.402 N
ATOM      4  H11 UNL     1     -90.331 -15.875   5.494  1.00  0.00     0.156 HD
ATOM      5  H12 UNL     1     -90.820 -16.516   6.885  1.00  0.00     0.156 HD
HETATM    6  C8  UNL     1     -87.620 -15.495   6.276  1.00  0.00     0.031 C
HETATM    7  C9  UNL     1     -86.510 -15.912   6.854  1.00  0.00    -0.035 C
HETATM    8  C10 UNL     1     -86.904 -16.805   8.007  1.00  0.00    -0.008 C
HETATM    9  C11 UNL     1     -86.766 -18.243   7.687  1.00  0.00     0.021 C
HETATM   10  C12 UNL     1     -86.067 -16.457   9.214  1.00  0.00     0.015 C
HETATM   11  C13 UNL     1     -84.940 -15.483   8.906  1.00  0.00     0.010 C
HETATM   12  C14 UNL     1     -84.233 -15.961   7.690  1.00  0.00     0.033 C
HETATM   13  C15 UNL     1     -85.108 -15.616   6.507  1.00  0.00     0.086 C
HETATM   14  C16 UNL     1     -84.565 -16.447   5.389  1.00  0.00     0.043 C
HETATM   15  C17 UNL     1     -83.204 -15.798   5.073  1.00  0.00     0.009 C
HETATM   16  C18 UNL     1     -82.244 -15.932   6.236  1.00  0.00     0.004 C
HETATM   17  C19 UNL     1     -80.953 -15.312   5.854  1.00  0.00    -0.018 C
HETATM   18  C20 UNL     1     -79.816 -16.339   5.922  1.00  0.00     0.018 C
HETATM   19  C22 UNL     1     -80.509 -14.125   6.638  1.00  0.00     0.012 C
HETATM   20  C23 UNL     1     -81.055 -13.981   8.004  1.00  0.00     0.002 C
HETATM   21  C24 UNL     1     -82.577 -14.081   7.899  1.00  0.00     0.010 C
HETATM   22  C25 UNL     1     -82.813 -15.532   7.552  1.00  0.00    -0.033 C
HETATM   23  C26 UNL     1     -82.057 -16.311   8.648  1.00  0.00     0.016 C
ENDROOT
BRANCH   1  24
HETATM   24  C2  UNL     1     -89.199 -17.433   8.920  1.00  0.00     0.017 C
HETATM   25  C1  UNL     1     -88.406 -18.336   9.886  1.00  0.00     0.013 C
BRANCH  24  26
HETATM   26  C3  UNL     1     -90.139 -16.707   9.919  1.00  0.00     0.184 C
BRANCH  26  27
HETATM   27  O1  UNL     1     -89.821 -17.199  11.244  1.00  0.00    -0.314 OA
BRANCH  27  28
HETATM   28  C4  UNL     1     -89.717 -16.280  12.273  1.00  0.00     0.367 C
HETATM   29  O2  UNL     1     -90.659 -16.198  13.097  1.00  0.00    -0.255 OA
BRANCH  28  30
HETATM   30  C5  UNL     1     -88.551 -15.383  12.458  1.00  0.00     0.479 C
HETATM   31  F1  UNL     1     -87.421 -16.204  12.397  1.00  0.00    -0.162 F
HETATM   32  F2  UNL     1     -88.656 -14.773  13.695  1.00  0.00    -0.162 F
HETATM   33  F3  UNL     1     -88.443 -14.491  11.435  1.00  0.00    -0.162 F
ENDBRANCH  28  30
ENDBRANCH  27  28
ENDBRANCH  26  27
ENDBRANCH  24  26
ENDBRANCH   1  24
BRANCH  13  34
HETATM   34  O3  UNL     1     -84.930 -14.279   6.113  1.00  0.00    -0.385 OA
ATOM     35  H3  UNL     1     -85.099 -13.671   6.823  1.00  0.00     0.211 HD
ENDBRANCH  13  34
BRANCH  17  36
HETATM   36  C21 UNL     1     -80.932 -14.839   4.387  1.00  0.00     0.173 C
BRANCH  36  37
HETATM   37  O4  UNL     1     -80.753 -13.446   4.405  1.00  0.00    -0.400 OA
ATOM     38  H4  UNL     1     -79.817 -13.285   4.439  1.00  0.00     0.209 HD
ENDBRANCH  36  37
ENDBRANCH  17  36
TORSDOF 8
ENDMDL