MODEL 5
REMARK VINA RESULT: -8.375236040      2.763      3.903
REMARK  7 active torsions:
REMARK  status: ('A' for Active; 'I' for Inactive)
REMARK    1  A    between atoms: C3_3  and  N1_4
REMARK    2  A    between atoms: C7_9  and  C8_10
REMARK    3  A    between atoms: C8_10  and  O2_13
REMARK    4  A    between atoms: C12_18  and  C13_19
REMARK    5  A    between atoms: C14_25  and  N4_26
REMARK    6  A    between atoms: N4_26  and  C15_28
REMARK    7  A    between atoms: C18_31  and  C19_32
ROOT
HETATM    1  C1  UNL     1     -88.207 -18.961  13.548  1.00  0.00     0.056 C
HETATM    2  C2  UNL     1     -88.222 -17.503  13.380  1.00  0.00     0.026 A
HETATM    3  C3  UNL     1     -87.826 -16.724  14.431  1.00  0.00     0.114 A
HETATM    4  N2  UNL     1     -87.854 -15.368  14.317  1.00  0.00    -0.324 N
ATOM      5  H2  UNL     1     -87.557 -14.798  15.109  1.00  0.00     0.169 HD
HETATM    6  C12 UNL     1     -88.254 -14.768  13.212  1.00  0.00     0.193 A
HETATM    7  N3  UNL     1     -88.637 -15.556  12.192  1.00  0.00    -0.324 N
ATOM      8  H3  UNL     1     -88.946 -15.098  11.334  1.00  0.00     0.169 HD
HETATM    9  C14 UNL     1     -88.643 -16.880  12.212  1.00  0.00     0.117 A
ENDROOT
BRANCH   9  10
HETATM   10  N4  UNL     1     -89.001 -17.574  11.197  1.00  0.00    -0.342 N
ATOM     11  H4  UNL     1     -89.784 -18.223  11.274  1.00  0.00     0.167 HD
BRANCH  10  12
HETATM   12  C15 UNL     1     -88.298 -17.437   9.946  1.00  0.00     0.033 A
HETATM   13  C16 UNL     1     -88.976 -16.954   8.833  1.00  0.00     0.030 A
HETATM   14  C17 UNL     1     -88.365 -16.752   7.628  1.00  0.00     0.010 A
HETATM   15  C18 UNL     1     -87.008 -17.032   7.493  1.00  0.00    -0.054 A
HETATM   16  C24 UNL     1     -86.324 -17.514   8.591  1.00  0.00     0.010 A
HETATM   17  C25 UNL     1     -86.972 -17.710   9.796  1.00  0.00     0.030 A
BRANCH  15  18
HETATM   18  C19 UNL     1     -86.389 -16.731   6.189  1.00  0.00     0.018 C
HETATM   19  C20 UNL     1     -84.932 -16.349   6.469  1.00  0.00     0.009 C
HETATM   20  C21 UNL     1     -84.844 -14.842   6.319  1.00  0.00     0.001 C
HETATM   21  C22 UNL     1     -86.248 -14.374   6.104  1.00  0.00     0.001 C
HETATM   22  C23 UNL     1     -86.918 -15.557   5.468  1.00  0.00     0.009 C
ENDBRANCH  15  18
ENDBRANCH  10  12
ENDBRANCH   9  10
BRANCH   3  23
HETATM   23  N1  UNL     1     -87.360 -17.217  15.688  1.00  0.00    -0.364 N
HETATM   24  C4  UNL     1     -88.402 -17.331  16.643  1.00  0.00     0.126 C
HETATM   25  C5  UNL     1     -88.038 -17.808  18.005  1.00  0.00     0.046 C
HETATM   26  C6  UNL     1     -86.916 -17.080  18.653  1.00  0.00     0.170 C
HETATM   27  O1  UNL     1     -85.804 -16.840  17.867  1.00  0.00    -0.381 OA
HETATM   28  C7  UNL     1     -85.492 -17.912  17.033  1.00  0.00     0.172 C
HETATM   29  C11 UNL     1     -85.932 -17.482  15.648  1.00  0.00     0.159 C
BRANCH  28  30
HETATM   30  C8  UNL     1     -84.053 -18.300  17.096  1.00  0.00     0.078 C
HETATM   31  C9  UNL     1     -83.123 -17.184  17.507  1.00  0.00     0.048 C
HETATM   32  C10 UNL     1     -83.940 -19.407  18.144  1.00  0.00     0.048 C
BRANCH  30  33
HETATM   33  O2  UNL     1     -83.667 -18.789  15.850  1.00  0.00    -0.388 OA
ATOM     34  H2  UNL     1     -83.119 -19.554  15.979  1.00  0.00     0.210 HD
ENDBRANCH  30  33
ENDBRANCH  28  30
ENDBRANCH   3  23
BRANCH   6  35
HETATM   35  C13 UNL     1     -88.290 -13.294  12.982  1.00  0.00     0.449 C
HETATM   36  F1  UNL     1     -87.019 -12.761  13.263  1.00  0.00    -0.163 F
HETATM   37  F2  UNL     1     -88.581 -13.051  11.678  1.00  0.00    -0.163 F
HETATM   38  F3  UNL     1     -89.181 -12.671  13.816  1.00  0.00    -0.163 F
ENDBRANCH   6  35
TORSDOF 7
ENDMDL