MODEL 5
REMARK VINA RESULT: -7.732460478      2.047      3.134
REMARK  6 active torsions:
REMARK  status: ('A' for Active; 'I' for Inactive)
REMARK    1  A    between atoms: O1_2  and  C2_3
REMARK    2  A    between atoms: C4_5  and  O2_6
REMARK    3  A    between atoms: C6_9  and  C7_10
REMARK    4  A    between atoms: C12_16  and  C13_17
REMARK    5  A    between atoms: C18_25  and  C19_26
REMARK    6  A    between atoms: C18_25  and  C22_29
ROOT
HETATM    1  C7  UNL     1     -87.277 -17.308   9.672  1.00  0.00     0.033 C
HETATM    2  C8  UNL     1     -87.592 -16.554  10.738  1.00  0.00     0.048 C
HETATM    3  S1  UNL     1     -87.698 -14.779  10.764  1.00  0.00    -0.116 SA
HETATM    4  C9  UNL     1     -87.365 -14.651  12.594  1.00  0.00     0.020 C
HETATM    5  C10 UNL     1     -86.039 -14.000  12.648  1.00  0.00     0.028 C
HETATM    6  C11 UNL     1     -88.431 -13.648  13.051  1.00  0.00     0.028 C
HETATM    7  C12 UNL     1     -87.539 -16.001  13.167  1.00  0.00     0.111 C
HETATM    8  C23 UNL     1     -87.918 -16.925  12.057  1.00  0.00     0.175 C
HETATM    9  O3  UNL     1     -88.525 -18.021  12.355  1.00  0.00    -0.291 OA
ENDROOT
BRANCH   7  10
HETATM   10  C13 UNL     1     -86.400 -16.579  13.953  1.00  0.00    -0.023 C
HETATM   11  C14 UNL     1     -85.340 -17.048  13.209  1.00  0.00     0.017 C
HETATM   12  C15 UNL     1     -84.260 -17.595  14.046  1.00  0.00     0.138 C
HETATM   13  C16 UNL     1     -83.040 -16.697  13.938  1.00  0.00     0.050 C
HETATM   14  C17 UNL     1     -83.855 -18.977  13.585  1.00  0.00     0.050 C
HETATM   15  N1  UNL     1     -84.809 -17.659  15.336  1.00  0.00    -0.042 N
HETATM   16  C18 UNL     1     -86.087 -16.986  15.315  1.00  0.00     0.249 C
ATOM     17  H12 UNL     1     -84.873 -18.613  15.690  1.00  0.00     0.280 HD
ATOM     18  H11 UNL     1     -84.181 -17.289  16.050  1.00  0.00     0.280 HD
BRANCH  16  19
HETATM   19  C19 UNL     1     -86.111 -16.087  16.470  1.00  0.00     0.027 C
HETATM   20  C20 UNL     1     -85.930 -14.608  16.073  1.00  0.00     0.012 C
HETATM   21  C21 UNL     1     -84.935 -16.227  17.450  1.00  0.00     0.012 C
ENDBRANCH  16  19
BRANCH  16  22
HETATM   22  C22 UNL     1     -87.072 -18.177  15.631  1.00  0.00     0.425 C
HETATM   23  F1  UNL     1     -87.074 -19.112  14.671  1.00  0.00    -0.168 F
HETATM   24  F2  UNL     1     -88.280 -17.683  15.889  1.00  0.00    -0.168 F
HETATM   25  F3  UNL     1     -86.582 -18.696  16.846  1.00  0.00    -0.168 F
ENDBRANCH  16  22
ENDBRANCH   7  10
BRANCH   1  26
HETATM   26  C6  UNL     1     -86.993 -16.663   8.409  1.00  0.00    -0.029 A
HETATM   27  C5  UNL     1     -88.053 -16.475   7.520  1.00  0.00     0.048 A
HETATM   28  C4  UNL     1     -87.858 -15.886   6.294  1.00  0.00     0.069 A
HETATM   29  C3  UNL     1     -86.593 -15.458   5.906  1.00  0.00     0.073 A
HETATM   30  C2  UNL     1     -85.548 -15.635   6.764  1.00  0.00     0.071 A
HETATM   31  C24 UNL     1     -85.750 -16.230   7.999  1.00  0.00     0.048 A
BRANCH  28  32
HETATM   32  O2  UNL     1     -88.943 -15.716   5.435  1.00  0.00    -0.361 OA
ATOM     33  H2  UNL     1     -88.958 -14.983   4.831  1.00  0.00     0.217 HD
ENDBRANCH  28  32
BRANCH  30  34
HETATM   34  O1  UNL     1     -84.251 -15.216   6.405  1.00  0.00    -0.356 OA
HETATM   35  C1  UNL     1     -83.836 -15.271   5.047  1.00  0.00     0.210 C
ENDBRANCH  30  34
ENDBRANCH   1  26
TORSDOF 6
ENDMDL