MODEL 2
REMARK VINA RESULT: -8.384696962      0.160      1.293
REMARK  6 active torsions:
REMARK  status: ('A' for Active; 'I' for Inactive)
REMARK    1  A    between atoms: C3_5  and  N2_6
REMARK    2  A    between atoms: N2_6  and  C4_8
REMARK    3  A    between atoms: C7_12  and  C8_13
REMARK    4  A    between atoms: C9_16  and  C10_17
REMARK    5  A    between atoms: C11_21  and  N4_22
REMARK       I    between atoms: N4_22  and  C12_24
REMARK    6  A    between atoms: C12_24  and  C13_26
ROOT
HETATM    1  C8  UNL     1     -87.238 -16.264   9.832  1.00  0.00     0.096 A
HETATM    2  N3  UNL     1     -87.583 -16.128   8.590  1.00  0.00    -0.343 N
ATOM      3  H3  UNL     1     -88.573 -16.075   8.352  1.00  0.00     0.166 HD
HETATM    4  C9  UNL     1     -86.692 -16.056   7.636  1.00  0.00     0.151 A
HETATM    5  C11 UNL     1     -85.381 -16.128   7.961  1.00  0.00     0.110 A
HETATM    6  S2  UNL     1     -85.558 -16.304   9.736  1.00  0.00    -0.051 SA
ENDROOT
BRANCH   5   7
HETATM    7  N4  UNL     1     -84.130 -16.099   7.338  1.00  0.00    -0.319 N
HETATM    8  C12 UNL     1     -83.549 -15.822   6.138  1.00  0.00     0.231 C
HETATM    9  O1  UNL     1     -84.049 -15.454   5.076  1.00  0.00    -0.272 OA
ATOM     10  H4  UNL     1     -83.412 -16.379   8.006  1.00  0.00     0.169 HD
BRANCH   8  11
HETATM   11  C13 UNL     1     -82.029 -15.974   6.027  1.00  0.00     0.042 C
HETATM   12  C14 UNL     1     -81.385 -14.637   5.869  1.00  0.00     0.024 C
HETATM   13  C15 UNL     1     -79.904 -14.827   5.587  1.00  0.00    -0.013 C
HETATM   14  C16 UNL     1     -79.752 -15.666   4.355  1.00  0.00     0.009 C
HETATM   15  C20 UNL     1     -79.299 -15.462   6.814  1.00  0.00     0.009 C
HETATM   16  C17 UNL     1     -80.303 -17.044   4.612  1.00  0.00    -0.013 C
HETATM   17  C18 UNL     1     -79.696 -17.674   5.849  1.00  0.00     0.009 C
HETATM   18  C22 UNL     1     -81.791 -16.916   4.872  1.00  0.00     0.024 C
HETATM   19  C19 UNL     1     -79.969 -16.792   7.038  1.00  0.00    -0.013 C
HETATM   20  C21 UNL     1     -81.463 -16.640   7.254  1.00  0.00     0.024 C
ENDBRANCH   8  11
ENDBRANCH   5   7
BRANCH   4  21
HETATM   21  C10 UNL     1     -87.192 -15.898   6.203  1.00  0.00     0.435 C
HETATM   22  F1  UNL     1     -88.622 -15.994   6.220  1.00  0.00    -0.165 F
HETATM   23  F2  UNL     1     -86.982 -14.628   5.788  1.00  0.00    -0.165 F
HETATM   24  F3  UNL     1     -86.829 -16.930   5.404  1.00  0.00    -0.165 F
ENDBRANCH   4  21
BRANCH   1  25
HETATM   25  C7  UNL     1     -88.061 -16.363  11.055  1.00  0.00     0.064 A
HETATM   26  C2  UNL     1     -88.437 -15.380  11.925  1.00  0.00     0.027 A
HETATM   27  C1  UNL     1     -87.982 -13.951  11.667  1.00  0.00     0.070 C
HETATM   28  N1  UNL     1     -89.174 -15.723  12.943  1.00  0.00    -0.339 N
HETATM   29  C3  UNL     1     -89.522 -17.002  13.084  1.00  0.00     0.145 A
ATOM     30  H1  UNL     1     -89.480 -15.024  13.621  1.00  0.00     0.168 HD
HETATM   31  S1  UNL     1     -88.783 -17.748  11.733  1.00  0.00    -0.050 SA
BRANCH  29  32
HETATM   32  N2  UNL     1     -90.253 -17.553  14.029  1.00  0.00    -0.367 N
ATOM     33  H2  UNL     1     -91.153 -17.122  14.239  1.00  0.00     0.162 HD
BRANCH  32  34
HETATM   34  C4  UNL     1     -89.886 -18.701  14.782  1.00  0.00     0.075 C
HETATM   35  C5  UNL     1     -89.136 -18.285  16.045  1.00  0.00     0.032 C
HETATM   36  C6  UNL     1     -91.024 -19.633  15.120  1.00  0.00     0.032 C
ENDBRANCH  32  34
ENDBRANCH  29  32
ENDBRANCH   1  25
TORSDOF 6
ENDMDL