MODEL 2
REMARK VINA RESULT: -8.614711530      1.202      2.108
REMARK  5 active torsions:
REMARK  status: ('A' for Active; 'I' for Inactive)
REMARK    1  A    between atoms: C3_7  and  C4_8
REMARK    2  A    between atoms: C6_10  and  N3_11
REMARK    3  A    between atoms: C9_14  and  N4_15
REMARK    4  A    between atoms: N4_15  and  C10_17
REMARK    5  A    between atoms: C23_34  and  C24_35
ROOT
HETATM    1  C4  UNL     1     -89.325 -16.461  10.788  1.00  0.00     0.065 A
HETATM    2  C5  UNL     1     -88.226 -16.402   9.907  1.00  0.00     0.080 A
HETATM    3  C6  UNL     1     -88.451 -16.413   8.543  1.00  0.00     0.106 A
HETATM    4  N5  UNL     1     -89.690 -16.479   8.006  1.00  0.00    -0.339 N
ATOM      5  H5  UNL     1     -89.833 -16.487   6.996  1.00  0.00     0.168 HD
HETATM    6  C22 UNL     1     -90.733 -16.536   8.871  1.00  0.00     0.182 A
HETATM    7  N6  UNL     1     -90.494 -16.524  10.171  1.00  0.00    -0.350 N
ATOM      8  H6  UNL     1     -91.315 -16.569  10.774  1.00  0.00     0.166 HD
ENDROOT
BRANCH   3   9
HETATM    9  N3  UNL     1     -87.364 -16.355   7.641  1.00  0.00    -0.367 N
HETATM   10  C7  UNL     1     -87.502 -15.967   6.255  1.00  0.00     0.126 C
HETATM   11  C8  UNL     1     -86.468 -14.889   5.991  1.00  0.00     0.044 C
HETATM   12  C9  UNL     1     -85.059 -15.416   6.196  1.00  0.00     0.080 C
HETATM   13  C20 UNL     1     -85.029 -16.688   6.980  1.00  0.00     0.044 C
HETATM   14  C21 UNL     1     -86.038 -16.698   8.109  1.00  0.00     0.126 C
BRANCH  12  15
HETATM   15  N4  UNL     1     -84.446 -15.538   4.920  1.00  0.00    -0.413 N
ATOM     16  H4  UNL     1     -84.955 -15.873   4.102  1.00  0.00     0.154 HD
BRANCH  15  17
HETATM   17  C10 UNL     1     -83.060 -15.157   4.857  1.00  0.00     0.077 C
HETATM   18  C11 UNL     1     -82.104 -16.273   4.614  1.00  0.00     0.025 C
HETATM   19  C12 UNL     1     -81.560 -16.941   5.828  1.00  0.00     0.011 C
HETATM   20  C13 UNL     1     -81.068 -16.014   6.886  1.00  0.00    -0.041 C
HETATM   21  C14 UNL     1     -79.560 -16.161   7.101  1.00  0.00     0.015 C
HETATM   22  C15 UNL     1     -81.713 -16.466   8.203  1.00  0.00     0.015 C
HETATM   23  C16 UNL     1     -81.380 -14.574   6.649  1.00  0.00    -0.039 C
HETATM   24  C17 UNL     1     -80.362 -13.861   5.791  1.00  0.00     0.015 C
HETATM   25  C18 UNL     1     -81.346 -13.872   8.013  1.00  0.00     0.015 C
HETATM   26  C19 UNL     1     -82.767 -14.380   6.117  1.00  0.00     0.034 C
ENDBRANCH  15  17
ENDBRANCH  12  15
ENDBRANCH   3   9
BRANCH   1  27
HETATM   27  C3  UNL     1     -89.068 -16.451  12.217  1.00  0.00     0.089 A
HETATM   28  N2  UNL     1     -89.457 -15.417  13.052  1.00  0.00    -0.298 N
HETATM   29  N1  UNL     1     -89.093 -15.684  14.282  1.00  0.00    -0.304 N
ATOM     30  H2  UNL     1     -89.951 -14.575  12.755  1.00  0.00     0.187 HD
HETATM   31  C2  UNL     1     -88.468 -16.848  14.363  1.00  0.00     0.036 A
ATOM     32  H1  UNL     1     -89.269 -15.071  15.078  1.00  0.00     0.186 HD
HETATM   33  C1  UNL     1     -87.917 -17.469  15.581  1.00  0.00     0.070 C
HETATM   34  C23 UNL     1     -88.446 -17.350  13.038  1.00  0.00     0.066 A
BRANCH  34  35
HETATM   35  C24 UNL     1     -87.830 -18.639  12.744  1.00  0.00     0.271 C
HETATM   36  C25 UNL     1     -86.327 -18.468  12.432  1.00  0.00     0.096 C
HETATM   37  F1  UNL     1     -88.359 -19.151  11.515  1.00  0.00    -0.201 F
HETATM   38  F2  UNL     1     -87.907 -19.645  13.622  1.00  0.00    -0.201 F
ENDBRANCH  34  35
ENDBRANCH   1  27
TORSDOF 5
ENDMDL