MODEL 5
REMARK VINA RESULT: -7.938263431      6.619     11.273
REMARK  5 active torsions:
REMARK  status: ('A' for Active; 'I' for Inactive)
REMARK    1  A    between atoms: C3_3  and  N1_4
REMARK    2  A    between atoms: C5_8  and  C6_9
REMARK       I    between atoms: C6_9  and  N2_11
REMARK    3  A    between atoms: N2_11  and  C7_13
REMARK    4  A    between atoms: C10_17  and  C11_18
REMARK    5  A    between atoms: C21_30  and  C22_31
ROOT
HETATM    1  C6  UNL     1     -86.932 -18.302  12.313  1.00  0.00     0.256 C
HETATM    2  O3  UNL     1     -85.874 -18.937  12.435  1.00  0.00    -0.267 OA
HETATM    3  N2  UNL     1     -87.138 -17.228  11.471  1.00  0.00    -0.316 N
ATOM      4  H2  UNL     1     -88.094 -16.873  11.488  1.00  0.00     0.169 HD
ENDROOT
BRANCH   3   5
HETATM    5  C7  UNL     1     -86.275 -16.515  10.580  1.00  0.00     0.093 A
HETATM    6  S1  UNL     1     -84.849 -15.700  11.167  1.00  0.00    -0.075 SA
HETATM    7  C8  UNL     1     -84.268 -15.055   9.724  1.00  0.00    -0.008 A
HETATM    8  C9  UNL     1     -85.141 -15.459   8.797  1.00  0.00    -0.027 A
HETATM    9  C19 UNL     1     -83.024 -14.201   9.716  1.00  0.00     0.046 C
HETATM   10  C10 UNL     1     -86.196 -16.233   9.254  1.00  0.00     0.070 A
HETATM   11  C12 UNL     1     -85.000 -15.112   7.298  1.00  0.00     0.041 C
HETATM   12  C13 UNL     1     -84.424 -16.134   6.418  1.00  0.00     0.005 C
HETATM   13  C14 UNL     1     -82.991 -16.169   6.034  1.00  0.00     0.000 C
HETATM   14  C15 UNL     1     -82.182 -14.924   6.036  1.00  0.00     0.000 C
HETATM   15  C16 UNL     1     -80.838 -14.919   6.706  1.00  0.00     0.000 C
HETATM   16  C17 UNL     1     -80.830 -14.390   8.174  1.00  0.00     0.000 C
HETATM   17  C18 UNL     1     -82.247 -14.172   8.503  1.00  0.00     0.005 C
BRANCH  10  18
HETATM   18  C11 UNL     1     -87.120 -17.009   8.344  1.00  0.00     0.268 C
HETATM   19  N3  UNL     1     -88.349 -16.595   7.832  1.00  0.00    -0.057 NA
HETATM   20  O4  UNL     1     -86.785 -18.174   7.993  1.00  0.00    -0.271 OA
ENDBRANCH  10  18
ENDBRANCH   3   5
BRANCH   1  21
HETATM   21  C5  UNL     1     -88.039 -18.782  13.169  1.00  0.00     0.035 A
HETATM   22  C4  UNL     1     -88.250 -20.125  13.353  1.00  0.00     0.053 A
HETATM   23  C3  UNL     1     -89.274 -20.607  14.154  1.00  0.00     0.110 A
HETATM   24  C2  UNL     1     -90.128 -19.752  14.805  1.00  0.00    -0.014 A
HETATM   25  C1  UNL     1     -91.232 -20.287  15.646  1.00  0.00     0.052 C
HETATM   26  C21 UNL     1     -89.938 -18.389  14.639  1.00  0.00     0.057 A
HETATM   27  C20 UNL     1     -88.895 -17.933  13.822  1.00  0.00     0.034 A
BRANCH  23  28
HETATM   28  N1  UNL     1     -89.450 -22.014  14.323  1.00  0.00    -0.115 N
HETATM   29  O1  UNL     1     -88.463 -22.725  14.698  1.00  0.00    -0.532 OA
HETATM   30  O2  UNL     1     -90.617 -22.684  14.112  1.00  0.00    -0.532 OA
ENDBRANCH  23  28
BRANCH  26  31
HETATM   31  C22 UNL     1     -90.759 -17.377  15.296  1.00  0.00     0.418 C
HETATM   32  F1  UNL     1     -90.795 -17.608  16.675  1.00  0.00    -0.166 F
HETATM   33  F2  UNL     1     -90.208 -16.131  15.109  1.00  0.00    -0.166 F
HETATM   34  F3  UNL     1     -92.041 -17.299  14.760  1.00  0.00    -0.166 F
ENDBRANCH  26  31
ENDBRANCH   1  21
TORSDOF 5
ENDMDL