MODEL 5
REMARK VINA RESULT: -7.671225636      2.981      4.523
REMARK  5 active torsions:
REMARK  status: ('A' for Active; 'I' for Inactive)
REMARK    1  A    between atoms: O1_1  and  C1_3
REMARK    2  A    between atoms: C4_6  and  O2_7
REMARK    3  A    between atoms: N1_9  and  C5_10
REMARK    4  A    between atoms: N2_13  and  C8_14
REMARK    5  A    between atoms: C8_14  and  C9_15
ROOT
HETATM    1  C1  UNL     1     -83.805 -15.430  11.386  1.00  0.00     0.153 A
HETATM    2  C2  UNL     1     -83.145 -15.112  10.203  1.00  0.00     0.028 A
HETATM    3  C3  UNL     1     -83.720 -15.793   9.155  1.00  0.00     0.016 A
HETATM    4  C4  UNL     1     -84.737 -16.525   9.728  1.00  0.00     0.152 A
HETATM    5  N1  UNL     1     -84.760 -16.283  11.072  1.00  0.00    -0.301 N
HETATM    6  C17 UNL     1     -83.161 -15.590   7.810  1.00  0.00     0.013 C
HETATM    7  C18 UNL     1     -82.142 -16.696   7.560  1.00  0.00     0.017 C
HETATM    8  C19 UNL     1     -82.055 -16.735   6.055  1.00  0.00     0.001 C
HETATM    9  C20 UNL     1     -83.263 -16.033   5.510  1.00  0.00     0.001 C
HETATM   10  C21 UNL     1     -84.179 -15.793   6.714  1.00  0.00     0.017 C
HETATM   11  C22 UNL     1     -82.510 -14.266   7.651  1.00  0.00     0.182 C
HETATM   12  O3  UNL     1     -82.384 -13.495   8.772  1.00  0.00    -0.385 OA
HETATM   13  C23 UNL     1     -81.994 -14.210   9.904  1.00  0.00     0.211 C
ENDROOT
BRANCH   5  14
HETATM   14  C5  UNL     1     -85.719 -16.911  11.933  1.00  0.00     0.115 C
HETATM   15  C6  UNL     1     -86.701 -15.916  12.503  1.00  0.00     0.047 C
HETATM   16  C7  UNL     1     -86.818 -16.010  14.021  1.00  0.00     0.124 C
HETATM   17  N2  UNL     1     -87.213 -17.365  14.298  1.00  0.00    -0.388 N
HETATM   18  C15 UNL     1     -86.247 -18.329  13.921  1.00  0.00     0.144 C
HETATM   19  C16 UNL     1     -85.144 -17.722  13.033  1.00  0.00     0.123 C
HETATM   20 CL3  UNL     1     -84.307 -19.171  12.362  1.00  0.00    -0.121 Cl
BRANCH  17  21
HETATM   21  C8  UNL     1     -87.955 -17.575  15.476  1.00  0.00     0.097 C
BRANCH  21  22
HETATM   22  C9  UNL     1     -89.064 -18.528  15.214  1.00  0.00    -0.019 A
HETATM   23  C10 UNL     1     -90.378 -18.109  15.183  1.00  0.00     0.014 A
HETATM   24  C11 UNL     1     -91.394 -18.986  14.942  1.00  0.00     0.026 A
HETATM   25  C12 UNL     1     -91.140 -20.320  14.721  1.00  0.00     0.055 A
HETATM   26 CL1  UNL     1     -92.503 -21.391  14.416  1.00  0.00    -0.083 Cl
HETATM   27  C13 UNL     1     -89.841 -20.758  14.748  1.00  0.00     0.056 A
HETATM   28 CL2  UNL     1     -89.533 -22.458  14.464  1.00  0.00    -0.083 Cl
HETATM   29  C14 UNL     1     -88.825 -19.859  14.993  1.00  0.00     0.038 A
ENDBRANCH  21  22
ENDBRANCH  17  21
ENDBRANCH   5  14
BRANCH   1  30
HETATM   30  O1  UNL     1     -83.452 -14.896  12.631  1.00  0.00    -0.345 OA
ATOM     31  H1  UNL     1     -82.836 -15.313  13.222  1.00  0.00     0.219 HD
ENDBRANCH   1  30
BRANCH   4  32
HETATM   32  O2  UNL     1     -85.592 -17.370   9.033  1.00  0.00    -0.345 OA
ATOM     33  H2  UNL     1     -86.103 -17.117   8.273  1.00  0.00     0.219 HD
ENDBRANCH   4  32
TORSDOF 5
ENDMDL