MODEL 5
REMARK VINA RESULT: -8.801413618      1.495      1.880
REMARK  3 active torsions:
REMARK  status: ('A' for Active; 'I' for Inactive)
REMARK    1  A    between atoms: C12_13  and  C13_14
REMARK    2  A    between atoms: C13_14  and  C15_16
REMARK    3  A    between atoms: C16_20  and  O4_21
ROOT
HETATM    1  C1  UNL     1     -86.058 -10.506  18.217  1.00  0.00     0.010 C
HETATM    2  C2  UNL     1     -87.476 -10.694  17.651  1.00  0.00    -0.012 C
HETATM    3  C3  UNL     1     -88.143 -11.720  18.516  1.00  0.00     0.005 C
HETATM    4  C4  UNL     1     -89.227 -12.520  17.769  1.00  0.00     0.009 C
HETATM    5  C5  UNL     1     -88.498 -13.199  16.694  1.00  0.00     0.035 C
HETATM    6  C6  UNL     1     -89.145 -14.312  15.952  1.00  0.00     0.044 C
HETATM    7  C7  UNL     1     -88.932 -15.586  16.792  1.00  0.00     0.015 C
HETATM    8  C8  UNL     1     -88.712 -14.465  14.533  1.00  0.00     0.269 C
HETATM    9  O1  UNL     1     -89.646 -14.400  13.587  1.00  0.00    -0.317 OA
HETATM   10  C9  UNL     1     -90.480 -13.502  13.241  1.00  0.00     0.240 C
HETATM   11  C10 UNL     1     -89.838 -12.715  12.109  1.00  0.00     0.045 C
HETATM   12  C11 UNL     1     -90.629 -12.692  11.069  1.00  0.00     0.007 C
HETATM   13  C12 UNL     1     -91.835 -13.461  11.455  1.00  0.00     0.160 C
HETATM   14  O3  UNL     1     -91.573 -14.141  12.595  1.00  0.00    -0.338 OA
HETATM   15  C16 UNL     1     -91.068 -12.483  14.141  1.00  0.00     0.361 C
HETATM   16  O5  UNL     1     -90.190 -11.916  15.051  1.00  0.00    -0.201 OA
HETATM   17  O6  UNL     1     -88.976 -11.901  14.696  1.00  0.00    -0.223 OA
HETATM   18  C17 UNL     1     -88.030 -12.194  15.700  1.00  0.00     0.135 C
HETATM   19  C18 UNL     1     -87.486 -10.930  16.197  1.00  0.00     0.031 C
HETATM   20  C19 UNL     1     -86.104 -10.882  15.525  1.00  0.00     0.011 C
HETATM   21  C20 UNL     1     -86.305 -11.741  14.258  1.00  0.00     0.041 C
HETATM   22  C21 UNL     1     -86.965 -12.950  14.921  1.00  0.00     0.095 C
HETATM   23  C22 UNL     1     -85.910 -13.625  15.710  1.00  0.00     0.049 C
HETATM   24  O7  UNL     1     -87.589 -13.803  14.116  1.00  0.00    -0.347 OA
ENDROOT
BRANCH  15  25
HETATM   25  O4  UNL     1     -91.624 -11.409  13.436  1.00  0.00    -0.364 OA
ATOM     26  H4  UNL     1     -91.096 -11.156  12.687  1.00  0.00     0.213 HD
ENDBRANCH  15  25
BRANCH  13  27
HETATM   27  C13 UNL     1     -92.249 -14.310  10.281  1.00  0.00     0.104 C
HETATM   28  C14 UNL     1     -91.130 -15.177   9.764  1.00  0.00     0.022 C
BRANCH  27  29
HETATM   29  C15 UNL     1     -93.390 -15.195  10.604  1.00  0.00     0.237 C
HETATM   30  N1  UNL     1     -94.395 -14.847  11.546  1.00  0.00    -0.062 NA
HETATM   31  O2  UNL     1     -93.504 -16.306  10.037  1.00  0.00    -0.276 OA
ENDBRANCH  27  29
ENDBRANCH  13  27
TORSDOF 3
ENDMDL