MODEL 1
REMARK VINA RESULT: -8.390185072      0.000      0.000
REMARK  7 active torsions:
REMARK  status: ('A' for Active; 'I' for Inactive)
REMARK    1  A    between atoms: C2_2  and  O2_4
REMARK    2  A    between atoms: O2_4  and  C3_5
REMARK    3  A    between atoms: C6_8  and  C7_9
REMARK    4  A    between atoms: C15_21  and  O5_22
REMARK    5  A    between atoms: C17_25  and  O6_26
REMARK    6  A    between atoms: C17_25  and  C18_28
REMARK    7  A    between atoms: C18_28  and  O7_29
ROOT
HETATM    1  C3  UNL     1     -88.630 -13.255  14.217  1.00  0.00     0.141 C
HETATM    2  C4  UNL     1     -87.866 -14.513  14.540  1.00  0.00     0.041 C
HETATM    3  C5  UNL     1     -86.871 -14.244  15.585  1.00  0.00     0.030 C
HETATM    4  C6  UNL     1     -86.467 -15.320  16.514  1.00  0.00     0.177 C
HETATM    5  O4  UNL     1     -87.166 -15.079  17.732  1.00  0.00    -0.379 OA
HETATM    6  C11 UNL     1     -86.927 -13.666  17.798  1.00  0.00     0.174 C
HETATM    7  C12 UNL     1     -87.599 -13.286  16.552  1.00  0.00     0.026 C
HETATM    8  C13 UNL     1     -87.514 -11.887  16.034  1.00  0.00    -0.020 C
HETATM    9  C14 UNL     1     -88.493 -11.070  16.887  1.00  0.00     0.042 C
HETATM   10  C15 UNL     1     -87.801 -10.342  18.017  1.00  0.00     0.121 C
HETATM   11  C16 UNL     1     -86.915  -9.301  17.405  1.00  0.00     0.071 C
HETATM   12  C17 UNL     1     -85.959  -9.889  16.391  1.00  0.00     0.082 C
HETATM   13  C19 UNL     1     -86.162 -11.363  16.343  1.00  0.00     0.051 C
HETATM   14  C20 UNL     1     -87.925 -11.964  14.593  1.00  0.00    -0.013 C
HETATM   15  C21 UNL     1     -89.020 -10.933  14.246  1.00  0.00     0.018 C
HETATM   16  C22 UNL     1     -86.852 -11.737  13.575  1.00  0.00     0.018 C
ENDROOT
BRANCH  10  17
HETATM   17  O5  UNL     1     -88.839  -9.636  18.675  1.00  0.00    -0.395 OA
ATOM     18  H5  UNL     1     -88.893 -10.038  19.534  1.00  0.00     0.210 HD
ENDBRANCH  10  17
BRANCH  12  19
HETATM   19  O6  UNL     1     -85.993  -9.192  15.233  1.00  0.00    -0.388 OA
ATOM     20  H6  UNL     1     -85.148  -8.803  15.046  1.00  0.00     0.210 HD
ENDBRANCH  12  19
BRANCH  12  21
HETATM   21  C18 UNL     1     -84.556  -9.677  16.990  1.00  0.00     0.201 C
BRANCH  21  22
HETATM   22  O7  UNL     1     -84.616  -9.568  18.374  1.00  0.00    -0.398 OA
ATOM     23  H7  UNL     1     -85.448  -9.202  18.651  1.00  0.00     0.209 HD
ENDBRANCH  21  22
ENDBRANCH  12  21
BRANCH   1  24
HETATM   24  O2  UNL     1     -89.973 -13.307  14.608  1.00  0.00    -0.316 OA
BRANCH  24  25
HETATM   25  C2  UNL     1     -90.962 -14.078  14.030  1.00  0.00     0.255 C
HETATM   26  C1  UNL     1     -90.949 -14.391  12.556  1.00  0.00     0.126 C
HETATM   27  O1  UNL     1     -91.873 -14.513  14.780  1.00  0.00    -0.266 OA
ENDBRANCH  24  25
ENDBRANCH   1  24
BRANCH   4  28
HETATM   28  C7  UNL     1     -86.611 -16.691  16.075  1.00  0.00     0.064 A
HETATM   29  C8  UNL     1     -87.563 -17.593  16.500  1.00  0.00     0.064 A
HETATM   30  C9  UNL     1     -87.332 -18.790  15.832  1.00  0.00     0.074 A
HETATM   31  C10 UNL     1     -88.074 -20.067  15.934  1.00  0.00     0.079 C
HETATM   32  O3  UNL     1     -86.305 -18.585  15.065  1.00  0.00    -0.243 OA
HETATM   33  N1  UNL     1     -85.865 -17.351  15.195  1.00  0.00    -0.263 N
ATOM     34  H1  UNL     1     -85.069 -16.959  14.693  1.00  0.00     0.194 HD
ENDBRANCH   4  28
TORSDOF 7
ENDMDL