MODEL 4
REMARK VINA RESULT: -8.641778394      2.617      4.253
REMARK  4 active torsions:
REMARK  status: ('A' for Active; 'I' for Inactive)
REMARK    1  A    between atoms: C2_2  and  C3_3
REMARK    2  A    between atoms: C11_15  and  C12_16
REMARK    3  A    between atoms: C14_18  and  O5_19
REMARK    4  A    between atoms: C17_28  and  C18_29
ROOT
HETATM    1  C3  UNL     1     -87.407 -10.677  16.855  1.00  0.00     0.163 C
HETATM    2  O1  UNL     1     -88.444 -11.628  16.896  1.00  0.00    -0.307 OA
HETATM    3  C4  UNL     1     -89.028 -12.177  15.764  1.00  0.00     0.331 C
HETATM    4  O2  UNL     1     -90.226 -12.537  15.849  1.00  0.00    -0.259 OA
HETATM    5  C5  UNL     1     -88.206 -12.298  14.547  1.00  0.00     0.347 C
HETATM    6  O3  UNL     1     -88.654 -11.375  13.623  1.00  0.00    -0.181 OA
HETATM    7  O4  UNL     1     -88.912 -11.863  12.451  1.00  0.00    -0.194 OA
HETATM    8  C6  UNL     1     -89.857 -12.883  12.460  1.00  0.00     0.232 C
HETATM    9  C7  UNL     1     -91.214 -12.241  12.348  1.00  0.00     0.075 C
HETATM   10  C8  UNL     1     -91.438 -11.907  10.884  1.00  0.00     0.010 C
HETATM   11  C9  UNL     1     -92.292 -12.925  10.193  1.00  0.00    -0.012 C
HETATM   12  C10 UNL     1     -92.769 -12.320   8.889  1.00  0.00     0.010 C
HETATM   13  C11 UNL     1     -91.641 -14.219   9.912  1.00  0.00     0.018 C
HETATM   14  C14 UNL     1     -90.709 -14.722  10.973  1.00  0.00     0.128 C
HETATM   15  C15 UNL     1     -89.576 -13.805  11.281  1.00  0.00     0.106 C
HETATM   16  O6  UNL     1     -89.681 -13.608  13.618  1.00  0.00    -0.194 OA
HETATM   17  O7  UNL     1     -88.404 -13.563  14.011  1.00  0.00    -0.181 OA
HETATM   18  C16 UNL     1     -86.731 -12.119  14.871  1.00  0.00     0.297 C
HETATM   19  N1  UNL     1     -85.975 -11.905  13.664  1.00  0.00    -0.047 N
ATOM     20  H11 UNL     1     -86.543 -11.599  12.874  1.00  0.00     0.279 HD
ATOM     21  H12 UNL     1     -85.630 -12.765  13.240  1.00  0.00     0.279 HD
HETATM   22  C17 UNL     1     -84.922 -10.968  14.024  1.00  0.00     0.276 C
HETATM   23  C19 UNL     1     -85.471 -10.263  15.220  1.00  0.00    -0.040 C
HETATM   24  C20 UNL     1     -84.932  -8.999  15.789  1.00  0.00     0.046 C
HETATM   25  C21 UNL     1     -86.512 -10.914  15.718  1.00  0.00    -0.010 C
ENDROOT
BRANCH   1  26
HETATM   26  C2  UNL     1     -86.681 -10.759  18.198  1.00  0.00     0.033 C
HETATM   27  C1  UNL     1     -86.318 -12.170  18.530  1.00  0.00     0.008 C
ENDBRANCH   1  26
BRANCH  22  28
HETATM   28  C18 UNL     1     -84.661 -10.061  12.893  1.00  0.00     0.268 C
HETATM   29  O8  UNL     1     -85.591  -9.677  12.172  1.00  0.00    -0.304 OA
ENDBRANCH  22  28
BRANCH  14  30
HETATM   30  O5  UNL     1     -91.380 -15.125  12.135  1.00  0.00    -0.395 OA
ATOM     31  H5  UNL     1     -90.786 -15.373  12.834  1.00  0.00     0.210 HD
ENDBRANCH  14  30
BRANCH  13  32
HETATM   32  C12 UNL     1     -92.760 -15.265   9.784  1.00  0.00     0.003 C
HETATM   33  C13 UNL     1     -92.540 -16.183   8.631  1.00  0.00     0.005 C
ENDBRANCH  13  32
TORSDOF 4
ENDMDL