MODEL 2
REMARK VINA RESULT: -7.874499915      2.725      5.513
REMARK  7 active torsions:
REMARK  status: ('A' for Active; 'I' for Inactive)
REMARK    1  A    between atoms: O1_2  and  C2_3
REMARK       I    between atoms: C2_3  and  N1_5
REMARK    2  A    between atoms: C4_9  and  C5_10
REMARK    3  A    between atoms: C6_11  and  C7_12
REMARK    4  A    between atoms: C7_12  and  O4_15
REMARK    5  A    between atoms: C17_25  and  O6_26
REMARK    6  A    between atoms: O6_26  and  C18_27
REMARK    7  A    between atoms: C20_30  and  O8_32
ROOT
HETATM    1  C2  UNL     1     -85.925 -12.579  10.259  1.00  0.00     0.366 C
HETATM    2  O2  UNL     1     -85.366 -13.660  10.553  1.00  0.00    -0.238 OA
HETATM    3  N1  UNL     1     -87.269 -12.552   9.891  1.00  0.00    -0.284 N
ATOM      4  H1  UNL     1     -87.473 -12.477   8.894  1.00  0.00     0.173 HD
HETATM    5  C3  UNL     1     -88.264 -12.612  10.679  1.00  0.00     0.158 C
HETATM    6  O3  UNL     1     -89.534 -12.571  10.134  1.00  0.00    -0.295 OA
HETATM    7  C4  UNL     1     -90.821 -12.469  10.637  1.00  0.00     0.074 C
HETATM    8  C10 UNL     1     -91.081 -12.219  11.937  1.00  0.00     0.019 C
HETATM    9  C11 UNL     1     -90.203 -11.998  13.111  1.00  0.00     0.057 C
HETATM   10  C12 UNL     1     -88.855 -11.595  12.738  1.00  0.00     0.068 C
HETATM   11  C13 UNL     1     -88.024 -12.721  12.142  1.00  0.00     0.205 C
HETATM   12  O5  UNL     1     -86.930 -12.073  12.658  1.00  0.00    -0.366 OA
HETATM   13  C14 UNL     1     -87.778 -11.713  13.738  1.00  0.00     0.068 C
HETATM   14  C15 UNL     1     -87.349 -10.384  14.276  1.00  0.00     0.047 C
HETATM   15  C16 UNL     1     -87.890 -12.832  14.697  1.00  0.00     0.074 C
HETATM   16  C17 UNL     1     -89.274 -13.212  15.123  1.00  0.00     0.169 C
HETATM   17  C20 UNL     1     -90.321 -13.145  14.054  1.00  0.00     0.088 C
HETATM   18  C21 UNL     1     -91.668 -13.007  14.780  1.00  0.00     0.049 C
ENDROOT
BRANCH   7  19
HETATM   19  C5  UNL     1     -91.967 -12.632   9.771  1.00  0.00     0.036 C
HETATM   20  C6  UNL     1     -92.638 -13.695   9.467  1.00  0.00     0.012 C
BRANCH  20  21
HETATM   21  C7  UNL     1     -92.408 -15.072   9.940  1.00  0.00     0.068 C
HETATM   22  C8  UNL     1     -93.494 -15.623  10.814  1.00  0.00     0.050 C
HETATM   23  C9  UNL     1     -92.412 -15.974   8.672  1.00  0.00     0.050 C
BRANCH  21  24
HETATM   24  O4  UNL     1     -91.123 -15.246  10.462  1.00  0.00    -0.387 OA
ATOM     25  H4  UNL     1     -90.477 -15.409   9.785  1.00  0.00     0.211 HD
ENDBRANCH  21  24
ENDBRANCH  20  21
ENDBRANCH   7  19
BRANCH  17  26
HETATM   26  O8  UNL     1     -90.411 -14.329  13.334  1.00  0.00    -0.387 OA
ATOM     27  H8  UNL     1     -89.655 -14.412  12.765  1.00  0.00     0.210 HD
ENDBRANCH  17  26
BRANCH   1  28
HETATM   28  O1  UNL     1     -85.190 -11.403  10.303  1.00  0.00    -0.309 OA
HETATM   29  C1  UNL     1     -85.518 -10.282   9.489  1.00  0.00     0.215 C
ENDBRANCH   1  28
BRANCH  16  30
HETATM   30  O6  UNL     1     -89.615 -12.458  16.267  1.00  0.00    -0.313 OA
BRANCH  30  31
HETATM   31  C18 UNL     1     -89.158 -12.872  17.505  1.00  0.00     0.255 C
HETATM   32  C19 UNL     1     -88.642 -11.943  18.541  1.00  0.00     0.126 C
HETATM   33  O7  UNL     1     -89.168 -14.115  17.803  1.00  0.00    -0.266 OA
ENDBRANCH  30  31
ENDBRANCH  16  30
TORSDOF 7
ENDMDL