MODEL 2
REMARK VINA RESULT: -8.571415825      3.312      7.494
REMARK  4 active torsions:
REMARK  status: ('A' for Active; 'I' for Inactive)
REMARK    1  A    between atoms: C3_3  and  O1_4
REMARK    2  A    between atoms: O1_4  and  S1_5
REMARK    3  A    between atoms: N1_14  and  O5_16
REMARK    4  A    between atoms: C11_20  and  C12_21
ROOT
HETATM    1  C1  UNL     1     -87.426 -18.174  14.743  1.00  0.00     0.017 C
HETATM    2  C2  UNL     1     -87.683 -17.312  15.707  1.00  0.00    -0.054 C
HETATM    3  C3  UNL     1     -88.022 -17.816  17.046  1.00  0.00     0.173 C
HETATM    4  C4  UNL     1     -88.824 -16.733  17.736  1.00  0.00     0.039 C
HETATM    5  C5  UNL     1     -88.030 -15.463  17.823  1.00  0.00     0.018 C
HETATM    6  C6  UNL     1     -87.446 -14.975  16.547  1.00  0.00     0.004 C
HETATM    7  C7  UNL     1     -85.932 -14.826  16.779  1.00  0.00     0.022 C
HETATM    8  C8  UNL     1     -87.925 -13.605  16.239  1.00  0.00     0.019 C
HETATM    9  N1  UNL     1     -88.868 -13.095  16.945  1.00  0.00    -0.277 N
ATOM     10  H1  UNL     1     -89.262 -13.654  17.702  1.00  0.00     0.193 HD
HETATM   11  C9  UNL     1     -87.444 -12.691  15.176  1.00  0.00     0.056 C
HETATM   12  C10 UNL     1     -87.563 -13.447  13.865  1.00  0.00     0.013 C
HETATM   13  C11 UNL     1     -88.831 -14.214  13.886  1.00  0.00     0.024 C
HETATM   14  C17 UNL     1     -88.790 -15.556  14.495  1.00  0.00     0.018 C
HETATM   15  C18 UNL     1     -87.608 -15.865  15.361  1.00  0.00     0.030 C
ENDROOT
BRANCH  13  16
HETATM   16  C12 UNL     1     -89.386 -14.317  12.470  1.00  0.00     0.205 C
HETATM   17  O6  UNL     1     -88.656 -13.505  11.576  1.00  0.00    -0.308 OA
HETATM   18  C13 UNL     1     -89.187 -13.297  10.313  1.00  0.00     0.259 C
HETATM   19  O7  UNL     1     -88.503 -12.689   9.421  1.00  0.00    -0.265 OA
HETATM   20  C14 UNL     1     -90.552 -13.774   9.969  1.00  0.00     0.118 C
HETATM   21  C15 UNL     1     -91.455 -13.568  11.172  1.00  0.00     0.091 C
HETATM   22  C16 UNL     1     -90.832 -14.036  12.421  1.00  0.00     0.157 C
HETATM   23  O8  UNL     1     -91.498 -14.196  13.421  1.00  0.00    -0.295 OA
ENDBRANCH  13  16
BRANCH   9  24
HETATM   24  O5  UNL     1     -89.369 -11.846  16.735  1.00  0.00    -0.290 OA
ATOM     25  H5  UNL     1     -88.987 -11.227  16.123  1.00  0.00     0.244 HD
ENDBRANCH   9  24
BRANCH   3  26
HETATM   26  O1  UNL     1     -86.900 -18.177  17.780  1.00  0.00    -0.247 OA
BRANCH  26  27
HETATM   27  S1  UNL     1     -87.111 -19.715  18.415  1.00  0.00     0.252 S
HETATM   28  O2  UNL     1     -86.652 -20.769  17.420  1.00  0.00    -0.572 OA
HETATM   29  O3  UNL     1     -86.255 -19.928  19.646  1.00  0.00    -0.572 OA
HETATM   30  O4  UNL     1     -88.717 -19.973  18.808  1.00  0.00    -0.572 OA
ENDBRANCH  26  27
ENDBRANCH   3  26
TORSDOF 4
ENDMDL