MODEL 3
REMARK VINA RESULT: -9.445177292      1.028      1.824
REMARK  4 active torsions:
REMARK  status: ('A' for Active; 'I' for Inactive)
REMARK    1  A    between atoms: N1_1  and  C1_4
REMARK    2  A    between atoms: N3_7  and  C2_8
REMARK    3  A    between atoms: N4_11  and  C5_12
REMARK    4  A    between atoms: C5_12  and  C6_13
ROOT
HETATM    1  C2  UNL     1     -85.318 -11.529   9.058  1.00  0.00     0.113 C
HETATM    2  C3  UNL     1     -85.590 -12.893   9.646  1.00  0.00     0.057 C
HETATM    3  C4  UNL     1     -84.988 -12.896  11.009  1.00  0.00     0.274 C
HETATM    4  N4  UNL     1     -85.387 -11.816  11.899  1.00  0.00     0.088 N
HETATM    5  C18 UNL     1     -85.366 -10.552  11.259  1.00  0.00     0.274 C
HETATM    6  C19 UNL     1     -86.127 -10.581   9.919  1.00  0.00     0.057 C
ENDROOT
BRANCH   4   7
HETATM    7  C5  UNL     1     -86.509 -12.155  12.687  1.00  0.00     0.277 C
BRANCH   7   8
HETATM    8  C6  UNL     1     -87.876 -11.952  12.234  1.00  0.00     0.017 C
HETATM    9  C7  UNL     1     -88.959 -11.433  13.086  1.00  0.00     0.009 C
HETATM   10  C8  UNL     1     -90.118 -11.487  12.032  1.00  0.00     0.038 C
HETATM   11  C9  UNL     1     -90.025 -13.005  11.775  1.00  0.00     0.065 C
HETATM   12  C10 UNL     1     -88.517 -13.250  11.680  1.00  0.00     0.044 C
HETATM   13  C11 UNL     1     -90.780 -13.435  10.573  1.00  0.00     0.048 C
HETATM   14  O2  UNL     1     -90.533 -13.642  12.876  1.00  0.00    -0.350 OA
HETATM   15  C12 UNL     1     -91.533 -14.680  11.040  1.00  0.00     0.050 C
HETATM   16  C13 UNL     1     -91.606 -14.420  12.527  1.00  0.00     0.266 C
HETATM   17  C17 UNL     1     -92.959 -14.610  10.596  1.00  0.00     0.024 C
HETATM   18  O1  UNL     1     -92.827 -13.809  12.782  1.00  0.00    -0.355 OA
HETATM   19  C14 UNL     1     -93.734 -14.234  11.844  1.00  0.00     0.129 C
HETATM   20  C15 UNL     1     -94.171 -15.676  11.971  1.00  0.00     0.033 C
HETATM   21  C16 UNL     1     -93.705 -15.915  10.563  1.00  0.00     0.010 C
ENDBRANCH   7   8
ENDBRANCH   4   7
BRANCH   1  22
HETATM   22  N3  UNL     1     -85.570 -11.405   7.667  1.00  0.00    -0.267 N
HETATM   23  N2  UNL     1     -86.786 -11.295   7.166  1.00  0.00    -0.279 N
HETATM   24  C1  UNL     1     -86.756 -11.184   5.850  1.00  0.00     0.154 A
ATOM     25  H2  UNL     1     -87.641 -11.295   7.724  1.00  0.00     0.189 HD
HETATM   26  C21 UNL     1     -85.436 -11.223   5.459  1.00  0.00     0.187 A
HETATM   27  C20 UNL     1     -84.723 -11.363   6.630  1.00  0.00     0.176 A
HETATM   28  O3  UNL     1     -84.592 -11.185   4.471  1.00  0.00    -0.216 OA
HETATM   29  N5  UNL     1     -83.426 -11.403   6.270  1.00  0.00    -0.259 N
HETATM   30  N6  UNL     1     -83.388 -11.291   4.944  1.00  0.00     0.029 NA
ATOM     31  H5  UNL     1     -82.625 -11.501   6.895  1.00  0.00     0.186 HD
BRANCH  24  32
HETATM   32  N1  UNL     1     -87.778 -11.058   5.035  1.00  0.00    -0.382 N
ATOM     33  H12 UNL     1     -88.706 -11.449   5.198  1.00  0.00     0.157 HD
ATOM     34  H11 UNL     1     -87.803 -10.566   4.142  1.00  0.00     0.157 HD
ENDBRANCH  24  32
ENDBRANCH   1  22
TORSDOF 4
ENDMDL