MODEL 3
REMARK VINA RESULT: -8.413117186      4.270      5.744
REMARK  5 active torsions:
REMARK  status: ('A' for Active; 'I' for Inactive)
REMARK    1  A    between atoms: S1_2  and  C2_3
REMARK    2  A    between atoms: N2_5  and  C3_7
REMARK    3  A    between atoms: C3_7  and  C4_8
REMARK    4  A    between atoms: C5_9  and  O1_10
REMARK    5  A    between atoms: C6_12  and  C7_13
ROOT
HETATM    1  C4  UNL     1     -89.098 -12.343  16.518  1.00  0.00     0.029 A
HETATM    2  C5  UNL     1     -89.742 -12.155  15.301  1.00  0.00     0.083 A
HETATM    3  C6  UNL     1     -90.301 -13.214  14.571  1.00  0.00    -0.010 A
HETATM    4  C16 UNL     1     -90.188 -14.495  15.109  1.00  0.00     0.050 A
HETATM    5  C17 UNL     1     -89.540 -14.657  16.311  1.00  0.00     0.106 A
HETATM    6  C18 UNL     1     -88.992 -13.581  17.031  1.00  0.00     0.115 A
HETATM    7  O6  UNL     1     -88.421 -14.099  18.172  1.00  0.00    -0.322 OA
HETATM    8  C19 UNL     1     -88.115 -15.490  17.884  1.00  0.00     0.352 C
HETATM    9  O7  UNL     1     -89.253 -15.781  17.094  1.00  0.00    -0.323 OA
ENDROOT
BRANCH   3  10
HETATM   10  C7  UNL     1     -91.033 -12.882  13.308  1.00  0.00     0.114 C
HETATM   11  C8  UNL     1     -92.465 -13.303  13.304  1.00  0.00     0.274 C
HETATM   12  O2  UNL     1     -92.785 -14.530  12.841  1.00  0.00    -0.359 OA
HETATM   13  O5  UNL     1     -93.154 -12.259  12.627  1.00  0.00    -0.327 OA
HETATM   14  C9  UNL     1     -93.439 -14.310  11.592  1.00  0.00     0.185 C
HETATM   15  C10 UNL     1     -92.358 -13.521  10.840  1.00  0.00     0.033 C
HETATM   16  C11 UNL     1     -92.618 -13.458   9.361  1.00  0.00     0.022 C
HETATM   17  C12 UNL     1     -91.082 -14.202  11.176  1.00  0.00     0.058 C
HETATM   18  C15 UNL     1     -92.461 -12.122  11.417  1.00  0.00     0.310 C
HETATM   19  C13 UNL     1     -90.284 -13.244  12.065  1.00  0.00     0.106 C
HETATM   20  C14 UNL     1     -88.954 -13.918  12.263  1.00  0.00     0.050 C
HETATM   21  O3  UNL     1     -90.192 -12.092  11.242  1.00  0.00    -0.227 OA
HETATM   22  O4  UNL     1     -91.310 -11.428  11.437  1.00  0.00    -0.206 OA
ENDBRANCH   3  10
BRANCH   2  23
HETATM   23  O1  UNL     1     -89.872 -10.916  14.779  1.00  0.00    -0.359 OA
ATOM     24  H1  UNL     1     -89.108 -10.437  14.477  1.00  0.00     0.217 HD
ENDBRANCH   2  23
BRANCH   1  25
HETATM   25  C3  UNL     1     -88.442 -11.075  17.056  1.00  0.00     0.166 C
BRANCH  25  26
HETATM   26  N2  UNL     1     -87.444 -10.638  16.148  1.00  0.00    -0.369 N
HETATM   27  C2  UNL     1     -86.249 -10.903  15.845  1.00  0.00     0.149 C
HETATM   28  N1  UNL     1     -85.628 -10.227  14.748  1.00  0.00    -0.075 NA
ATOM     29  H2  UNL     1     -87.800  -9.881  15.564  1.00  0.00     0.161 HD
BRANCH  27  30
HETATM   30  S1  UNL     1     -85.310 -12.179  16.658  1.00  0.00    -0.102 SA
HETATM   31  C1  UNL     1     -85.586 -13.694  15.630  1.00  0.00     0.098 C
ENDBRANCH  27  30
ENDBRANCH  25  26
ENDBRANCH   1  25
TORSDOF 5
ENDMDL