MODEL 1
REMARK VINA RESULT: -8.755594318      0.000      0.000
REMARK  6 active torsions:
REMARK  status: ('A' for Active; 'I' for Inactive)
REMARK    1  A    between atoms: O1_2  and  N1_3
REMARK    2  A    between atoms: C3_6  and  O2_7
REMARK    3  A    between atoms: C16_23  and  C17_24
REMARK    4  A    between atoms: C16_23  and  C18_27
REMARK    5  A    between atoms: C17_24  and  O5_25
REMARK    6  A    between atoms: C18_27  and  O7_29
ROOT
HETATM    1  N1  UNL     1     -89.507 -14.304  15.282  1.00  0.00    -0.272 N
ATOM      2  H1  UNL     1     -88.517 -14.094  15.154  1.00  0.00     0.193 HD
HETATM    3  C2  UNL     1     -90.325 -13.986  14.318  1.00  0.00     0.045 C
HETATM    4  C3  UNL     1     -91.747 -14.313  14.560  1.00  0.00     0.170 C
HETATM    5  C4  UNL     1     -92.560 -14.336  13.316  1.00  0.00     0.072 C
HETATM    6  C5  UNL     1     -91.979 -13.649  12.146  1.00  0.00    -0.071 C
HETATM    7  C6  UNL     1     -92.983 -12.985  11.537  1.00  0.00    -0.021 C
HETATM    8  C7  UNL     1     -92.924 -12.153  10.332  1.00  0.00     0.061 C
HETATM    9  C8  UNL     1     -92.213 -12.913   9.277  1.00  0.00     0.154 C
HETATM   10  O3  UNL     1     -92.568 -14.300   9.377  1.00  0.00    -0.314 OA
HETATM   11  C9  UNL     1     -91.282 -14.562   8.923  1.00  0.00     0.271 C
HETATM   12  O4  UNL     1     -90.815 -15.586   8.352  1.00  0.00    -0.264 OA
HETATM   13  C10 UNL     1     -90.825 -13.224   9.388  1.00  0.00     0.079 C
HETATM   14  C11 UNL     1     -90.011 -12.644   8.215  1.00  0.00     0.029 C
HETATM   15  C12 UNL     1     -90.056 -13.110  10.631  1.00  0.00    -0.013 C
HETATM   16  C13 UNL     1     -88.730 -13.822  10.255  1.00  0.00     0.018 C
HETATM   17  C14 UNL     1     -89.679 -11.656  10.783  1.00  0.00     0.013 C
HETATM   18  C15 UNL     1     -89.912 -11.046  12.106  1.00  0.00     0.024 C
HETATM   19  C16 UNL     1     -89.586 -11.899  13.288  1.00  0.00     0.079 C
HETATM   20  C20 UNL     1     -89.797 -13.350  13.094  1.00  0.00     0.069 C
HETATM   21  C21 UNL     1     -90.538 -13.784  11.843  1.00  0.00    -0.002 C
HETATM   22  C22 UNL     1     -90.225 -15.296  11.811  1.00  0.00     0.021 C
ENDROOT
BRANCH  19  23
HETATM   23  C17 UNL     1     -90.403 -11.317  14.451  1.00  0.00     0.184 C
BRANCH  23  24
HETATM   24  O5  UNL     1     -89.488 -11.062  15.504  1.00  0.00    -0.400 OA
ATOM     25  H5  UNL     1     -89.836 -10.328  15.996  1.00  0.00     0.209 HD
ENDBRANCH  23  24
ENDBRANCH  19  23
BRANCH  19  26
HETATM   26  C18 UNL     1     -88.174 -11.604  13.675  1.00  0.00     0.270 C
HETATM   27  O6  UNL     1     -87.450 -12.508  14.165  1.00  0.00    -0.264 OA
BRANCH  26  28
HETATM   28  O7  UNL     1     -87.576 -10.363  13.530  1.00  0.00    -0.326 OA
HETATM   29  C19 UNL     1     -86.331 -10.179  12.877  1.00  0.00     0.213 C
ENDBRANCH  26  28
ENDBRANCH  19  26
BRANCH   1  30
HETATM   30  O1  UNL     1     -89.880 -14.894  16.444  1.00  0.00    -0.285 OA
HETATM   31  C1  UNL     1     -89.023 -15.650  17.271  1.00  0.00     0.237 C
ENDBRANCH   1  30
BRANCH   4  32
HETATM   32  O2  UNL     1     -92.329 -13.633  15.615  1.00  0.00    -0.389 OA
ATOM     33  H2  UNL     1     -91.902 -13.757  16.454  1.00  0.00     0.210 HD
ENDBRANCH   4  32
TORSDOF 6
ENDMDL