MODEL 4
REMARK VINA RESULT: -7.660124992      3.555      6.441
REMARK  8 active torsions:
REMARK  status: ('A' for Active; 'I' for Inactive)
REMARK    1  A    between atoms: O1_2  and  C2_3
REMARK    2  A    between atoms: C11_13  and  O3_14
REMARK    3  A    between atoms: C14_18  and  C15_19
REMARK    4  A    between atoms: C15_19  and  C16_20
REMARK    5  A    between atoms: C16_20  and  O4_21
REMARK    6  A    between atoms: C17_26  and  N2_28
REMARK    7  A    between atoms: N2_28  and  N3_30
REMARK    8  A    between atoms: N3_30  and  N4_31
ROOT
HETATM    1  C2  UNL     1     -90.431 -12.159  12.175  1.00  0.00     0.154 C
HETATM    2  C3  UNL     1     -89.414 -13.283  12.070  1.00  0.00     0.018 C
HETATM    3  C4  UNL     1     -88.933 -13.039  10.721  1.00  0.00     0.015 C
HETATM    4  C5  UNL     1     -88.557 -11.627  10.700  1.00  0.00     0.029 C
HETATM    5  C6  UNL     1     -89.752 -11.019  11.447  1.00  0.00     0.155 C
HETATM    6  O2  UNL     1     -89.282 -10.114  12.353  1.00  0.00    -0.382 OA
HETATM    7  C7  UNL     1     -87.930  -9.924  12.146  1.00  0.00     0.179 C
HETATM    8  C8  UNL     1     -87.408 -11.131  11.426  1.00  0.00    -0.003 C
HETATM    9  C9  UNL     1     -86.357 -10.590  10.454  1.00  0.00     0.015 C
HETATM   10  C10 UNL     1     -85.204 -10.336  11.390  1.00  0.00     0.033 C
HETATM   11  C11 UNL     1     -85.470 -11.154  12.641  1.00  0.00     0.127 C
HETATM   12  C12 UNL     1     -86.635 -12.065  12.286  1.00  0.00    -0.004 C
HETATM   13  C13 UNL     1     -86.033 -13.227  11.571  1.00  0.00     0.019 C
HETATM   14  C14 UNL     1     -87.436 -12.480  13.524  1.00  0.00     0.002 C
HETATM   15  C22 UNL     1     -88.584 -13.331  13.263  1.00  0.00     0.013 C
ENDROOT
BRANCH  14  16
HETATM   16  C15 UNL     1     -86.568 -12.919  14.633  1.00  0.00     0.077 C
BRANCH  16  17
HETATM   17  C16 UNL     1     -86.209 -12.197  15.801  1.00  0.00     0.261 C
HETATM   18  N1  UNL     1     -86.616 -13.168  16.915  1.00  0.00     0.013 N
HETATM   19  C17 UNL     1     -87.922 -12.715  17.286  1.00  0.00     0.330 C
ATOM     20  H12 UNL     1     -86.568 -14.153  16.656  1.00  0.00     0.287 HD
ATOM     21  H11 UNL     1     -85.953 -13.228  17.688  1.00  0.00     0.287 HD
HETATM   22  C18 UNL     1     -89.040 -13.608  16.792  1.00  0.00     0.108 C
HETATM   23  O5  UNL     1     -88.043 -11.408  16.812  1.00  0.00    -0.321 OA
HETATM   24  C19 UNL     1     -86.736 -11.041  16.450  1.00  0.00     0.116 C
HETATM   25  C20 UNL     1     -86.012 -10.965  17.829  1.00  0.00     0.051 C
HETATM   26  C21 UNL     1     -86.670  -9.663  15.959  1.00  0.00     0.051 C
BRANCH  17  27
HETATM   27  O4  UNL     1     -84.795 -12.236  15.995  1.00  0.00    -0.362 OA
ATOM     28  H4  UNL     1     -84.352 -12.426  15.176  1.00  0.00     0.212 HD
ENDBRANCH  17  27
BRANCH  19  29
HETATM   29  N2  UNL     1     -88.059 -12.704  18.754  1.00  0.00    -0.192 N
ATOM     30  H2  UNL     1     -87.348 -13.157  19.329  1.00  0.00     0.202 HD
BRANCH  29  31
HETATM   31  N3  UNL     1     -89.003 -12.164  19.285  1.00  0.00    -0.244 NA
BRANCH  31  32
HETATM   32  N4  UNL     1     -90.136 -11.868  19.671  1.00  0.00    -0.261 N
ATOM     33  H42 UNL     1     -89.980 -12.211  20.618  1.00  0.00     0.193 HD
ATOM     34  H41 UNL     1     -91.098 -11.533  19.722  1.00  0.00     0.193 HD
ENDBRANCH  31  32
ENDBRANCH  29  31
ENDBRANCH  19  29
ENDBRANCH  16  17
ENDBRANCH  14  16
BRANCH  11  35
HETATM   35  O3  UNL     1     -84.293 -11.835  12.909  1.00  0.00    -0.395 OA
ATOM     36  H3  UNL     1     -84.530 -12.551  13.488  1.00  0.00     0.210 HD
ENDBRANCH  11  35
BRANCH   1  37
HETATM   37  O1  UNL     1     -91.598 -12.549  11.531  1.00  0.00    -0.388 OA
HETATM   38  C1  UNL     1     -92.703 -12.497  12.379  1.00  0.00     0.202 C
ENDBRANCH   1  37
TORSDOF 8
ENDMDL