MODEL 1
REMARK VINA RESULT: -7.018296536      0.000      0.000
REMARK  8 active torsions:
REMARK  status: ('A' for Active; 'I' for Inactive)
REMARK    1  A    between atoms: C2_2  and  C3_3
REMARK    2  A    between atoms: C7_7  and  O1_8
REMARK    3  A    between atoms: O1_8  and  C8_9
REMARK    4  A    between atoms: C10_12  and  O3_13
REMARK    5  A    between atoms: O3_13  and  C11_14
REMARK    6  A    between atoms: C13_17  and  C14_18
REMARK    7  A    between atoms: C18_22  and  O5_23
REMARK    8  A    between atoms: C20_26  and  O6_27
ROOT
HETATM    1  C3  UNL     1     -86.635 -12.505  14.383  1.00  0.00     0.146 C
HETATM    2  C4  UNL     1     -86.394 -12.580  12.906  1.00  0.00     0.011 C
HETATM    3  C5  UNL     1     -87.484 -13.162  12.405  1.00  0.00    -0.042 C
HETATM    4  C6  UNL     1     -87.979 -13.564  11.085  1.00  0.00     0.072 C
HETATM    5  C7  UNL     1     -89.426 -13.299  10.821  1.00  0.00     0.174 C
HETATM    6  C10 UNL     1     -90.144 -12.597  12.032  1.00  0.00     0.135 C
HETATM    7  C13 UNL     1     -91.586 -12.675  11.685  1.00  0.00     0.026 C
HETATM    8  C16 UNL     1     -92.564 -12.743  12.820  1.00  0.00     0.010 C
HETATM    9  C17 UNL     1     -92.744 -14.146  13.390  1.00  0.00     0.032 C
HETATM   10  C18 UNL     1     -91.834 -14.249  14.559  1.00  0.00     0.121 C
HETATM   11  C19 UNL     1     -90.580 -13.406  14.440  1.00  0.00     0.076 C
HETATM   12  C20 UNL     1     -89.825 -13.536  13.178  1.00  0.00     0.129 C
HETATM   13  C21 UNL     1     -88.358 -13.474  13.562  1.00  0.00     0.115 C
HETATM   14  C22 UNL     1     -87.913 -14.764  14.246  1.00  0.00     0.055 C
HETATM   15  O7  UNL     1     -88.041 -12.420  14.418  1.00  0.00    -0.364 OA
ENDROOT
BRANCH   5  16
HETATM   16  O1  UNL     1     -90.044 -14.444  10.400  1.00  0.00    -0.313 OA
BRANCH  16  17
HETATM   17  C8  UNL     1     -90.604 -14.649   9.183  1.00  0.00     0.255 C
HETATM   18  C9  UNL     1     -91.540 -15.812   8.929  1.00  0.00     0.126 C
HETATM   19  O2  UNL     1     -90.374 -13.892   8.233  1.00  0.00    -0.266 OA
ENDBRANCH  16  17
ENDBRANCH   5  16
BRANCH   6  20
HETATM   20  O3  UNL     1     -89.491 -11.467  12.114  1.00  0.00    -0.304 OA
BRANCH  20  21
HETATM   21  C11 UNL     1     -89.496 -10.207  12.530  1.00  0.00     0.255 C
HETATM   22  C12 UNL     1     -88.669  -9.093  11.964  1.00  0.00     0.126 C
HETATM   23  O4  UNL     1     -90.281 -10.051  13.463  1.00  0.00    -0.266 OA
ENDBRANCH  20  21
ENDBRANCH   6  20
BRANCH   7  24
HETATM   24  C14 UNL     1     -91.994 -11.643  10.650  1.00  0.00     0.003 C
HETATM   25  C15 UNL     1     -93.133 -12.109   9.775  1.00  0.00     0.005 C
ENDBRANCH   7  24
BRANCH  12  26
HETATM   26  O6  UNL     1     -89.970 -14.871  12.657  1.00  0.00    -0.383 OA
ATOM     27  H6  UNL     1     -90.836 -14.911  12.269  1.00  0.00     0.210 HD
ENDBRANCH  12  26
BRANCH   1  28
HETATM   28  C2  UNL     1     -85.945 -11.300  14.921  1.00  0.00     0.031 C
HETATM   29  C1  UNL     1     -87.022 -10.296  15.341  1.00  0.00     0.008 C
ENDBRANCH   1  28
BRANCH  10  30
HETATM   30  O5  UNL     1     -92.533 -13.741  15.672  1.00  0.00    -0.395 OA
ATOM     31  H5  UNL     1     -93.335 -14.244  15.750  1.00  0.00     0.210 HD
ENDBRANCH  10  30
TORSDOF 8
ENDMDL