MODEL 5
REMARK VINA RESULT: -8.505636343      3.292      4.966
REMARK  5 active torsions:
REMARK  status: ('A' for Active; 'I' for Inactive)
REMARK    1  A    between atoms: C7_8  and  N1_9
REMARK       I    between atoms: N1_9  and  C8_11
REMARK    2  A    between atoms: C8_11  and  O2_13
REMARK    3  A    between atoms: O2_13  and  C9_14
REMARK    4  A    between atoms: C9_14  and  C10_15
REMARK    5  A    between atoms: C12_20  and  C13_21
ROOT
HETATM    1  C1  UNL     1    -108.402 -16.181  88.727  1.00  0.00     0.010 C
HETATM    2  C2  UNL     1    -109.844 -15.767  88.660  1.00  0.00    -0.014 C
HETATM    3  C3  UNL     1    -110.036 -14.308  88.422  1.00  0.00     0.009 C
HETATM    4  C4  UNL     1    -111.042 -13.671  89.342  1.00  0.00     0.042 C
HETATM    5  C5  UNL     1    -112.313 -14.519  89.373  1.00  0.00    -0.021 A
HETATM    6  C6  UNL     1    -112.054 -15.816  89.662  1.00  0.00    -0.007 A
HETATM    7  S1  UNL     1    -113.568 -16.533  89.635  1.00  0.00    -0.075 SA
HETATM    8  C7  UNL     1    -114.565 -15.113  89.240  1.00  0.00     0.100 A
HETATM    9  C19 UNL     1    -113.611 -14.160  89.156  1.00  0.00     0.086 A
HETATM   10  C20 UNL     1    -113.945 -12.750  88.837  1.00  0.00     0.103 C
HETATM   11  N3  UNL     1    -114.164 -11.631  88.590  1.00  0.00    -0.191 NA
HETATM   12  C21 UNL     1    -110.610 -16.191  89.899  1.00  0.00     0.051 C
ENDROOT
BRANCH   8  13
HETATM   13  N1  UNL     1    -115.965 -15.197  89.099  1.00  0.00    -0.295 N
HETATM   14  C8  UNL     1    -116.989 -15.881  89.742  1.00  0.00     0.365 C
HETATM   15  O1  UNL     1    -116.926 -16.662  90.689  1.00  0.00    -0.238 OA
ATOM     16  H1  UNL     1    -116.311 -14.612  88.339  1.00  0.00     0.172 HD
BRANCH  14  17
HETATM   17  O2  UNL     1    -118.335 -15.690  89.281  1.00  0.00    -0.299 OA
BRANCH  17  18
HETATM   18  C9  UNL     1    -118.574 -15.793  87.902  1.00  0.00     0.229 C
BRANCH  18  19
HETATM   19  C10 UNL     1    -118.543 -17.231  87.514  1.00  0.00     0.035 A
HETATM   20  S2  UNL     1    -119.558 -18.515  88.080  1.00  0.00    -0.085 SA
HETATM   21  C11 UNL     1    -118.842 -19.808  87.234  1.00  0.00     0.139 A
HETATM   22  N2  UNL     1    -117.877 -19.206  86.571  1.00  0.00    -0.358 N
HETATM   23  C12 UNL     1    -117.695 -17.922  86.683  1.00  0.00     0.058 A
ATOM     24  H2  UNL     1    -117.266 -19.751  85.963  1.00  0.00     0.166 HD
BRANCH  23  25
HETATM   25  C13 UNL     1    -116.576 -17.259  85.946  1.00  0.00    -0.003 A
HETATM   26  C14 UNL     1    -116.780 -16.534  84.813  1.00  0.00     0.056 A
HETATM   27  C15 UNL     1    -115.722 -15.917  84.164  1.00  0.00     0.120 A
HETATM   28  F1  UNL     1    -115.943 -15.198  83.038  1.00  0.00    -0.206 F
HETATM   29  C16 UNL     1    -114.430 -16.029  84.659  1.00  0.00     0.084 A
HETATM   30  C17 UNL     1    -114.212 -16.760  85.802  1.00  0.00     0.120 A
HETATM   31  F2  UNL     1    -112.954 -16.871  86.286  1.00  0.00    -0.206 F
HETATM   32  C18 UNL     1    -115.281 -17.364  86.430  1.00  0.00     0.056 A
ENDBRANCH  23  25
ENDBRANCH  18  19
ENDBRANCH  17  18
ENDBRANCH  14  17
ENDBRANCH   8  13
TORSDOF 5
ENDMDL