MODEL 1
REMARK VINA RESULT: -9.338026568      0.000      0.000
REMARK  4 active torsions:
REMARK  status: ('A' for Active; 'I' for Inactive)
REMARK    1  A    between atoms: C7_9  and  C8_10
REMARK    2  A    between atoms: C10_14  and  C11_15
REMARK    3  A    between atoms: C11_15  and  N3_16
REMARK    4  A    between atoms: C17_30  and  C18_31
ROOT
HETATM    1  C1  UNL     1    -119.867 -19.194  88.189  1.00  0.00     0.069 C
HETATM    2  C2  UNL     1    -118.670 -18.477  87.686  1.00  0.00     0.020 A
HETATM    3  C3  UNL     1    -118.270 -17.319  88.332  1.00  0.00     0.113 A
HETATM    4  N1  UNL     1    -117.205 -16.646  87.912  1.00  0.00    -0.362 N
ATOM      5  H1  UNL     1    -116.938 -15.799  88.413  1.00  0.00     0.165 HD
HETATM    6  C4  UNL     1    -116.454 -17.033  86.849  1.00  0.00     0.058 A
HETATM    7  C5  UNL     1    -115.244 -16.320  86.502  1.00  0.00    -0.004 A
HETATM    8  C6  UNL     1    -114.606 -15.601  87.519  1.00  0.00     0.044 A
HETATM    9  C7  UNL     1    -113.485 -14.845  87.309  1.00  0.00     0.052 A
HETATM   10  N4  UNL     1    -112.984 -14.788  86.076  1.00  0.00    -0.358 N
ATOM     11  H4  UNL     1    -112.151 -14.223  85.912  1.00  0.00     0.166 HD
HETATM   12  C17 UNL     1    -113.533 -15.445  85.036  1.00  0.00     0.019 A
HETATM   13  C22 UNL     1    -114.671 -16.215  85.270  1.00  0.00     0.039 A
HETATM   14  C23 UNL     1    -116.843 -18.193  86.185  1.00  0.00     0.118 A
HETATM   15  N5  UNL     1    -117.935 -18.882  86.620  1.00  0.00    -0.366 N
ATOM     16  H5  UNL     1    -118.210 -19.732  86.127  1.00  0.00     0.165 HD
ENDROOT
BRANCH   9  17
HETATM   17  C8  UNL     1    -112.867 -14.227  88.487  1.00  0.00     0.049 A
HETATM   18  C9  UNL     1    -113.505 -13.345  89.377  1.00  0.00     0.110 A
HETATM   19  N2  UNL     1    -112.809 -12.972  90.393  1.00  0.00    -0.360 N
HETATM   20  C10 UNL     1    -111.581 -13.377  90.593  1.00  0.00     0.088 A
ATOM     21  H2  UNL     1    -113.231 -12.335  91.069  1.00  0.00     0.165 HD
HETATM   22  S1  UNL     1    -111.339 -14.389  89.238  1.00  0.00    -0.071 SA
BRANCH  20  23
HETATM   23  C11 UNL     1    -110.707 -13.017  91.775  1.00  0.00     0.177 C
HETATM   24  C12 UNL     1    -109.461 -12.420  91.218  1.00  0.00     0.046 C
HETATM   25  C13 UNL     1    -108.425 -12.070  92.220  1.00  0.00     0.009 C
HETATM   26  C14 UNL     1    -108.203 -13.142  93.250  1.00  0.00     0.079 C
HETATM   27  C15 UNL     1    -109.472 -13.777  93.716  1.00  0.00     0.246 C
HETATM   28  F1  UNL     1    -109.130 -14.954  94.388  1.00  0.00    -0.206 F
HETATM   29  F2  UNL     1    -110.095 -12.959  94.621  1.00  0.00    -0.206 F
HETATM   30  C16 UNL     1    -110.373 -14.221  92.585  1.00  0.00     0.124 C
BRANCH  23  31
HETATM   31  N3  UNL     1    -111.469 -12.071  92.571  1.00  0.00    -0.064 N
ATOM     32  H33 UNL     1    -111.042 -11.147  92.619  1.00  0.00     0.275 HD
ATOM     33  H32 UNL     1    -112.342 -11.782  92.131  1.00  0.00     0.275 HD
ATOM     34  H31 UNL     1    -111.599 -12.506  93.484  1.00  0.00     0.275 HD
ENDBRANCH  23  31
ENDBRANCH  20  23
ENDBRANCH   9  17
BRANCH  12  35
HETATM   35  C18 UNL     1    -112.987 -15.339  83.657  1.00  0.00    -0.001 A
HETATM   36  C19 UNL     1    -111.485 -15.443  83.568  1.00  0.00     0.022 C
HETATM   37  C20 UNL     1    -113.771 -15.847  82.493  1.00  0.00     0.016 A
HETATM   38  C21 UNL     1    -113.612 -14.373  82.678  1.00  0.00     0.016 A
ENDBRANCH  12  35
TORSDOF 4
ENDMDL