MODEL 5
REMARK VINA RESULT: -6.576157770      2.421      3.120
REMARK  5 active torsions:
REMARK  status: ('A' for Active; 'I' for Inactive)
REMARK    1  A    between atoms: C2_2  and  O1_3
REMARK    2  A    between atoms: O1_3  and  C3_4
REMARK       I    between atoms: C3_4  and  N1_6
REMARK    3  A    between atoms: N1_6  and  C4_8
REMARK    4  A    between atoms: C7_12  and  C8_13
REMARK    5  A    between atoms: N3_24  and  C15_25
ROOT
HETATM    1  C8  UNL     1    -112.402 -15.016  89.252  1.00  0.00     0.029 A
HETATM    2  C9  UNL     1    -112.591 -13.705  89.582  1.00  0.00     0.088 A
HETATM    3 CL1  UNL     1    -113.257 -12.413  88.542  1.00  0.00    -0.075 Cl
HETATM    4  S2  UNL     1    -112.049 -13.602  91.191  1.00  0.00    -0.063 SA
HETATM    5  C10 UNL     1    -111.591 -15.229  91.418  1.00  0.00     0.097 A
HETATM    6 CL2  UNL     1    -110.903 -16.000  92.867  1.00  0.00    -0.075 Cl
HETATM    7  C11 UNL     1    -111.875 -15.824  90.214  1.00  0.00     0.086 A
HETATM    8  C12 UNL     1    -111.604 -17.275  90.029  1.00  0.00     0.102 C
HETATM    9  N2  UNL     1    -111.399 -18.403  89.864  1.00  0.00    -0.191 NA
ENDROOT
BRANCH   1  10
HETATM   10  C7  UNL     1    -112.770 -15.516  87.872  1.00  0.00     0.020 A
HETATM   11  C4  UNL     1    -111.836 -15.603  86.891  1.00  0.00     0.090 A
HETATM   12  S1  UNL     1    -112.697 -16.200  85.552  1.00  0.00    -0.073 SA
HETATM   13  C5  UNL     1    -114.235 -16.328  86.263  1.00  0.00     0.015 A
HETATM   14  C6  UNL     1    -114.038 -15.895  87.552  1.00  0.00    -0.024 A
HETATM   15  C17 UNL     1    -115.594 -16.775  85.787  1.00  0.00     0.120 C
HETATM   16  C13 UNL     1    -115.316 -15.921  88.394  1.00  0.00     0.085 C
HETATM   17  C14 UNL     1    -116.458 -15.387  87.584  1.00  0.00     0.063 C
HETATM   18  N3  UNL     1    -116.522 -15.796  86.243  1.00  0.00    -0.385 N
HETATM   19  C18 UNL     1    -115.896 -18.174  86.183  1.00  0.00     0.038 C
BRANCH  11  20
HETATM   20  N1  UNL     1    -110.424 -15.269  86.948  1.00  0.00    -0.296 N
HETATM   21  C3  UNL     1    -110.029 -14.001  86.497  1.00  0.00     0.365 C
HETATM   22  O2  UNL     1    -110.900 -13.206  86.064  1.00  0.00    -0.238 OA
ATOM     23  H1  UNL     1    -109.740 -15.936  87.306  1.00  0.00     0.171 HD
BRANCH  21  24
HETATM   24  O1  UNL     1    -108.711 -13.615  86.521  1.00  0.00    -0.304 OA
BRANCH  24  25
HETATM   25  C2  UNL     1    -108.063 -13.275  85.321  1.00  0.00     0.176 C
HETATM   26  C1  UNL     1    -107.129 -12.116  85.443  1.00  0.00     0.034 C
ENDBRANCH  24  25
ENDBRANCH  21  24
ENDBRANCH  11  20
BRANCH  18  27
HETATM   27  C15 UNL     1    -117.842 -15.900  85.689  1.00  0.00     0.118 C
HETATM   28  C16 UNL     1    -118.860 -15.830  86.797  1.00  0.00     0.026 C
ENDBRANCH  18  27
ENDBRANCH   1  10
TORSDOF 5
ENDMDL