MODEL 3
REMARK VINA RESULT: -8.591160043      4.346      6.836
REMARK  6 active torsions:
REMARK  status: ('A' for Active; 'I' for Inactive)
REMARK    1  A    between atoms: C2_3  and  C4_6
REMARK    2  A    between atoms: C4_6  and  C5_7
REMARK    3  A    between atoms: C4_6  and  C18_27
REMARK    4  A    between atoms: N3_9  and  C7_10
REMARK    5  A    between atoms: C7_10  and  O1_11
REMARK    6  A    between atoms: C7_10  and  C8_13
ROOT
HETATM    1  N1  UNL     1    -109.005 -15.538  88.254  1.00  0.00    -0.196 NA
HETATM    2  C1  UNL     1    -110.063 -16.058  88.237  1.00  0.00     0.083 C
HETATM    3  C2  UNL     1    -111.337 -16.726  88.202  1.00  0.00     0.229 C
HETATM    4  C3  UNL     1    -111.481 -17.720  89.273  1.00  0.00     0.083 C
HETATM    5  N2  UNL     1    -111.609 -18.492  90.145  1.00  0.00    -0.196 NA
ENDROOT
BRANCH   3   6
HETATM    6  C4  UNL     1    -112.493 -15.790  88.111  1.00  0.00    -0.032 C
BRANCH   6   7
HETATM    7  C5  UNL     1    -113.334 -16.038  86.904  1.00  0.00    -0.003 A
HETATM    8  C6  UNL     1    -114.642 -16.472  86.899  1.00  0.00     0.112 A
HETATM    9  N3  UNL     1    -115.221 -16.424  85.686  1.00  0.00    -0.300 N
HETATM   10  C12 UNL     1    -114.268 -15.941  84.843  1.00  0.00     0.055 A
HETATM   11  C13 UNL     1    -114.250 -15.714  83.472  1.00  0.00     0.075 A
HETATM   12  C17 UNL     1    -113.112 -15.702  85.566  1.00  0.00     0.005 A
HETATM   13  C14 UNL     1    -113.078 -15.266  82.879  1.00  0.00     0.142 A
HETATM   14  F1  UNL     1    -113.132 -15.054  81.533  1.00  0.00    -0.204 F
HETATM   15  C15 UNL     1    -111.944 -15.042  83.595  1.00  0.00     0.085 A
HETATM   16  N4  UNL     1    -110.758 -14.616  82.955  1.00  0.00    -0.099 NA
HETATM   17  C16 UNL     1    -111.962 -15.261  84.955  1.00  0.00     0.044 A
BRANCH   9  18
HETATM   18  C7  UNL     1    -116.548 -16.763  85.358  1.00  0.00     0.164 C
BRANCH  18  19
HETATM   19  O1  UNL     1    -117.104 -16.219  84.311  1.00  0.00    -0.345 OA
ATOM     20  H1  UNL     1    -118.024 -15.987  84.343  1.00  0.00     0.219 HD
ENDBRANCH  18  19
BRANCH  18  21
HETATM   21  C8  UNL     1    -117.426 -17.675  86.065  1.00  0.00     0.058 A
HETATM   22  C9  UNL     1    -117.471 -19.052  85.977  1.00  0.00     0.025 A
HETATM   23  C10 UNL     1    -118.376 -19.702  86.725  1.00  0.00     0.033 A
HETATM   24  C11 UNL     1    -119.191 -18.939  87.525  1.00  0.00     0.075 A
HETATM   25 CL1  UNL     1    -120.456 -19.559  88.613  1.00  0.00    -0.076 Cl
HETATM   26  S1  UNL     1    -118.674 -17.349  87.210  1.00  0.00    -0.074 SA
ENDBRANCH  18  21
ENDBRANCH   9  18
ENDBRANCH   6   7
BRANCH   6  27
HETATM   27  C18 UNL     1    -112.378 -14.424  88.616  1.00  0.00     0.018 C
HETATM   28  C19 UNL     1    -113.664 -13.642  88.307  1.00  0.00     0.009 C
HETATM   29  C20 UNL     1    -114.270 -13.297  89.666  1.00  0.00     0.001 C
HETATM   30  C21 UNL     1    -113.019 -13.079  90.497  1.00  0.00     0.001 C
HETATM   31  C22 UNL     1    -112.275 -14.377  90.129  1.00  0.00     0.009 C
ENDBRANCH   6  27
ENDBRANCH   3   6
TORSDOF 6
ENDMDL