MODEL 4
REMARK VINA RESULT: -9.274520246      3.270      4.591
REMARK  5 active torsions:
REMARK  status: ('A' for Active; 'I' for Inactive)
REMARK    1  A    between atoms: C2_2  and  C4_4
REMARK       I    between atoms: C4_4  and  N1_6
REMARK    2  A    between atoms: N1_6  and  C5_8
REMARK    3  A    between atoms: C7_10  and  C8_11
REMARK    4  A    between atoms: C9_15  and  C10_16
REMARK    5  A    between atoms: C15_21  and  C16_22
ROOT
HETATM    1  C8  UNL     1    -111.850 -13.923  88.243  1.00  0.00     0.106 A
HETATM    2  N2  UNL     1    -112.546 -14.952  87.816  1.00  0.00    -0.283 N
ATOM      3  H2  UNL     1    -112.068 -15.729  87.359  1.00  0.00     0.188 HD
HETATM    4  N3  UNL     1    -113.812 -14.990  87.966  1.00  0.00    -0.217 N
HETATM    5  C9  UNL     1    -114.843 -15.846  87.670  1.00  0.00     0.125 A
HETATM    6  N4  UNL     1    -116.002 -15.314  88.095  1.00  0.00    -0.285 N
ATOM      7  H4  UNL     1    -116.919 -15.748  88.000  1.00  0.00     0.188 HD
HETATM    8  N5  UNL     1    -115.773 -14.165  88.646  1.00  0.00    -0.277 N
ATOM      9  H5  UNL     1    -116.461 -13.534  89.058  1.00  0.00     0.189 HD
HETATM   10  C19 UNL     1    -114.420 -13.966  88.565  1.00  0.00     0.188 A
HETATM   11  S1  UNL     1    -113.076 -12.937  88.905  1.00  0.00    -0.031 SA
ENDROOT
BRANCH   1  12
HETATM   12  C7  UNL     1    -110.425 -13.629  88.201  1.00  0.00     0.040 A
HETATM   13  C6  UNL     1    -109.758 -13.651  86.975  1.00  0.00     0.050 A
HETATM   14  C5  UNL     1    -108.415 -13.385  86.836  1.00  0.00     0.074 A
HETATM   15  C22 UNL     1    -107.672 -13.078  87.981  1.00  0.00     0.146 A
HETATM   16  C21 UNL     1    -108.311 -13.053  89.191  1.00  0.00     0.088 A
HETATM   17  F2  UNL     1    -106.327 -12.802  87.918  1.00  0.00    -0.204 F
HETATM   18  C20 UNL     1    -109.675 -13.326  89.309  1.00  0.00     0.132 A
HETATM   19  F1  UNL     1    -110.309 -13.301  90.507  1.00  0.00    -0.205 F
BRANCH  14  20
HETATM   20  N1  UNL     1    -107.724 -13.402  85.612  1.00  0.00    -0.324 N
HETATM   21  C4  UNL     1    -107.208 -12.321  84.872  1.00  0.00     0.225 C
HETATM   22  O1  UNL     1    -107.281 -11.114  85.191  1.00  0.00    -0.273 OA
ATOM     23  H1  UNL     1    -107.575 -14.325  85.204  1.00  0.00     0.169 HD
BRANCH  21  24
HETATM   24  C2  UNL     1    -106.486 -12.564  83.561  1.00  0.00     0.070 C
HETATM   25  C1  UNL     1    -107.365 -13.553  82.782  1.00  0.00     0.019 C
HETATM   26  C3  UNL     1    -106.460 -11.298  82.741  1.00  0.00     0.019 C
ENDBRANCH  21  24
ENDBRANCH  14  20
ENDBRANCH   1  12
BRANCH   5  27
HETATM   27  C10 UNL     1    -114.756 -17.163  86.989  1.00  0.00     0.061 C
HETATM   28  C11 UNL     1    -115.651 -18.193  87.646  1.00  0.00     0.013 C
HETATM   29  C12 UNL     1    -116.444 -18.998  86.643  1.00  0.00     0.001 C
HETATM   30  C13 UNL     1    -117.334 -18.130  85.793  1.00  0.00     0.000 C
HETATM   31  C14 UNL     1    -116.542 -17.000  85.224  1.00  0.00     0.006 C
HETATM   32  C15 UNL     1    -115.072 -17.098  85.537  1.00  0.00     0.000 C
BRANCH  32  33
HETATM   33  C16 UNL     1    -114.311 -16.014  84.829  1.00  0.00    -0.018 C
HETATM   34  C17 UNL     1    -112.881 -16.486  84.663  1.00  0.00     0.010 C
HETATM   35  C18 UNL     1    -114.855 -15.719  83.468  1.00  0.00     0.010 C
ENDBRANCH  32  33
ENDBRANCH   5  27
TORSDOF 5
ENDMDL