MODEL 4
REMARK VINA RESULT: -7.171114084      1.264      1.823
REMARK  5 active torsions:
REMARK  status: ('A' for Active; 'I' for Inactive)
REMARK    1  A    between atoms: O1_1  and  C1_3
REMARK    2  A    between atoms: N1_8  and  C4_9
REMARK    3  A    between atoms: C4_9  and  N2_10
REMARK    4  A    between atoms: N3_13  and  C7_14
REMARK    5  A    between atoms: C12_21  and  C13_22
ROOT
HETATM    1  N2  UNL     1    -116.369 -16.989  89.554  1.00  0.00    -0.373 N
HETATM    2  C5  UNL     1    -115.237 -17.643  89.099  1.00  0.00     0.143 C
HETATM    3  C6  UNL     1    -115.324 -17.835  87.537  1.00  0.00     0.143 C
HETATM    4  N3  UNL     1    -115.277 -16.521  86.991  1.00  0.00    -0.377 N
HETATM    5  C18 UNL     1    -116.118 -15.529  87.641  1.00  0.00     0.143 C
HETATM    6  C19 UNL     1    -117.097 -16.322  88.498  1.00  0.00     0.143 C
ENDROOT
BRANCH   4   7
HETATM    7  C7  UNL     1    -114.453 -16.154  85.933  1.00  0.00     0.044 A
HETATM    8  C8  UNL     1    -115.098 -15.954  84.718  1.00  0.00     0.054 A
HETATM    9  C9  UNL     1    -114.400 -15.727  83.559  1.00  0.00     0.037 A
HETATM   10 CL1  UNL     1    -115.217 -15.469  82.051  1.00  0.00    -0.084 Cl
HETATM   11  C10 UNL     1    -113.048 -15.703  83.623  1.00  0.00     0.048 A
HETATM   12  C11 UNL     1    -112.418 -15.903  84.856  1.00  0.00     0.048 A
HETATM   13 CL2  UNL     1    -110.649 -15.737  84.764  1.00  0.00    -0.083 Cl
HETATM   14  C12 UNL     1    -113.086 -16.135  86.046  1.00  0.00     0.015 A
BRANCH  14  15
HETATM   15  C13 UNL     1    -112.347 -16.152  87.274  1.00  0.00    -0.066 C
HETATM   16  C14 UNL     1    -111.741 -17.406  87.799  1.00  0.00     0.035 C
HETATM   17  C15 UNL     1    -110.770 -16.914  88.851  1.00  0.00     0.005 C
HETATM   18  C16 UNL     1    -111.055 -15.444  89.064  1.00  0.00     0.005 C
HETATM   19  C17 UNL     1    -112.422 -15.192  88.365  1.00  0.00     0.035 C
ENDBRANCH  14  15
ENDBRANCH   4   7
BRANCH   1  20
HETATM   20  C4  UNL     1    -116.509 -16.265  90.726  1.00  0.00     0.190 C
BRANCH  20  21
HETATM   21  N1  UNL     1    -115.313 -15.659  91.342  1.00  0.00    -0.273 N
HETATM   22  C1  UNL     1    -114.805 -14.483  91.038  1.00  0.00     0.155 A
HETATM   23  C2  UNL     1    -113.696 -14.060  91.701  1.00  0.00     0.109 A
HETATM   24  S1  UNL     1    -113.386 -15.358  92.761  1.00  0.00    -0.068 SA
HETATM   25  C3  UNL     1    -114.676 -16.364  92.310  1.00  0.00     0.152 A
HETATM   26  S2  UNL     1    -115.097 -17.861  92.886  1.00  0.00    -0.052 SA
BRANCH  22  27
HETATM   27  O1  UNL     1    -115.376 -13.634  90.033  1.00  0.00    -0.345 OA
ATOM     28  H1  UNL     1    -115.984 -14.010  89.407  1.00  0.00     0.219 HD
ENDBRANCH  22  27
ENDBRANCH  20  21
ENDBRANCH   1  20
TORSDOF 5
ENDMDL