MODEL 1
REMARK VINA RESULT: -7.367683621      0.000      0.000
REMARK  6 active torsions:
REMARK  status: ('A' for Active; 'I' for Inactive)
REMARK    1  A    between atoms: O1_1  and  C1_3
REMARK    2  A    between atoms: C2_4  and  N1_5
REMARK    3  A    between atoms: N2_10  and  C7_11
REMARK    4  A    between atoms: C7_11  and  C8_12
REMARK    5  A    between atoms: N3_21  and  N4_22
REMARK    6  A    between atoms: N4_22  and  C15_24
ROOT
HETATM    1  C1  UNL     1    -112.842 -16.325  87.221  1.00  0.00     0.209 A
HETATM    2  C2  UNL     1    -114.227 -16.230  87.386  1.00  0.00     0.162 A
HETATM    3  N2  UNL     1    -114.715 -16.201  86.138  1.00  0.00    -0.300 N
HETATM    4  C14 UNL     1    -113.670 -16.274  85.253  1.00  0.00     0.204 A
HETATM    5  S1  UNL     1    -113.781 -16.272  83.621  1.00  0.00    -0.038 SA
HETATM    6  N3  UNL     1    -112.515 -16.352  85.921  1.00  0.00    -0.204 N
ENDROOT
BRANCH   6   7
HETATM    7  N4  UNL     1    -111.235 -16.442  85.398  1.00  0.00    -0.296 N
ATOM      8  H4  UNL     1    -110.868 -17.382  85.251  1.00  0.00     0.187 HD
BRANCH   7   9
HETATM    9  C15 UNL     1    -110.466 -15.473  85.082  1.00  0.00     0.022 C
HETATM   10  C16 UNL     1    -110.404 -14.297  85.981  1.00  0.00     0.056 C
HETATM   11  C17 UNL     1    -109.064 -13.604  85.923  1.00  0.00     0.006 C
HETATM   12  C18 UNL     1    -108.682 -13.450  84.467  1.00  0.00     0.002 C
HETATM   13  C19 UNL     1    -108.356 -14.837  83.946  1.00  0.00     0.026 C
HETATM   14  C20 UNL     1    -109.676 -15.572  83.836  1.00  0.00     0.129 C
HETATM   15 CL2  UNL     1    -110.593 -14.726  82.541  1.00  0.00    -0.119 Cl
ENDBRANCH   7   9
ENDBRANCH   6   7
BRANCH   1  16
HETATM   16  O1  UNL     1    -111.913 -16.386  88.250  1.00  0.00    -0.342 OA
ATOM     17  H1  UNL     1    -111.165 -15.810  88.349  1.00  0.00     0.219 HD
ENDBRANCH   1  16
BRANCH   2  18
HETATM   18  N1  UNL     1    -114.907 -16.184  88.629  1.00  0.00    -0.363 N
HETATM   19  C3  UNL     1    -115.300 -14.904  89.239  1.00  0.00     0.124 C
HETATM   20  C4  UNL     1    -115.791 -15.212  90.620  1.00  0.00     0.021 C
HETATM   21  C5  UNL     1    -116.084 -16.686  90.643  1.00  0.00     0.021 C
HETATM   22  C6  UNL     1    -115.325 -17.269  89.451  1.00  0.00     0.124 C
ENDBRANCH   2  18
BRANCH   3  23
HETATM   23  C7  UNL     1    -116.061 -16.133  85.673  1.00  0.00     0.173 C
BRANCH  23  24
HETATM   24  C8  UNL     1    -116.878 -17.303  86.110  1.00  0.00    -0.018 A
HETATM   25  C9  UNL     1    -116.604 -18.605  85.749  1.00  0.00     0.010 A
HETATM   26  C10 UNL     1    -117.400 -19.664  86.183  1.00  0.00     0.001 A
HETATM   27  C11 UNL     1    -118.488 -19.399  86.995  1.00  0.00     0.002 A
HETATM   28  C12 UNL     1    -118.754 -18.096  87.352  1.00  0.00     0.024 A
HETATM   29  C13 UNL     1    -117.961 -17.044  86.918  1.00  0.00     0.042 A
HETATM   30 CL1  UNL     1    -118.337 -15.421  87.393  1.00  0.00    -0.084 Cl
ENDBRANCH  23  24
ENDBRANCH   3  23
TORSDOF 6
ENDMDL