MODEL 4
REMARK VINA RESULT: -7.673731415      2.454      3.338
REMARK  7 active torsions:
REMARK  status: ('A' for Active; 'I' for Inactive)
REMARK    1  A    between atoms: C2_2  and  O1_3
REMARK    2  A    between atoms: O1_3  and  C3_4
REMARK    3  A    between atoms: C3_4  and  C4_6
REMARK    4  A    between atoms: C5_7  and  N1_8
REMARK    5  A    between atoms: N1_8  and  C6_10
REMARK    6  A    between atoms: C7_13  and  C8_14
REMARK    7  A    between atoms: C16_26  and  C17_27
ROOT
HETATM    1  C4  UNL     1    -111.532 -14.987  85.921  1.00  0.00     0.087 A
HETATM    2  C5  UNL     1    -112.825 -15.087  85.528  1.00  0.00     0.079 A
HETATM    3  C11 UNL     1    -113.025 -15.225  84.118  1.00  0.00     0.067 A
HETATM    4  C12 UNL     1    -114.249 -15.333  83.513  1.00  0.00     0.034 A
HETATM    5  C13 UNL     1    -114.022 -15.438  82.170  1.00  0.00     0.020 A
HETATM    6  C14 UNL     1    -112.629 -15.400  82.007  1.00  0.00     0.098 A
HETATM    7  N3  UNL     1    -112.027 -15.265  83.214  1.00  0.00    -0.318 N
HETATM    8  C15 UNL     1    -110.712 -15.173  83.608  1.00  0.00     0.064 A
HETATM    9  C16 UNL     1    -109.585 -15.300  82.851  1.00  0.00    -0.019 A
HETATM   10  C20 UNL     1    -108.368 -15.242  83.553  1.00  0.00     0.060 A
HETATM   11  S2  UNL     1    -108.839 -15.044  85.169  1.00  0.00    -0.098 SA
HETATM   12  C21 UNL     1    -110.517 -15.034  84.950  1.00  0.00     0.051 A
ENDROOT
BRANCH   2  13
HETATM   13  N1  UNL     1    -113.900 -15.199  86.389  1.00  0.00    -0.334 N
ATOM     14  H1  UNL     1    -114.225 -14.314  86.779  1.00  0.00     0.168 HD
BRANCH  13  15
HETATM   15  C6  UNL     1    -114.548 -16.211  86.775  1.00  0.00     0.149 A
HETATM   16  N2  UNL     1    -115.455 -17.021  86.197  1.00  0.00    -0.335 N
HETATM   17  C7  UNL     1    -115.873 -18.048  86.863  1.00  0.00     0.089 A
ATOM     18  H2  UNL     1    -115.804 -16.830  85.257  1.00  0.00     0.168 HD
HETATM   19  C10 UNL     1    -115.395 -18.299  88.108  1.00  0.00     0.084 A
HETATM   20  S1  UNL     1    -114.320 -17.000  88.314  1.00  0.00    -0.064 SA
BRANCH  17  21
HETATM   21  C8  UNL     1    -116.986 -18.956  86.291  1.00  0.00     0.282 C
HETATM   22  C9  UNL     1    -118.021 -19.177  87.334  1.00  0.00     0.097 C
HETATM   23  F1  UNL     1    -117.593 -18.218  85.247  1.00  0.00    -0.200 F
HETATM   24  F2  UNL     1    -116.452 -20.097  85.749  1.00  0.00    -0.200 F
ENDBRANCH  17  21
ENDBRANCH  13  15
ENDBRANCH   2  13
BRANCH   1  25
HETATM   25  C3  UNL     1    -111.036 -14.886  87.291  1.00  0.00     0.297 C
HETATM   26  O2  UNL     1    -110.785 -15.875  87.971  1.00  0.00    -0.259 OA
BRANCH  25  27
HETATM   27  O1  UNL     1    -110.879 -13.588  87.818  1.00  0.00    -0.318 OA
BRANCH  27  28
HETATM   28  C2  UNL     1    -111.430 -13.197  89.039  1.00  0.00     0.174 C
HETATM   29  C1  UNL     1    -112.934 -13.226  89.082  1.00  0.00     0.034 C
ENDBRANCH  27  28
ENDBRANCH  25  27
ENDBRANCH   1  25
BRANCH   9  30
HETATM   30  C17 UNL     1    -109.395 -15.405  81.353  1.00  0.00     0.013 C
HETATM   31  C18 UNL     1    -107.891 -15.744  81.137  1.00  0.00     0.015 C
HETATM   32  C19 UNL     1    -109.411 -13.942  80.745  1.00  0.00     0.015 C
ENDBRANCH   9  30
TORSDOF 7
ENDMDL