MODEL 4
REMARK VINA RESULT: -8.390848033      6.451      7.640
REMARK  5 active torsions:
REMARK  status: ('A' for Active; 'I' for Inactive)
REMARK    1  A    between atoms: C5_5  and  C6_6
REMARK    2  A    between atoms: C8_9  and  C9_10
REMARK    3  A    between atoms: C9_10  and  C10_11
REMARK    4  A    between atoms: C10_11  and  C11_12
REMARK    5  A    between atoms: C16_27  and  C17_28
ROOT
HETATM    1  C1  UNL     1    -109.226 -16.612  89.733  1.00  0.00     0.033 C
HETATM    2  C2  UNL     1    -110.712 -16.325  89.735  1.00  0.00     0.089 C
HETATM    3  C3  UNL     1    -111.489 -17.464  89.096  1.00  0.00     0.026 C
HETATM    4  C4  UNL     1    -111.275 -17.543  87.628  1.00  0.00     0.020 C
HETATM    5  C5  UNL     1    -111.461 -16.272  86.900  1.00  0.00     0.107 C
HETATM    6  C15 UNL     1    -111.365 -15.077  87.762  1.00  0.00     0.110 A
HETATM    7  N4  UNL     1    -111.593 -13.766  87.439  1.00  0.00    -0.286 N
ATOM      8  H4  UNL     1    -111.879 -13.429  86.519  1.00  0.00     0.188 HD
HETATM    9  N5  UNL     1    -111.389 -13.014  88.485  1.00  0.00    -0.282 N
ATOM     10  H5  UNL     1    -111.490 -11.999  88.514  1.00  0.00     0.188 HD
HETATM   11  C16 UNL     1    -111.015 -13.808  89.540  1.00  0.00     0.158 A
HETATM   12  N6  UNL     1    -111.014 -15.067  89.058  1.00  0.00    -0.313 N
ENDROOT
BRANCH   5  13
HETATM   13  C6  UNL     1    -112.800 -16.199  86.210  1.00  0.00     0.054 A
HETATM   14  C7  UNL     1    -114.042 -16.291  86.755  1.00  0.00     0.141 A
HETATM   15  N1  UNL     1    -114.954 -16.169  85.742  1.00  0.00    -0.159 N
HETATM   16  C8  UNL     1    -116.283 -16.148  85.532  1.00  0.00     0.050 A
HETATM   17  C14 UNL     1    -114.280 -16.005  84.591  1.00  0.00     0.689 A
HETATM   18  C13 UNL     1    -116.442 -15.959  84.158  1.00  0.00     0.132 A
HETATM   19  N2  UNL     1    -115.214 -15.880  83.644  1.00  0.00    -0.199 N
ATOM     20  H2  UNL     1    -115.013 -15.741  82.654  1.00  0.00     0.183 HD
HETATM   21  N3  UNL     1    -112.968 -16.026  84.890  1.00  0.00    -0.193 N
ATOM     22  H3  UNL     1    -112.213 -15.925  84.212  1.00  0.00     0.184 HD
BRANCH  16  23
HETATM   23  C9  UNL     1    -117.383 -16.308  86.490  1.00  0.00     0.062 C
BRANCH  23  24
HETATM   24  C10 UNL     1    -118.245 -17.489  86.382  1.00  0.00     0.048 C
BRANCH  24  25
HETATM   25  C11 UNL     1    -117.742 -18.831  86.743  1.00  0.00     0.110 C
HETATM   26  C12 UNL     1    -118.892 -19.665  87.385  1.00  0.00     0.050 C
HETATM   27 CL1  UNL     1    -116.427 -18.888  87.892  1.00  0.00    -0.102 Cl
HETATM   28 CL2  UNL     1    -117.393 -19.752  85.235  1.00  0.00    -0.102 Cl
ENDBRANCH  24  25
ENDBRANCH  23  24
ENDBRANCH  16  23
ENDBRANCH   5  13
BRANCH  11  29
HETATM   29  C17 UNL     1    -110.707 -13.286  90.864  1.00  0.00     0.120 A
HETATM   30  C18 UNL     1    -109.613 -12.705  91.409  1.00  0.00     0.043 A
HETATM   31  C19 UNL     1    -109.899 -12.408  92.742  1.00  0.00     0.027 A
HETATM   32  C20 UNL     1    -111.186 -12.836  92.943  1.00  0.00     0.142 A
HETATM   33  O1  UNL     1    -111.619 -13.334  91.843  1.00  0.00    -0.319 OA
ENDBRANCH  11  29
TORSDOF 5
ENDMDL