MODEL 5
REMARK VINA RESULT: -8.135148065      2.877      7.451
REMARK  5 active torsions:
REMARK  status: ('A' for Active; 'I' for Inactive)
REMARK    1  A    between atoms: C2_2  and  C3_3
REMARK       I    between atoms: C3_3  and  N1_5
REMARK    2  A    between atoms: N1_5  and  C4_7
REMARK    3  A    between atoms: C10_15  and  C11_16
REMARK    4  A    between atoms: C17_24  and  C18_25
REMARK    5  A    between atoms: N3_26  and  C19_28
ROOT
HETATM    1  C4  UNL     1    -111.522 -15.995  87.957  1.00  0.00     0.098 A
HETATM    2  S1  UNL     1    -112.868 -16.864  87.200  1.00  0.00    -0.074 SA
HETATM    3  C5  UNL     1    -112.812 -16.203  85.658  1.00  0.00     0.009 A
HETATM    4  C6  UNL     1    -111.775 -15.332  85.734  1.00  0.00    -0.019 A
HETATM    5  C7  UNL     1    -111.113 -15.227  86.916  1.00  0.00     0.086 A
HETATM    6  C8  UNL     1    -109.972 -14.287  87.052  1.00  0.00     0.103 C
HETATM    7  N2  UNL     1    -109.079 -13.536  87.117  1.00  0.00    -0.191 NA
HETATM    8  C9  UNL     1    -111.376 -14.505  84.514  1.00  0.00     0.053 C
HETATM    9  C10 UNL     1    -111.370 -15.352  83.274  1.00  0.00     0.054 C
HETATM   10  C15 UNL     1    -112.704 -15.141  82.568  1.00  0.00     0.091 C
HETATM   11  C16 UNL     1    -113.780 -15.626  83.472  1.00  0.00     0.141 C
HETATM   12  O3  UNL     1    -114.865 -15.130  83.245  1.00  0.00    -0.297 OA
HETATM   13  C17 UNL     1    -113.753 -16.588  84.573  1.00  0.00     0.134 C
ENDROOT
BRANCH   1  14
HETATM   14  N1  UNL     1    -111.137 -16.196  89.304  1.00  0.00    -0.320 N
HETATM   15  C3  UNL     1    -111.130 -17.257  90.187  1.00  0.00     0.222 C
HETATM   16  O1  UNL     1    -111.478 -18.437  90.073  1.00  0.00    -0.273 OA
ATOM     17  H1  UNL     1    -110.772 -15.343  89.728  1.00  0.00     0.169 HD
BRANCH  15  18
HETATM   18  C2  UNL     1    -110.589 -16.940  91.589  1.00  0.00     0.098 C
HETATM   19  C1  UNL     1    -111.142 -17.906  92.573  1.00  0.00     0.014 C
ENDBRANCH  15  18
ENDBRANCH   1  14
BRANCH  13  20
HETATM   20  C18 UNL     1    -115.115 -16.750  85.159  1.00  0.00     0.075 C
HETATM   21  N3  UNL     1    -115.451 -17.925  85.515  1.00  0.00    -0.380 N
ATOM     22  H3  UNL     1    -114.761 -18.663  85.372  1.00  0.00     0.160 HD
BRANCH  21  23
HETATM   23  C19 UNL     1    -116.680 -18.310  86.089  1.00  0.00     0.100 C
HETATM   24  C20 UNL     1    -116.577 -18.677  87.550  1.00  0.00     0.056 C
HETATM   25  C21 UNL     1    -117.231 -19.492  85.326  1.00  0.00     0.056 C
HETATM   26 CL1  UNL     1    -117.820 -16.937  85.876  1.00  0.00    -0.097 Cl
ENDBRANCH  21  23
ENDBRANCH  13  20
BRANCH   9  27
HETATM   27  C11 UNL     1    -110.233 -15.047  82.386  1.00  0.00     0.057 A
HETATM   28  C12 UNL     1    -108.930 -15.407  82.626  1.00  0.00     0.035 A
HETATM   29  C13 UNL     1    -108.190 -14.924  81.542  1.00  0.00     0.027 A
HETATM   30  C14 UNL     1    -109.114 -14.305  80.731  1.00  0.00     0.142 A
HETATM   31  O2  UNL     1    -110.318 -14.396  81.260  1.00  0.00    -0.327 OA
ENDBRANCH   9  27
TORSDOF 5
ENDMDL