MODEL 3
REMARK VINA RESULT: -7.621213609      4.171      8.281
REMARK  12 active torsions:
REMARK  status: ('A' for Active; 'I' for Inactive)
REMARK    1  A    between atoms: C2_2  and  C3_3
REMARK    2  A    between atoms: C3_3  and  N1_4
REMARK    3  A    between atoms: N1_4  and  C4_5
REMARK    4  A    between atoms: N1_4  and  C6_8
REMARK    5  A    between atoms: C4_5  and  C5_6
REMARK    6  A    between atoms: C8_10  and  C9_11
REMARK       I    between atoms: C9_11  and  N2_13
REMARK    7  A    between atoms: C12_16  and  C13_17
REMARK    8  A    between atoms: C13_17  and  N3_18
REMARK    9  A    between atoms: N3_18  and  C15_20
REMARK   10  A    between atoms: C19_27  and  N5_28
REMARK   11  A    between atoms: C24_36  and  O3_37
REMARK   12  A    between atoms: C24_36  and  C25_39
ROOT
HETATM    1  C6  UNL     1      16.583  -4.698 101.901  1.00  0.00     0.042 A
HETATM    2  C7  UNL     1      16.959  -5.904 102.524  1.00  0.00     0.065 A
HETATM    3  C8  UNL     1      18.154  -6.014 103.212  1.00  0.00     0.104 A
HETATM    4  N4  UNL     1      18.922  -4.920 103.248  1.00  0.00    -0.337 N
ATOM      5  H4  UNL     1      19.808  -4.982 103.750  1.00  0.00     0.167 HD
HETATM    6  C19 UNL     1      18.616  -3.761 102.680  1.00  0.00     0.114 A
HETATM    7  C27 UNL     1      17.409  -3.630 101.979  1.00  0.00     0.009 A
HETATM    8  C28 UNL     1      17.069  -2.332 101.360  1.00  0.00     0.054 C
ENDROOT
BRANCH   3   9
HETATM    9  C9  UNL     1      18.477  -7.290 103.835  1.00  0.00     0.270 C
HETATM   10  O1  UNL     1      18.519  -8.303 103.030  1.00  0.00    -0.266 OA
HETATM   11  N2  UNL     1      18.745  -7.572 105.168  1.00  0.00    -0.346 N
HETATM   12  C10 UNL     1      18.775  -6.678 106.280  1.00  0.00     0.126 C
HETATM   13  C18 UNL     1      19.034  -9.009 105.470  1.00  0.00     0.142 C
HETATM   14  C11 UNL     1      20.100  -6.730 107.032  1.00  0.00     0.027 C
HETATM   15  C12 UNL     1      20.886  -7.960 106.668  1.00  0.00     0.032 C
HETATM   16  C17 UNL     1      19.892  -9.120 106.686  1.00  0.00     0.082 C
HETATM   17  S1  UNL     1      20.853 -10.665 106.680  1.00  0.00    -0.090 SA
BRANCH  15  18
HETATM   18  C13 UNL     1      21.994  -8.182 107.665  1.00  0.00     0.277 C
BRANCH  18  19
HETATM   19  N3  UNL     1      21.413  -8.592 108.914  1.00  0.00     0.084 N
HETATM   20  C14 UNL     1      20.978  -7.453 109.683  1.00  0.00     0.309 C
BRANCH  19  21
HETATM   21  C15 UNL     1      22.291  -9.458 109.654  1.00  0.00     0.267 C
HETATM   22  C16 UNL     1      22.834  -8.798 110.905  1.00  0.00     0.037 C
ENDBRANCH  19  21
ENDBRANCH  18  19
ENDBRANCH  15  18
ENDBRANCH   3   9
BRANCH   1  23
HETATM   23  N1  UNL     1      15.329  -4.763 101.226  1.00  0.00    -0.379 N
BRANCH  23  24
HETATM   24  C3  UNL     1      15.273  -5.187  99.877  1.00  0.00     0.122 C
BRANCH  24  25
HETATM   25  C2  UNL     1      16.243  -4.681  98.896  1.00  0.00     0.015 C
HETATM   26  C1  UNL     1      17.411  -5.500  98.536  1.00  0.00     0.006 C
ENDBRANCH  24  25
ENDBRANCH  23  24
BRANCH  23  27
HETATM   27  C4  UNL     1      14.117  -4.445 101.940  1.00  0.00     0.138 C
BRANCH  27  28
HETATM   28  C5  UNL     1      13.227  -5.668 102.103  1.00  0.00     0.134 C
HETATM   29 CL1  UNL     1      13.609  -6.407 103.669  1.00  0.00    -0.129 Cl
ENDBRANCH  27  28
ENDBRANCH  23  27
ENDBRANCH   1  23
BRANCH   6  30
HETATM   30  N5  UNL     1      19.456  -2.653 102.749  1.00  0.00    -0.339 N
HETATM   31  C20 UNL     1      20.550  -2.479 102.120  1.00  0.00     0.101 A
HETATM   32  C21 UNL     1      21.219  -3.354 101.173  1.00  0.00     0.214 A
HETATM   33  C24 UNL     1      21.397  -1.279 102.243  1.00  0.00     0.123 A
HETATM   34  O2  UNL     1      20.756  -4.479 100.837  1.00  0.00    -0.285 OA
HETATM   35  C22 UNL     1      22.437  -2.696 100.739  1.00  0.00     0.062 A
HETATM   36 BR1  UNL     1      23.695  -3.423  99.486  1.00  0.00    -0.047 Br
HETATM   37  C23 UNL     1      22.533  -1.535 101.342  1.00  0.00     0.040 A
ATOM     38  H5  UNL     1      19.165  -1.900 103.372  1.00  0.00     0.167 HD
BRANCH  33  39
HETATM   39  O3  UNL     1      21.804  -1.055 103.559  1.00  0.00    -0.379 OA
ATOM     40  H3  UNL     1      22.686  -1.370 103.721  1.00  0.00     0.211 HD
ENDBRANCH  33  39
BRANCH  33  41
HETATM   41  C25 UNL     1      20.643  -0.089 101.688  1.00  0.00     0.044 C
HETATM   42  C26 UNL     1      21.669   0.886 101.174  1.00  0.00     0.009 C
ENDBRANCH  33  41
ENDBRANCH   6  30
TORSDOF 12
ENDMDL