MODEL 2
REMARK VINA RESULT: -9.254519555      0.479      1.306
REMARK  14 active torsions:
REMARK  status: ('A' for Active; 'I' for Inactive)
REMARK    1  A    between atoms: C2_2  and  C3_3
REMARK    2  A    between atoms: C2_2  and  N5_31
REMARK    3  A    between atoms: C3_3  and  C4_4
REMARK    4  A    between atoms: C4_4  and  C5_5
REMARK    5  A    between atoms: C5_5  and  N1_6
REMARK    6  A    between atoms: C8_9  and  C9_10
REMARK    7  A    between atoms: C9_10  and  C10_11
REMARK    8  A    between atoms: C10_11  and  N2_12
REMARK    9  A    between atoms: N2_12  and  C11_13
REMARK   10  A    between atoms: N2_12  and  C16_24
REMARK   11  A    between atoms: C11_13  and  C12_14
REMARK   12  A    between atoms: C12_14  and  N3_15
REMARK   13  A    between atoms: C13_16  and  O1_17
REMARK   14  A    between atoms: N5_31  and  C22_33
ROOT
HETATM    1  N1  UNL     1      19.400  -7.494 105.893  1.00  0.00    -0.374 N
HETATM    2  C6  UNL     1      19.346  -6.213 106.434  1.00  0.00     0.063 C
HETATM    3  C7  UNL     1      19.093  -5.216 105.317  1.00  0.00     0.049 C
HETATM    4  C8  UNL     1      17.953  -5.642 104.391  1.00  0.00    -0.007 C
HETATM    5  C20 UNL     1      17.246  -6.854 104.926  1.00  0.00     0.025 C
HETATM    6  C21 UNL     1      18.188  -7.962 105.311  1.00  0.00     0.127 C
ENDROOT
BRANCH   4   7
HETATM    7  C9  UNL     1      18.586  -5.973 103.083  1.00  0.00     0.025 C
BRANCH   7   8
HETATM    8  C10 UNL     1      17.858  -6.535 101.967  1.00  0.00     0.131 C
BRANCH   8   9
HETATM    9  N2  UNL     1      17.304  -5.674 100.913  1.00  0.00    -0.336 N
BRANCH   9  10
HETATM   10  C11 UNL     1      18.083  -5.076  99.926  1.00  0.00     0.111 C
BRANCH  10  11
HETATM   11  C12 UNL     1      18.606  -3.723  99.912  1.00  0.00     0.121 C
BRANCH  11  12
HETATM   12  N3  UNL     1      18.869  -2.972 101.080  1.00  0.00    -0.252 N
HETATM   13  C13 UNL     1      20.060  -3.000 101.788  1.00  0.00     0.166 A
HETATM   14  C14 UNL     1      19.887  -2.238 102.909  1.00  0.00     0.149 A
HETATM   15  N4  UNL     1      18.645  -1.769 102.886  1.00  0.00    -0.314 N
HETATM   16  C15 UNL     1      18.019  -2.213 101.776  1.00  0.00     0.332 A
ATOM     17  H4  UNL     1      18.230  -1.166 103.597  1.00  0.00     0.170 HD
HETATM   18  O2  UNL     1      16.808  -1.894 101.539  1.00  0.00    -0.246 OA
BRANCH  13  19
HETATM   19  O1  UNL     1      21.204  -3.685 101.404  1.00  0.00    -0.345 OA
ATOM     20  H1  UNL     1      22.087  -3.332 101.422  1.00  0.00     0.219 HD
ENDBRANCH  13  19
ENDBRANCH  11  12
ENDBRANCH  10  11
ENDBRANCH   9  10
BRANCH   9  21
HETATM   21  C16 UNL     1      15.873  -5.563 101.044  1.00  0.00     0.149 A
HETATM   22  C17 UNL     1      15.044  -6.471 101.709  1.00  0.00     0.058 A
HETATM   23  C18 UNL     1      13.764  -5.974 101.598  1.00  0.00     0.029 A
HETATM   24  C19 UNL     1      13.840  -4.812 100.890  1.00  0.00     0.144 A
HETATM   25  O3  UNL     1      15.119  -4.612 100.582  1.00  0.00    -0.306 OA
ENDBRANCH   9  21
ENDBRANCH   8   9
ENDBRANCH   7   8
ENDBRANCH   4   7
BRANCH   1  26
HETATM   26  C5  UNL     1      20.467  -8.353 106.043  1.00  0.00     0.063 C
BRANCH  26  27
HETATM   27  C4  UNL     1      20.605  -9.004 107.380  1.00  0.00     0.046 C
BRANCH  27  28
HETATM   28  C3  UNL     1      21.886  -8.711 108.037  1.00  0.00     0.030 C
BRANCH  28  29
HETATM   29  C2  UNL     1      21.946  -9.189 109.515  1.00  0.00     0.079 C
HETATM   30  C1  UNL     1      22.659 -10.542 109.384  1.00  0.00     0.032 C
BRANCH  29  31
HETATM   31  N5  UNL     1      22.412  -8.270 110.404  1.00  0.00    -0.371 N
ATOM     32  H5  UNL     1      23.421  -8.164 110.297  1.00  0.00     0.161 HD
BRANCH  31  33
HETATM   33  C22 UNL     1      21.999  -7.516 111.308  1.00  0.00     0.118 A
HETATM   34  N6  UNL     1      20.726  -7.101 111.508  1.00  0.00    -0.350 N
HETATM   35  C23 UNL     1      20.366  -6.271 112.523  1.00  0.00     0.108 A
ATOM     36  H6  UNL     1      20.002  -7.426 110.866  1.00  0.00     0.166 HD
HETATM   37  C24 UNL     1      21.329  -5.822 113.397  1.00  0.00     0.027 A
HETATM   38 BR1  UNL     1      20.882  -4.657 114.843  1.00  0.00    -0.050 Br
HETATM   39  C25 UNL     1      22.649  -6.220 113.232  1.00  0.00     0.043 A
HETATM   40  C26 UNL     1      22.990  -7.052 112.208  1.00  0.00     0.056 A
HETATM   41 BR2  UNL     1      24.823  -7.584 111.944  1.00  0.00    -0.047 Br
ENDBRANCH  31  33
ENDBRANCH  29  31
ENDBRANCH  28  29
ENDBRANCH  27  28
ENDBRANCH  26  27
ENDBRANCH   1  26
TORSDOF 14
ENDMDL