MODEL 3
REMARK VINA RESULT: -8.864258573      1.224      1.552
REMARK  13 active torsions:
REMARK  status: ('A' for Active; 'I' for Inactive)
REMARK    1  A    between atoms: S1_2  and  C2_3
REMARK    2  A    between atoms: C2_3  and  C3_4
REMARK    3  A    between atoms: C3_4  and  C4_5
REMARK    4  A    between atoms: C4_5  and  C30_43
REMARK    5  A    between atoms: N1_6  and  C5_8
REMARK    6  A    between atoms: C5_8  and  C7_10
REMARK    7  A    between atoms: C8_13  and  O1_14
REMARK    8  A    between atoms: C9_16  and  C10_17
REMARK    9  A    between atoms: C10_17  and  C11_18
REMARK   10  A    between atoms: N3_21  and  C14_22
REMARK   11  A    between atoms: C14_22  and  C15_23
REMARK   12  A    between atoms: C29_40  and  O3_41
REMARK   13  A    between atoms: C30_43  and  C31_45
ROOT
HETATM    1  C7  UNL     1      16.588  -1.393  98.745  1.00  0.00     0.084 C
HETATM    2  N2  UNL     1      16.327  -1.835 100.066  1.00  0.00    -0.337 N
ATOM      3  H2  UNL     1      15.680  -1.154 100.463  1.00  0.00     0.167 HD
HETATM    4  C8  UNL     1      16.543  -2.747 101.044  1.00  0.00     0.154 C
HETATM    5  C9  UNL     1      16.118  -4.164 101.410  1.00  0.00     0.320 C
HETATM    6  N3  UNL     1      17.319  -4.878 101.789  1.00  0.00     0.105 N
HETATM    7  C21 UNL     1      18.095  -5.521 100.780  1.00  0.00     0.278 C
HETATM    8  C22 UNL     1      19.136  -4.745 100.062  1.00  0.00     0.017 C
HETATM    9  C23 UNL     1      20.577  -5.122 100.250  1.00  0.00     0.035 C
HETATM   10  C24 UNL     1      21.568  -4.076  99.946  1.00  0.00    -0.002 C
HETATM   11  C25 UNL     1      21.246  -2.716  99.585  1.00  0.00     0.133 C
HETATM   12  O2  UNL     1      20.882  -2.407  98.238  1.00  0.00    -0.338 OA
HETATM   13  C26 UNL     1      19.637  -2.853  98.082  1.00  0.00     0.227 C
HETATM   14  C27 UNL     1      19.763  -4.296  97.679  1.00  0.00     0.054 C
HETATM   15  C28 UNL     1      18.853  -4.993  98.614  1.00  0.00     0.011 C
HETATM   16  N4  UNL     1      18.620  -2.210  97.306  1.00  0.00    -0.343 N
ATOM     17  H4  UNL     1      18.903  -1.830  96.402  1.00  0.00     0.164 HD
HETATM   18  C29 UNL     1      17.252  -2.049  97.670  1.00  0.00     0.163 C
ENDROOT
BRANCH   1  19
HETATM   19  C5  UNL     1      16.635   0.172  98.616  1.00  0.00     0.132 C
HETATM   20  C6  UNL     1      18.024   0.652  98.895  1.00  0.00     0.039 C
BRANCH  19  21
HETATM   21  N1  UNL     1      15.950   0.649  97.548  1.00  0.00    -0.377 N
HETATM   22  C4  UNL     1      14.651   0.701  97.155  1.00  0.00     0.078 C
ATOM     23  H1  UNL     1      16.570   1.081  96.863  1.00  0.00     0.160 HD
BRANCH  22  24
HETATM   24  C3  UNL     1      13.757  -0.383  96.803  1.00  0.00     0.016 C
BRANCH  24  25
HETATM   25  C2  UNL     1      13.116  -1.367  97.670  1.00  0.00     0.103 C
BRANCH  25  26
HETATM   26  S1  UNL     1      11.328  -0.809  97.750  1.00  0.00    -0.170 SA
HETATM   27  C1  UNL     1      10.666  -0.626  96.103  1.00  0.00     0.090 C
ENDBRANCH  25  26
ENDBRANCH  24  25
ENDBRANCH  22  24
BRANCH  22  28
HETATM   28  C30 UNL     1      14.240   1.977  96.543  1.00  0.00     0.246 C
HETATM   29  O4  UNL     1      15.050   2.438  95.649  1.00  0.00    -0.284 OA
BRANCH  28  30
HETATM   30  C31 UNL     1      13.079   2.834  96.688  1.00  0.00     0.305 C
HETATM   31  C32 UNL     1      12.658   2.823  98.199  1.00  0.00     0.099 C
HETATM   32  F1  UNL     1      13.264   4.188  96.346  1.00  0.00    -0.198 F
HETATM   33  F2  UNL     1      11.997   2.419  95.994  1.00  0.00    -0.198 F
ENDBRANCH  28  30
ENDBRANCH  22  28
ENDBRANCH  19  21
ENDBRANCH   1  19
BRANCH  18  34
HETATM   34  O3  UNL     1      16.483  -2.669  96.774  1.00  0.00    -0.345 OA
ATOM     35  H3  UNL     1      16.401  -2.259  95.920  1.00  0.00     0.219 HD
ENDBRANCH  18  34
BRANCH   4  36
HETATM   36  O1  UNL     1      17.361  -2.358 102.011  1.00  0.00    -0.347 OA
ATOM     37  H1  UNL     1      17.072  -2.559 102.893  1.00  0.00     0.219 HD
ENDBRANCH   4  36
BRANCH   5  38
HETATM   38  C10 UNL     1      15.162  -4.731 100.463  1.00  0.00     0.019 C
BRANCH  38  39
HETATM   39  C11 UNL     1      13.895  -5.358 100.799  1.00  0.00    -0.089 C
HETATM   40  C12 UNL     1      13.406  -5.761 102.110  1.00  0.00     0.042 C
HETATM   41  C13 UNL     1      12.730  -4.653 100.008  1.00  0.00     0.042 C
ENDBRANCH  38  39
ENDBRANCH   5  38
BRANCH   6  42
HETATM   42  C14 UNL     1      17.191  -5.783 102.880  1.00  0.00     0.278 C
BRANCH  42  43
HETATM   43  C15 UNL     1      18.509  -6.304 103.452  1.00  0.00     0.014 C
HETATM   44  C16 UNL     1      18.653  -5.974 104.903  1.00  0.00     0.006 C
HETATM   45  C17 UNL     1      19.208  -7.113 105.727  1.00  0.00     0.000 C
HETATM   46  C18 UNL     1      18.300  -8.292 105.692  1.00  0.00     0.000 C
HETATM   47  C19 UNL     1      17.645  -8.458 104.335  1.00  0.00     0.000 C
HETATM   48  C20 UNL     1      18.496  -7.807 103.295  1.00  0.00     0.006 C
ENDBRANCH  42  43
ENDBRANCH   6  42
TORSDOF 13
ENDMDL