MODEL 5
REMARK VINA RESULT: -9.344289701      2.713      5.253
REMARK  13 active torsions:
REMARK  status: ('A' for Active; 'I' for Inactive)
REMARK    1  A    between atoms: C2_2  and  C4_4
REMARK       I    between atoms: C4_4  and  N1_6
REMARK    2  A    between atoms: N1_6  and  C5_8
REMARK    3  A    between atoms: C8_12  and  C9_13
REMARK    4  A    between atoms: C9_13  and  O3_15
REMARK    5  A    between atoms: O3_15  and  C10_16
REMARK    6  A    between atoms: C10_16  and  C11_17
REMARK    7  A    between atoms: C11_17  and  C12_18
REMARK    8  A    between atoms: C12_18  and  N2_21
REMARK       I    between atoms: N2_21  and  C13_23
REMARK    9  A    between atoms: C13_23  and  C14_25
REMARK   10  A    between atoms: C14_25  and  C15_26
REMARK   11  A    between atoms: C14_25  and  N3_33
REMARK   12  A    between atoms: C15_26  and  C16_27
REMARK       I    between atoms: N3_33  and  C22_35
REMARK   13  A    between atoms: C22_35  and  C23_37
REMARK       I    between atoms: N4_41  and  C27_42
ROOT
HETATM    1  N2  UNL     1      18.345  -6.386 103.147  1.00  0.00    -0.324 N
ATOM      2  H2  UNL     1      18.394  -6.737 102.190  1.00  0.00     0.165 HD
HETATM    3  C13 UNL     1      18.471  -4.995 103.372  1.00  0.00     0.242 C
HETATM    4  O4  UNL     1      18.441  -4.527 104.526  1.00  0.00    -0.271 OA
ENDROOT
BRANCH   1   5
HETATM    5  C12 UNL     1      18.150  -7.326 104.222  1.00  0.00     0.190 C
HETATM    6 CL1  UNL     1      18.314  -8.963 103.497  1.00  0.00    -0.078 Cl
HETATM    7 CL2  UNL     1      16.495  -7.188 104.839  1.00  0.00    -0.078 Cl
BRANCH   5   8
HETATM    8  C11 UNL     1      19.190  -7.140 105.318  1.00  0.00     0.092 C
BRANCH   8   9
HETATM    9  C10 UNL     1      19.248  -8.399 106.147  1.00  0.00     0.184 C
BRANCH   9  10
HETATM   10  O3  UNL     1      19.248  -8.108 107.540  1.00  0.00    -0.317 OA
BRANCH  10  11
HETATM   11  C9  UNL     1      20.325  -7.516 108.186  1.00  0.00     0.296 C
HETATM   12  O2  UNL     1      20.319  -6.276 108.227  1.00  0.00    -0.259 OA
BRANCH  11  13
HETATM   13  C8  UNL     1      21.428  -8.331 108.795  1.00  0.00     0.073 A
HETATM   14  C5  UNL     1      21.745  -8.222 110.115  1.00  0.00     0.093 A
HETATM   15  S1  UNL     1      23.071  -9.330 110.278  1.00  0.00    -0.083 SA
HETATM   16  C6  UNL     1      23.158  -9.877 108.669  1.00  0.00     0.053 A
HETATM   17  C7  UNL     1      22.159  -9.183 108.055  1.00  0.00     0.028 A
BRANCH  14  18
HETATM   18  N1  UNL     1      21.190  -7.414 111.178  1.00  0.00    -0.317 N
HETATM   19  C4  UNL     1      22.107  -6.785 112.070  1.00  0.00     0.251 C
HETATM   20  O1  UNL     1      23.325  -6.942 111.915  1.00  0.00    -0.268 OA
ATOM     21  H1  UNL     1      20.182  -7.299 111.285  1.00  0.00     0.169 HD
BRANCH  19  22
HETATM   22  C2  UNL     1      21.621  -5.958 113.163  1.00  0.00    -0.003 C
HETATM   23  C1  UNL     1      22.477  -5.408 113.999  1.00  0.00     0.024 C
HETATM   24  C3  UNL     1      20.138  -5.742 113.328  1.00  0.00     0.053 C
ENDBRANCH  19  22
ENDBRANCH  14  18
ENDBRANCH  11  13
ENDBRANCH  10  11
ENDBRANCH   9  10
ENDBRANCH   8   9
ENDBRANCH   5   8
ENDBRANCH   1   5
BRANCH   3  25
HETATM   25  C14 UNL     1      18.646  -4.030 102.249  1.00  0.00     0.177 C
BRANCH  25  26
HETATM   26  C15 UNL     1      20.176  -3.955 102.071  1.00  0.00     0.039 C
BRANCH  26  27
HETATM   27  C16 UNL     1      20.524  -3.839 100.633  1.00  0.00    -0.012 C
HETATM   28  C17 UNL     1      20.850  -5.245 100.096  1.00  0.00     0.005 C
HETATM   29  C18 UNL     1      20.946  -5.155  98.604  1.00  0.00     0.000 C
HETATM   30  C19 UNL     1      21.974  -4.098  98.272  1.00  0.00     0.000 C
HETATM   31  C20 UNL     1      22.744  -3.663  99.488  1.00  0.00     0.000 C
HETATM   32  C21 UNL     1      21.911  -3.134 100.603  1.00  0.00     0.005 C
ENDBRANCH  26  27
ENDBRANCH  25  26
BRANCH  25  33
HETATM   33  N3  UNL     1      17.983  -4.463 101.047  1.00  0.00    -0.346 N
HETATM   34  C22 UNL     1      16.641  -4.344 100.686  1.00  0.00     0.241 C
HETATM   35  O5  UNL     1      15.773  -3.796 101.395  1.00  0.00    -0.271 OA
ATOM     36  H3  UNL     1      18.580  -4.924 100.361  1.00  0.00     0.163 HD
BRANCH  34  37
HETATM   37  C23 UNL     1      16.111  -4.878  99.378  1.00  0.00     0.179 C
HETATM   38  C24 UNL     1      17.279  -5.205  98.473  1.00  0.00     0.037 C
HETATM   39  C25 UNL     1      17.582  -3.858  97.860  1.00  0.00     0.022 C
HETATM   40  C26 UNL     1      16.265  -3.145  97.845  1.00  0.00     0.127 C
HETATM   41  N4  UNL     1      15.352  -3.888  98.701  1.00  0.00    -0.339 N
HETATM   42  C27 UNL     1      13.976  -3.633  98.800  1.00  0.00     0.216 C
HETATM   43  C28 UNL     1      13.075  -4.414  99.693  1.00  0.00     0.117 C
HETATM   44  O6  UNL     1      13.418  -2.706  98.123  1.00  0.00    -0.274 OA
ENDBRANCH  34  37
ENDBRANCH  25  33
ENDBRANCH   3  25
TORSDOF 13
ENDMDL