MODEL 5
REMARK VINA RESULT: -7.497391976      1.644      3.778
REMARK  15 active torsions:
REMARK  status: ('A' for Active; 'I' for Inactive)
REMARK    1  A    between atoms: C3_3  and  N1_4
REMARK    2  A    between atoms: C5_6  and  C6_7
REMARK    3  A    between atoms: C7_10  and  C8_11
REMARK       I    between atoms: C8_11  and  N3_13
REMARK    4  A    between atoms: N3_13  and  C9_14
REMARK    5  A    between atoms: N3_13  and  C11_18
REMARK    6  A    between atoms: C9_14  and  C10_15
REMARK    7  A    between atoms: C11_18  and  C12_19
REMARK    8  A    between atoms: C11_18  and  S1_23
REMARK    9  A    between atoms: C12_19  and  C13_20
REMARK   10  A    between atoms: S1_23  and  C16_26
REMARK   11  A    between atoms: C16_26  and  C17_27
REMARK   12  A    between atoms: C17_27  and  C18_28
REMARK   13  A    between atoms: C18_28  and  O7_29
REMARK   14  A    between atoms: C23_36  and  C24_37
REMARK   15  A    between atoms: C25_38  and  C26_39
ROOT
HETATM    1  N1  UNL     1      19.503  -7.428 106.117  1.00  0.00    -0.330 N
HETATM    2  C4  UNL     1      18.358  -7.912 105.621  1.00  0.00     0.114 A
HETATM    3  C5  UNL     1      17.754  -6.994 104.761  1.00  0.00     0.062 A
HETATM    4  C7  UNL     1      18.586  -5.901 104.742  1.00  0.00     0.065 A
HETATM    5  C19 UNL     1      19.635  -6.206 105.579  1.00  0.00     0.115 A
ENDROOT
BRANCH   4   6
HETATM    6  C8  UNL     1      18.449  -4.671 104.000  1.00  0.00     0.261 C
HETATM    7  O2  UNL     1      18.170  -3.653 104.671  1.00  0.00    -0.267 OA
HETATM    8  N3  UNL     1      18.615  -4.550 102.562  1.00  0.00    -0.298 N
BRANCH   8   9
HETATM    9  C9  UNL     1      18.924  -5.684 101.787  1.00  0.00     0.180 C
BRANCH   9  10
HETATM   10  C10 UNL     1      19.461  -5.544 100.458  1.00  0.00     0.215 C
HETATM   11  O3  UNL     1      20.666  -5.367 100.189  1.00  0.00    -0.643 OA
HETATM   12  O4  UNL     1      18.586  -5.607  99.374  1.00  0.00    -0.643 OA
ENDBRANCH   9  10
ENDBRANCH   8   9
BRANCH   8  13
HETATM   13  C11 UNL     1      18.577  -3.200 102.023  1.00  0.00     0.215 C
BRANCH  13  14
HETATM   14  C12 UNL     1      19.966  -2.836 101.624  1.00  0.00     0.045 C
BRANCH  14  15
HETATM   15  C13 UNL     1      20.638  -1.740 102.346  1.00  0.00    -0.020 C
HETATM   16  C14 UNL     1      20.471  -0.440 101.532  1.00  0.00     0.009 C
HETATM   17  C15 UNL     1      22.192  -1.953 102.289  1.00  0.00     0.009 C
ENDBRANCH  14  15
ENDBRANCH  13  14
BRANCH  13  18
HETATM   18  S1  UNL     1      17.275  -2.851 100.940  1.00  0.00     0.166 S
HETATM   19  O5  UNL     1      16.625  -1.540 101.454  1.00  0.00    -0.226 OA
HETATM   20  O6  UNL     1      17.787  -2.427  99.563  1.00  0.00    -0.226 OA
BRANCH  18  21
HETATM   21  C16 UNL     1      15.995  -3.974 100.685  1.00  0.00     0.144 C
BRANCH  21  22
HETATM   22  C17 UNL     1      15.143  -4.329 101.851  1.00  0.00     0.041 C
BRANCH  22  23
HETATM   23  C18 UNL     1      13.999  -5.232 101.520  1.00  0.00     0.165 C
BRANCH  23  24
HETATM   24  O7  UNL     1      13.265  -5.372 102.740  1.00  0.00    -0.401 OA
ATOM     25  H7  UNL     1      12.759  -4.572 102.820  1.00  0.00     0.209 HD
ENDBRANCH  23  24
ENDBRANCH  22  23
ENDBRANCH  21  22
ENDBRANCH  18  21
ENDBRANCH  13  18
ENDBRANCH   8  13
ENDBRANCH   4   6
BRANCH   3  26
HETATM   26  C6  UNL     1      16.507  -7.157 104.033  1.00  0.00     0.267 C
HETATM   27  N2  UNL     1      15.240  -7.002 104.660  1.00  0.00    -0.057 NA
HETATM   28  O1  UNL     1      16.547  -7.443 102.814  1.00  0.00    -0.271 OA
ENDBRANCH   3  26
BRANCH   1  29
HETATM   29  C3  UNL     1      20.425  -8.019 107.017  1.00  0.00     0.045 A
HETATM   30  C2  UNL     1      20.474  -7.579 108.318  1.00  0.00    -0.014 A
HETATM   31  C1  UNL     1      19.575  -6.502 108.775  1.00  0.00     0.052 C
HETATM   32  C23 UNL     1      21.373  -8.144 109.227  1.00  0.00     0.047 A
HETATM   33  C22 UNL     1      22.212  -9.150 108.795  1.00  0.00     0.053 A
HETATM   34  C21 UNL     1      22.180  -9.611 107.482  1.00  0.00     0.028 A
HETATM   35 CL1  UNL     1      23.333  -9.859 109.919  1.00  0.00    -0.083 Cl
HETATM   36  C20 UNL     1      21.289  -9.041 106.614  1.00  0.00     0.032 A
BRANCH  32  37
HETATM   37  C24 UNL     1      21.390  -7.651 110.584  1.00  0.00    -0.063 C
HETATM   38  C25 UNL     1      21.414  -7.248 111.732  1.00  0.00    -0.075 C
BRANCH  38  39
HETATM   39  C26 UNL     1      21.459  -6.777 113.116  1.00  0.00     0.093 C
HETATM   40  C27 UNL     1      21.835  -5.313 113.200  1.00  0.00     0.046 C
HETATM   41  C28 UNL     1      22.538  -7.562 113.828  1.00  0.00     0.046 C
HETATM   42 CL2  UNL     1      19.870  -6.970 113.888  1.00  0.00    -0.106 Cl
ENDBRANCH  38  39
ENDBRANCH  32  37
ENDBRANCH   1  29
TORSDOF 15
ENDMDL