MODEL 4
REMARK VINA RESULT: -8.508344622      1.483      2.648
REMARK  14 active torsions:
REMARK  status: ('A' for Active; 'I' for Inactive)
REMARK    1  A    between atoms: C2_2  and  C4_4
REMARK    2  A    between atoms: C4_4  and  N1_5
REMARK       I    between atoms: N1_5  and  C5_7
REMARK    3  A    between atoms: C5_7  and  C6_9
REMARK    4  A    between atoms: C6_9  and  C7_10
REMARK    5  A    between atoms: C6_9  and  N2_14
REMARK    6  A    between atoms: C7_10  and  C8_11
REMARK       I    between atoms: N2_14  and  C9_16
REMARK    7  A    between atoms: C9_16  and  C10_18
REMARK    8  A    between atoms: N3_21  and  C13_22
REMARK    9  A    between atoms: C13_22  and  C14_23
REMARK   10  A    between atoms: C14_23  and  C15_25
REMARK   11  A    between atoms: C20_31  and  C21_32
REMARK   12  A    between atoms: C26_38  and  O6_39
REMARK   13  A    between atoms: C26_38  and  O7_41
REMARK   14  A    between atoms: O7_41  and  C27_42
ROOT
HETATM    1  N2  UNL     1      18.167  -6.778 105.243  1.00  0.00    -0.322 N
ATOM      2  H2  UNL     1      17.892  -7.726 105.502  1.00  0.00     0.169 HD
HETATM    3  C9  UNL     1      19.168  -6.233 106.066  1.00  0.00     0.248 C
HETATM    4  O4  UNL     1      19.415  -4.997 105.948  1.00  0.00    -0.268 OA
ENDROOT
BRANCH   1   5
HETATM    5  C6  UNL     1      17.492  -6.282 104.162  1.00  0.00     0.090 C
BRANCH   5   6
HETATM    6  C5  UNL     1      16.832  -5.794 103.104  1.00  0.00     0.269 C
HETATM    7  N1  UNL     1      17.487  -5.732 101.654  1.00  0.00    -0.321 N
ATOM      8  H1  UNL     1      18.358  -6.171 101.357  1.00  0.00     0.169 HD
HETATM    9  O1  UNL     1      15.707  -5.312 102.988  1.00  0.00    -0.266 OA
BRANCH   7  10
HETATM   10  C4  UNL     1      16.625  -4.951 100.864  1.00  0.00     0.074 C
HETATM   11  C26 UNL     1      15.431  -4.852 100.308  1.00  0.00     0.202 C
BRANCH  10  12
HETATM   12  C2  UNL     1      17.739  -4.743  99.636  1.00  0.00     0.032 C
HETATM   13  C1  UNL     1      17.426  -5.651  98.574  1.00  0.00     0.016 C
HETATM   14  C3  UNL     1      19.007  -5.007 100.415  1.00  0.00     0.016 C
ENDBRANCH  10  12
BRANCH  11  15
HETATM   15  O6  UNL     1      14.562  -6.049 100.489  1.00  0.00    -0.339 OA
ATOM     16  H6  UNL     1      14.518  -6.623  99.734  1.00  0.00     0.220 HD
ENDBRANCH  11  15
BRANCH  11  17
HETATM   17  O7  UNL     1      14.662  -4.109  99.625  1.00  0.00    -0.319 OA
BRANCH  17  18
HETATM   18  C27 UNL     1      14.178  -3.356  98.684  1.00  0.00     0.059 C
HETATM   19  C28 UNL     1      14.395  -3.943  97.260  1.00  0.00     0.045 C
HETATM   20  C29 UNL     1      12.628  -3.154  98.711  1.00  0.00     0.045 C
HETATM   21  C30 UNL     1      14.839  -1.946  98.624  1.00  0.00     0.045 C
ENDBRANCH  17  18
ENDBRANCH  11  17
ENDBRANCH   7  10
ENDBRANCH   5   6
BRANCH   5  22
HETATM   22  C7  UNL     1      16.866  -7.951 103.840  1.00  0.00     0.176 C
BRANCH  22  23
HETATM   23  C8  UNL     1      17.989  -8.738 103.547  1.00  0.00     0.178 C
HETATM   24  O2  UNL     1      19.114  -8.781 103.157  1.00  0.00    -0.648 OA
HETATM   25  O3  UNL     1      17.650 -10.222 103.877  1.00  0.00    -0.648 OA
ENDBRANCH  22  23
ENDBRANCH   5  22
ENDBRANCH   1   5
BRANCH   3  26
HETATM   26  C10 UNL     1      19.889  -7.087 106.962  1.00  0.00    -0.009 C
HETATM   27  C11 UNL     1      19.927  -6.754 108.425  1.00  0.00     0.070 C
HETATM   28  C12 UNL     1      20.083  -8.138 109.100  1.00  0.00     0.277 C
HETATM   29  N3  UNL     1      21.260  -8.837 108.712  1.00  0.00     0.096 N
HETATM   30  C24 UNL     1      21.359  -8.952 107.294  1.00  0.00     0.277 C
HETATM   31  C25 UNL     1      21.216  -7.613 106.550  1.00  0.00     0.070 C
BRANCH  29  32
HETATM   32  C13 UNL     1      22.350  -8.244 109.398  1.00  0.00     0.356 C
BRANCH  32  33
HETATM   33  C14 UNL     1      22.544  -8.686 110.807  1.00  0.00     0.188 C
HETATM   34  O5  UNL     1      22.749  -9.780 111.169  1.00  0.00    -0.290 OA
BRANCH  33  35
HETATM   35  C15 UNL     1      22.423  -7.511 111.744  1.00  0.00     0.020 A
HETATM   36  C16 UNL     1      21.100  -7.051 111.903  1.00  0.00     0.017 A
HETATM   37  C17 UNL     1      20.924  -6.019 112.819  1.00  0.00     0.025 A
HETATM   38  C18 UNL     1      21.931  -5.476 113.535  1.00  0.00     0.034 A
HETATM   39 CL1  UNL     1      21.705  -4.231 114.733  1.00  0.00    -0.084 Cl
HETATM   40  C19 UNL     1      23.192  -5.980 113.324  1.00  0.00     0.033 A
HETATM   41  C20 UNL     1      23.414  -6.968 112.443  1.00  0.00    -0.020 A
BRANCH  41  42
HETATM   42  C21 UNL     1      24.819  -7.448 112.201  1.00  0.00     0.058 C
HETATM   43  C22 UNL     1      25.757  -6.330 112.708  1.00  0.00     0.037 C
HETATM   44  C23 UNL     1      25.180  -8.699 112.905  1.00  0.00     0.037 C
HETATM   45 CL2  UNL     1      25.210  -7.482 110.426  1.00  0.00    -0.115 Cl
ENDBRANCH  41  42
ENDBRANCH  33  35
ENDBRANCH  32  33
ENDBRANCH  29  32
ENDBRANCH   3  26
TORSDOF 14
ENDMDL