MODEL 1
REMARK VINA RESULT: -8.966248101      0.000      0.000
REMARK  16 active torsions:
REMARK  status: ('A' for Active; 'I' for Inactive)
REMARK    1  A    between atoms: C2_2  and  C3_3
REMARK    2  A    between atoms: C3_3  and  C4_4
REMARK    3  A    between atoms: C4_4  and  N1_5
REMARK    4  A    between atoms: C4_4  and  C19_26
REMARK    5  A    between atoms: N1_5  and  C5_7
REMARK    6  A    between atoms: C5_7  and  O1_8
REMARK    7  A    between atoms: C5_7  and  C6_10
REMARK    8  A    between atoms: C15_20  and  O3_22
REMARK    9  A    between atoms: C19_26  and  O4_27
REMARK   10  A    between atoms: C19_26  and  N3_29
REMARK   11  A    between atoms: N3_29  and  C20_31
REMARK   12  A    between atoms: C20_31  and  C21_32
REMARK   13  A    between atoms: C20_31  and  C23_36
REMARK   14  A    between atoms: C21_32  and  C22_33
REMARK   15  A    between atoms: C23_36  and  C24_37
REMARK       I    between atoms: N4_41  and  C28_42
REMARK   16  A    between atoms: C28_42  and  C29_44
ROOT
HETATM    1  O3  UNL     1      20.439  -3.307 102.351  1.00  0.00    -0.272 OA
HETATM    2  C17 UNL     1      19.876  -3.316 103.616  1.00  0.00     0.229 C
HETATM    3  N2  UNL     1      19.416  -3.315 104.692  1.00  0.00    -0.164 NA
ENDROOT
BRANCH   1   4
HETATM    4  C15 UNL     1      20.818  -2.080 101.746  1.00  0.00     0.086 C
HETATM    5  C14 UNL     1      19.610  -1.192 101.612  1.00  0.00     0.118 C
HETATM    6  C13 UNL     1      18.478  -1.875 100.943  1.00  0.00     0.138 C
HETATM    7  C12 UNL     1      18.244  -2.578  99.699  1.00  0.00     0.093 C
HETATM    8  O2  UNL     1      17.463  -1.834 101.631  1.00  0.00    -0.297 OA
HETATM    9  C6  UNL     1      18.855  -3.971  99.793  1.00  0.00     0.010 C
HETATM   10  C11 UNL     1      18.757  -1.917  98.484  1.00  0.00     0.021 C
HETATM   11  C7  UNL     1      20.151  -4.025  99.622  1.00  0.00    -0.048 C
HETATM   12  C8  UNL     1      20.884  -5.339  99.707  1.00  0.00     0.049 C
HETATM   13  C9  UNL     1      20.934  -2.794  99.329  1.00  0.00    -0.070 C
HETATM   14  C10 UNL     1      20.250  -1.818  98.426  1.00  0.00     0.036 C
HETATM   15  C18 UNL     1      21.617  -2.202 100.514  1.00  0.00     0.074 C
HETATM   16  C16 UNL     1      21.723  -1.415 102.802  1.00  0.00     0.048 C
BRANCH   9  17
HETATM   17  C5  UNL     1      17.928  -5.034 100.070  1.00  0.00     0.144 C
BRANCH  17  18
HETATM   18  N1  UNL     1      17.505  -5.681 101.209  1.00  0.00    -0.358 N
ATOM     19  H1  UNL     1      18.178  -6.264 101.706  1.00  0.00     0.162 HD
BRANCH  18  20
HETATM   20  C4  UNL     1      16.121  -5.581 101.760  1.00  0.00     0.158 C
BRANCH  20  21
HETATM   21  C3  UNL     1      15.401  -4.361 101.433  1.00  0.00     0.033 C
BRANCH  21  22
HETATM   22  C2  UNL     1      14.218  -4.615 100.524  1.00  0.00    -0.002 C
HETATM   23  C1  UNL     1      13.244  -5.584 101.211  1.00  0.00     0.005 C
ENDBRANCH  21  22
ENDBRANCH  20  21
BRANCH  20  24
HETATM   24  C19 UNL     1      16.363  -5.749 103.216  1.00  0.00     0.139 C
BRANCH  24  25
HETATM   25  O4  UNL     1      15.302  -5.895 103.962  1.00  0.00    -0.348 OA
ATOM     26  H4  UNL     1      15.160  -6.763 104.323  1.00  0.00     0.219 HD
ENDBRANCH  24  25
BRANCH  24  27
HETATM   27  N3  UNL     1      17.586  -5.782 103.893  1.00  0.00    -0.346 N
ATOM     28  H3  UNL     1      18.172  -4.947 103.873  1.00  0.00     0.167 HD
BRANCH  27  29
HETATM   29  C20 UNL     1      18.071  -6.954 104.629  1.00  0.00    -0.006 C
BRANCH  29  30
HETATM   30  C21 UNL     1      17.260  -8.147 104.491  1.00  0.00     0.123 C
BRANCH  30  31
HETATM   31  C22 UNL     1      17.489  -9.109 103.385  1.00  0.00     0.358 C
HETATM   32  F1  UNL     1      17.572 -10.381 104.008  1.00  0.00    -0.214 F
HETATM   33  F2  UNL     1      18.750  -8.934 102.799  1.00  0.00    -0.214 F
ENDBRANCH  30  31
ENDBRANCH  29  30
BRANCH  29  34
HETATM   34  C23 UNL     1      18.835  -6.607 105.844  1.00  0.00     0.059 C
BRANCH  34  35
HETATM   35  C24 UNL     1      19.793  -7.605 106.350  1.00  0.00     0.009 C
HETATM   36  C25 UNL     1      20.311  -8.652 105.435  1.00  0.00     0.008 C
HETATM   37  C26 UNL     1      20.099 -10.056 106.052  1.00  0.00     0.020 C
HETATM   38  C27 UNL     1      20.966 -10.123 107.311  1.00  0.00     0.126 C
HETATM   39  N4  UNL     1      20.700  -8.947 108.110  1.00  0.00    -0.350 N
HETATM   40  C28 UNL     1      21.511  -8.486 109.165  1.00  0.00     0.238 C
HETATM   41  C32 UNL     1      19.466  -8.217 107.702  1.00  0.00     0.130 C
HETATM   42  O5  UNL     1      21.107  -7.429 109.767  1.00  0.00    -0.272 OA
BRANCH  40  43
HETATM   43  C29 UNL     1      22.767  -9.096 109.636  1.00  0.00     0.092 C
HETATM   44  C30 UNL     1      22.513 -10.598 109.811  1.00  0.00     0.038 C
HETATM   45  C31 UNL     1      23.923  -8.921 108.674  1.00  0.00     0.038 C
HETATM   46  S1  UNL     1      23.235  -8.373 111.251  1.00  0.00    -0.077 SA
ENDBRANCH  40  43
ENDBRANCH  34  35
ENDBRANCH  29  34
ENDBRANCH  27  29
ENDBRANCH  24  27
ENDBRANCH  20  24
ENDBRANCH  18  20
ENDBRANCH  17  18
BRANCH  17  47
HETATM   47  O1  UNL     1      17.336  -5.509  98.976  1.00  0.00    -0.346 OA
ATOM     48  H1  UNL     1      16.396  -5.367  98.988  1.00  0.00     0.219 HD
ENDBRANCH  17  47
ENDBRANCH   9  17
ENDBRANCH   1   4
TORSDOF 16
ENDMDL