MODEL 2
REMARK VINA RESULT: -8.573251019      4.768      8.639
REMARK  15 active torsions:
REMARK  status: ('A' for Active; 'I' for Inactive)
REMARK    1  A    between atoms: C2_2  and  C4_4
REMARK    2  A    between atoms: C4_4  and  C5_5
REMARK    3  A    between atoms: C5_5  and  N1_6
REMARK    4  A    between atoms: C5_5  and  C12_17
REMARK       I    between atoms: N1_6  and  C6_8
REMARK    5  A    between atoms: C6_8  and  C7_10
REMARK    6  A    between atoms: C7_10  and  O3_12
REMARK    7  A    between atoms: O3_12  and  C8_13
REMARK    8  A    between atoms: C12_17  and  N2_18
REMARK    9  A    between atoms: C12_17  and  S1_34
REMARK   10  A    between atoms: N2_18  and  C13_20
REMARK   11  A    between atoms: C13_20  and  C14_21
REMARK   12  A    between atoms: C13_20  and  C19_26
REMARK   13  A    between atoms: C14_21  and  C15_22
REMARK       I    between atoms: C19_26  and  N3_28
REMARK   14  A    between atoms: N3_28  and  C20_30
REMARK   15  A    between atoms: S1_34  and  C24_37
ROOT
HETATM    1  C12 UNL     1      18.461  -3.576 100.839  1.00  0.00     0.229 C
ENDROOT
BRANCH   1   2
HETATM    2  C5  UNL     1      19.611  -3.800 101.748  1.00  0.00     0.122 C
BRANCH   2   3
HETATM    3  C4  UNL     1      20.923  -3.971 101.036  1.00  0.00     0.032 C
BRANCH   3   4
HETATM    4  C2  UNL     1      21.817  -2.810 100.856  1.00  0.00    -0.021 C
HETATM    5  C1  UNL     1      22.356  -2.183 102.082  1.00  0.00     0.009 C
HETATM    6  C3  UNL     1      23.025  -3.331 100.042  1.00  0.00     0.009 C
ENDBRANCH   3   4
ENDBRANCH   2   3
BRANCH   2   7
HETATM    7  N1  UNL     1      19.427  -4.728 102.783  1.00  0.00    -0.345 N
HETATM    8  C6  UNL     1      19.293  -4.305 104.162  1.00  0.00     0.317 C
HETATM    9  O1  UNL     1      19.348  -3.086 104.406  1.00  0.00    -0.262 OA
ATOM     10  H1  UNL     1      19.388  -5.723 102.560  1.00  0.00     0.163 HD
BRANCH   8  11
HETATM   11  C7  UNL     1      19.097  -5.247 105.252  1.00  0.00     0.352 C
HETATM   12  O2  UNL     1      19.782  -5.107 106.318  1.00  0.00    -0.254 OA
BRANCH  11  13
HETATM   13  O3  UNL     1      18.216  -6.287 105.211  1.00  0.00    -0.304 OA
BRANCH  13  14
HETATM   14  C8  UNL     1      18.427  -7.577 104.730  1.00  0.00     0.060 C
HETATM   15  C9  UNL     1      17.197  -8.407 105.123  1.00  0.00     0.046 C
HETATM   16  C10 UNL     1      19.604  -8.263 105.426  1.00  0.00     0.046 C
HETATM   17  C11 UNL     1      18.558  -7.661 103.244  1.00  0.00     0.046 C
ENDBRANCH  13  14
ENDBRANCH  11  13
ENDBRANCH   8  11
ENDBRANCH   2   7
ENDBRANCH   1   2
BRANCH   1  18
HETATM   18  N2  UNL     1      17.233  -4.127 101.336  1.00  0.00    -0.391 N
ATOM     19  H2  UNL     1      16.928  -3.873 102.276  1.00  0.00     0.155 HD
BRANCH  18  20
HETATM   20  C13 UNL     1      16.446  -4.984 100.596  1.00  0.00     0.171 C
BRANCH  20  21
HETATM   21  C14 UNL     1      15.014  -4.873 101.258  1.00  0.00     0.039 C
BRANCH  21  22
HETATM   22  C15 UNL     1      14.778  -6.110 102.093  1.00  0.00    -0.012 C
HETATM   23  C16 UNL     1      13.324  -6.234 102.567  1.00  0.00     0.005 C
HETATM   24  C17 UNL     1      13.891  -6.651 103.908  1.00  0.00     0.001 C
HETATM   25  C18 UNL     1      15.144  -5.847 103.537  1.00  0.00     0.005 C
ENDBRANCH  21  22
ENDBRANCH  20  21
BRANCH  20  26
HETATM   26  C19 UNL     1      16.148  -4.561  99.200  1.00  0.00     0.240 C
HETATM   27  O4  UNL     1      16.630  -5.159  98.207  1.00  0.00    -0.271 OA
HETATM   28  N3  UNL     1      15.298  -3.461  98.986  1.00  0.00    -0.351 N
ATOM     29  H3  UNL     1      14.911  -2.994  99.807  1.00  0.00     0.163 HD
BRANCH  28  30
HETATM   30  C20 UNL     1      14.935  -2.945  97.689  1.00  0.00     0.022 C
HETATM   31  C21 UNL     1      13.962  -3.892  97.042  1.00  0.00     0.037 C
HETATM   32  C22 UNL     1      14.190  -1.609  97.832  1.00  0.00     0.037 C
HETATM   33  C23 UNL     1      16.094  -2.688  96.788  1.00  0.00     0.037 C
ENDBRANCH  28  30
ENDBRANCH  20  26
ENDBRANCH  18  20
ENDBRANCH   1  18
BRANCH   1  34
HETATM   34  S1  UNL     1      18.018  -1.816 100.799  1.00  0.00     0.198 S
HETATM   35  O5  UNL     1      16.578  -1.680 101.282  1.00  0.00    -0.220 OA
HETATM   36  O6  UNL     1      18.839  -1.118 101.886  1.00  0.00    -0.220 OA
BRANCH  34  37
HETATM   37  C24 UNL     1      18.185  -0.990  99.335  1.00  0.00     0.063 A
HETATM   38  C25 UNL     1      17.262  -0.011  99.005  1.00  0.00     0.025 A
HETATM   39  C26 UNL     1      17.316   0.683  97.827  1.00  0.00     0.027 A
HETATM   40  C27 UNL     1      18.296   0.442  96.901  1.00  0.00     0.055 A
HETATM   41 CL1  UNL     1      18.386   1.325  95.377  1.00  0.00    -0.083 Cl
HETATM   42  C28 UNL     1      19.220  -0.533  97.222  1.00  0.00     0.057 A
HETATM   43 CL2  UNL     1      20.500  -0.873  96.048  1.00  0.00    -0.083 Cl
HETATM   44  C29 UNL     1      19.185  -1.238  98.393  1.00  0.00     0.049 A
ENDBRANCH  34  37
ENDBRANCH   1  34
TORSDOF 15
ENDMDL