MODEL 2
REMARK VINA RESULT: -7.490927044      1.488      1.880
REMARK  14 active torsions:
REMARK  status: ('A' for Active; 'I' for Inactive)
REMARK    1  A    between atoms: C4_4  and  C5_5
REMARK    2  A    between atoms: C5_5  and  C6_6
REMARK    3  A    between atoms: C5_5  and  N2_14
REMARK       I    between atoms: C6_6  and  N1_8
REMARK    4  A    between atoms: N1_8  and  C7_10
REMARK    5  A    between atoms: N2_14  and  C11_15
REMARK       I    between atoms: N2_14  and  C15_19
REMARK    6  A    between atoms: C11_15  and  C12_16
REMARK    7  A    between atoms: C15_19  and  C16_21
REMARK    8  A    between atoms: N3_22  and  C17_23
REMARK    9  A    between atoms: N3_22  and  C23_32
REMARK   10  A    between atoms: C17_23  and  C18_24
REMARK       I    between atoms: C18_24  and  N4_26
REMARK   11  A    between atoms: N4_26  and  C19_28
REMARK   12  A    between atoms: C23_32  and  C24_33
REMARK   13  A    between atoms: C26_38  and  C27_39
REMARK   14  A    between atoms: C27_39  and  O4_40
ROOT
HETATM    1  N2  UNL     1      16.224  -4.913 101.455  1.00  0.00    -0.330 N
HETATM    2  C15 UNL     1      15.760  -4.318 100.229  1.00  0.00     0.260 C
HETATM    3  O2  UNL     1      14.684  -3.651 100.291  1.00  0.00    -0.267 OA
ENDROOT
BRANCH   2   4
HETATM    4  C16 UNL     1      16.520  -4.501  99.003  1.00  0.00     0.165 C
HETATM    5  N3  UNL     1      16.942  -3.540  98.134  1.00  0.00    -0.349 N
BRANCH   5   6
HETATM    6  C17 UNL     1      16.228  -2.827  97.207  1.00  0.00     0.165 C
BRANCH   6   7
HETATM    7  C18 UNL     1      15.773  -1.476  97.260  1.00  0.00     0.257 C
HETATM    8  O3  UNL     1      16.431  -0.447  97.177  1.00  0.00    -0.267 OA
HETATM    9  N4  UNL     1      14.343  -1.261  97.437  1.00  0.00    -0.348 N
ATOM     10  H4  UNL     1      13.726  -2.070  97.516  1.00  0.00     0.163 HD
BRANCH   9  11
HETATM   11  C19 UNL     1      13.779   0.054  97.504  1.00  0.00     0.022 C
HETATM   12  C20 UNL     1      13.944   0.745  96.170  1.00  0.00     0.037 C
HETATM   13  C21 UNL     1      14.423   0.903  98.589  1.00  0.00     0.037 C
HETATM   14  C22 UNL     1      12.315  -0.072  97.835  1.00  0.00     0.037 C
ENDBRANCH   9  11
ENDBRANCH   6   7
ENDBRANCH   5   6
BRANCH   5  15
HETATM   15  C23 UNL     1      18.346  -3.632  97.820  1.00  0.00     0.204 C
BRANCH  15  16
HETATM   16  C24 UNL     1      19.108  -2.440  98.234  1.00  0.00     0.103 A
HETATM   17  N5  UNL     1      18.874  -1.524  99.173  1.00  0.00    -0.333 N
HETATM   18  C25 UNL     1      19.841  -0.594  99.204  1.00  0.00     0.130 A
ATOM     19  H5  UNL     1      18.063  -1.529  99.791  1.00  0.00     0.168 HD
HETATM   20 CL1  UNL     1      19.964   0.784 100.252  1.00  0.00    -0.062 Cl
HETATM   21  C26 UNL     1      20.729  -0.987  98.198  1.00  0.00     0.075 A
HETATM   22  N6  UNL     1      20.275  -2.105  97.617  1.00  0.00    -0.339 N
HETATM   23  C28 UNL     1      20.934  -2.798  96.538  1.00  0.00     0.157 C
BRANCH  21  24
HETATM   24  C27 UNL     1      21.951  -0.204  97.910  1.00  0.00     0.224 C
BRANCH  24  25
HETATM   25  O4  UNL     1      23.030  -0.724  98.596  1.00  0.00    -0.395 OA
ATOM     26  H4  UNL     1      22.739  -1.179  99.377  1.00  0.00     0.209 HD
ENDBRANCH  24  25
ENDBRANCH  21  24
ENDBRANCH  15  16
ENDBRANCH   5  15
ENDBRANCH   2   4
BRANCH   1  27
HETATM   27  C5  UNL     1      17.415  -5.674 101.448  1.00  0.00     0.213 C
BRANCH  27  28
HETATM   28  C4  UNL     1      18.679  -4.855 101.471  1.00  0.00    -0.026 A
HETATM   29  C3  UNL     1      19.742  -5.079 100.631  1.00  0.00     0.018 A
HETATM   30  C2  UNL     1      20.891  -4.297 100.635  1.00  0.00    -0.040 A
HETATM   31  C1  UNL     1      22.022  -4.558  99.717  1.00  0.00     0.050 C
HETATM   32  C31 UNL     1      20.990  -3.246 101.514  1.00  0.00     0.040 A
HETATM   33  C30 UNL     1      19.961  -2.982 102.369  1.00  0.00     0.025 A
HETATM   34 CL2  UNL     1      22.422  -2.228 101.559  1.00  0.00    -0.084 Cl
HETATM   35  C29 UNL     1      18.834  -3.780 102.336  1.00  0.00     0.011 A
ENDBRANCH  27  28
BRANCH  27  36
HETATM   36  C6  UNL     1      17.482  -6.744 102.450  1.00  0.00     0.245 C
HETATM   37  O1  UNL     1      16.825  -7.793 102.357  1.00  0.00    -0.271 OA
HETATM   38  N1  UNL     1      18.327  -6.579 103.562  1.00  0.00    -0.351 N
ATOM     39  H1  UNL     1      18.865  -5.716 103.637  1.00  0.00     0.163 HD
BRANCH  38  40
HETATM   40  C7  UNL     1      18.475  -7.570 104.607  1.00  0.00     0.022 C
HETATM   41  C8  UNL     1      17.142  -7.998 105.183  1.00  0.00     0.037 C
HETATM   42  C9  UNL     1      19.325  -6.964 105.698  1.00  0.00     0.037 C
HETATM   43  C10 UNL     1      19.203  -8.788 104.083  1.00  0.00     0.037 C
ENDBRANCH  38  40
ENDBRANCH  27  36
ENDBRANCH   1  27
BRANCH   1  44
HETATM   44  C11 UNL     1      15.408  -4.684 102.632  1.00  0.00     0.131 C
BRANCH  44  45
HETATM   45  C12 UNL     1      14.119  -5.408 102.707  1.00  0.00    -0.005 C
HETATM   46  C13 UNL     1      14.123  -6.139 104.067  1.00  0.00     0.011 C
HETATM   47  C14 UNL     1      13.908  -6.479 101.675  1.00  0.00     0.011 C
ENDBRANCH  44  45
ENDBRANCH   1  44
TORSDOF 14
ENDMDL