MODEL 5
REMARK VINA RESULT: -9.902331852      3.408      8.991
REMARK  12 active torsions:
REMARK  status: ('A' for Active; 'I' for Inactive)
REMARK    1  A    between atoms: C2_2  and  C4_4
REMARK    2  A    between atoms: C4_4  and  N1_5
REMARK    3  A    between atoms: C4_4  and  C13_27
REMARK       I    between atoms: N1_5  and  C5_7
REMARK    4  A    between atoms: C5_7  and  C6_9
REMARK    5  A    between atoms: C6_9  and  C7_10
REMARK    6  A    between atoms: C6_9  and  N6_20
REMARK    7  A    between atoms: C7_10  and  C8_11
REMARK       I    between atoms: C13_27  and  N7_29
REMARK    8  A    between atoms: N7_29  and  C14_31
REMARK    9  A    between atoms: C14_31  and  C15_32
REMARK   10  A    between atoms: C15_32  and  C16_33
REMARK   11  A    between atoms: C15_32  and  C23_40
REMARK   12  A    between atoms: C16_33  and  C17_34
REMARK       I    between atoms: C23_40  and  N8_42
ROOT
HETATM    1  C4  UNL     1      15.757  -5.993 102.706  1.00  0.00     0.180 C
ENDROOT
BRANCH   1   2
HETATM    2  C2  UNL     1      14.422  -5.707 103.344  1.00  0.00     0.009 C
HETATM    3  C1  UNL     1      14.292  -6.518 104.591  1.00  0.00     0.012 C
HETATM    4  C3  UNL     1      13.364  -6.134 102.357  1.00  0.00     0.012 C
ENDBRANCH   1   2
BRANCH   1   5
HETATM    5  N1  UNL     1      16.785  -5.752 103.678  1.00  0.00    -0.346 N
HETATM    6  C5  UNL     1      18.112  -6.276 103.651  1.00  0.00     0.241 C
HETATM    7  O1  UNL     1      18.382  -7.003 102.675  1.00  0.00    -0.271 OA
ATOM      8  H1  UNL     1      16.543  -5.147 104.463  1.00  0.00     0.163 HD
BRANCH   6   9
HETATM    9  C6  UNL     1      19.064  -5.930 104.758  1.00  0.00     0.182 C
BRANCH   9  10
HETATM   10  C7  UNL     1      18.657  -4.597 105.325  1.00  0.00     0.114 C
BRANCH  10  11
HETATM   11  C8  UNL     1      19.469  -3.459 104.845  1.00  0.00     0.115 A
HETATM   12  N2  UNL     1      19.707  -3.077 103.589  1.00  0.00    -0.272 N
HETATM   13  N3  UNL     1      20.488  -2.026 103.624  1.00  0.00    -0.227 N
ATOM     14  H2  UNL     1      19.343  -3.526 102.748  1.00  0.00     0.190 HD
HETATM   15  N4  UNL     1      20.765  -1.716 104.872  1.00  0.00    -0.227 N
ATOM     16  H3  UNL     1      20.831  -1.524 102.805  1.00  0.00     0.210 HD
HETATM   17  N5  UNL     1      20.141  -2.593 105.634  1.00  0.00    -0.272 N
ATOM     18  H4  UNL     1      21.350  -0.943 105.191  1.00  0.00     0.210 HD
ATOM     19  H5  UNL     1      20.163  -2.613 106.654  1.00  0.00     0.190 HD
ENDBRANCH  10  11
ENDBRANCH   9  10
BRANCH   9  20
HETATM   20  N6  UNL     1      19.259  -6.981 105.631  1.00  0.00    -0.374 N
HETATM   21  C9  UNL     1      19.715  -6.645 106.952  1.00  0.00     0.129 C
HETATM   22  C10 UNL     1      19.688  -8.005 107.674  1.00  0.00     0.105 C
HETATM   23  C11 UNL     1      20.120  -8.943 106.597  1.00  0.00     0.276 C
HETATM   24  F1  UNL     1      21.436  -9.295 106.817  1.00  0.00    -0.200 F
HETATM   25  F2  UNL     1      19.396 -10.125 106.562  1.00  0.00    -0.200 F
HETATM   26  C12 UNL     1      19.945  -8.159 105.297  1.00  0.00     0.137 C
ENDBRANCH   9  20
ENDBRANCH   6   9
ENDBRANCH   1   5
BRANCH   1  27
HETATM   27  C13 UNL     1      15.996  -5.135 101.483  1.00  0.00     0.241 C
HETATM   28  O2  UNL     1      15.712  -3.928 101.558  1.00  0.00    -0.271 OA
HETATM   29  N7  UNL     1      16.522  -5.681 100.299  1.00  0.00    -0.355 N
ATOM     30  H7  UNL     1      16.724  -6.680 100.336  1.00  0.00     0.162 HD
BRANCH  29  31
HETATM   31  C14 UNL     1      16.813  -5.055  99.060  1.00  0.00     0.162 C
BRANCH  31  32
HETATM   32  C15 UNL     1      18.083  -4.342  98.866  1.00  0.00     0.006 C
BRANCH  32  33
HETATM   33  C16 UNL     1      19.222  -5.160  98.335  1.00  0.00     0.046 C
BRANCH  33  34
HETATM   34  C17 UNL     1      20.590  -4.637  98.387  1.00  0.00    -0.010 C
HETATM   35  C18 UNL     1      21.453  -5.160  99.518  1.00  0.00     0.005 C
HETATM   36  C19 UNL     1      22.532  -4.086  99.719  1.00  0.00     0.000 C
HETATM   37  C20 UNL     1      23.329  -3.887  98.459  1.00  0.00     0.000 C
HETATM   38  C21 UNL     1      22.406  -3.424  97.338  1.00  0.00     0.000 C
HETATM   39  C22 UNL     1      21.412  -4.603  97.138  1.00  0.00     0.005 C
ENDBRANCH  33  34
ENDBRANCH  32  33
BRANCH  32  40
HETATM   40  C23 UNL     1      18.083  -2.997  98.271  1.00  0.00     0.247 C
HETATM   41  O3  UNL     1      17.392  -2.821  97.207  1.00  0.00    -0.268 OA
HETATM   42  N8  UNL     1      18.784  -1.916  98.790  1.00  0.00    -0.348 N
HETATM   43  C24 UNL     1      18.689  -0.601  98.131  1.00  0.00     0.127 C
HETATM   44  C32 UNL     1      19.640  -1.994  99.929  1.00  0.00     0.127 C
HETATM   45  C25 UNL     1      18.900   0.446  99.193  1.00  0.00     0.029 C
HETATM   46  C26 UNL     1      20.302   0.400  99.695  1.00  0.00    -0.037 C
HETATM   47  C27 UNL     1      20.346   1.100 101.034  1.00  0.00     0.010 C
HETATM   48  C30 UNL     1      21.297   1.171  98.877  1.00  0.00     0.010 C
HETATM   49  C31 UNL     1      20.816  -1.026  99.804  1.00  0.00     0.029 C
HETATM   50  C28 UNL     1      20.402   2.559 100.642  1.00  0.00     0.001 C
HETATM   51  C29 UNL     1      21.219   2.577  99.377  1.00  0.00     0.001 C
ENDBRANCH  32  40
ENDBRANCH  31  32
ENDBRANCH  29  31
ENDBRANCH   1  27
TORSDOF 12
ENDMDL