MODEL 4
REMARK VINA RESULT: -7.848710706      2.370      7.741
REMARK  7 active torsions:
REMARK  status: ('A' for Active; 'I' for Inactive)
REMARK    1  A    between atoms: O1_2  and  C2_3
REMARK    2  A    between atoms: C2_3  and  C3_4
REMARK    3  A    between atoms: C3_4  and  C4_5
REMARK    4  A    between atoms: C4_5  and  N1_6
REMARK    5  A    between atoms: N1_6  and  C5_8
REMARK    6  A    between atoms: C15_18  and  C16_19
REMARK    7  A    between atoms: C16_19  and  O2_22
ROOT
HETATM    1  C5  UNL     1      72.721  49.162  10.773  1.00  0.00     0.088 C
HETATM    2  C6  UNL     1      71.890  49.063   9.569  1.00  0.00     0.026 C
HETATM    3  C7  UNL     1      70.733  50.029   9.727  1.00  0.00     0.012 C
HETATM    4  C8  UNL     1      69.813  49.757  10.895  1.00  0.00    -0.032 C
HETATM    5  C9  UNL     1      69.120  48.449  10.567  1.00  0.00     0.016 C
HETATM    6  C10 UNL     1      70.606  49.485  12.136  1.00  0.00     0.004 C
HETATM    7  C11 UNL     1      70.785  50.713  13.005  1.00  0.00     0.006 C
HETATM    8  C12 UNL     1      69.405  51.030  13.467  1.00  0.00     0.006 C
HETATM    9  C13 UNL     1      68.550  51.462  12.314  1.00  0.00    -0.005 C
HETATM   10  C14 UNL     1      67.147  51.216  12.853  1.00  0.00     0.013 C
HETATM   11  C15 UNL     1      66.059  51.231  11.854  1.00  0.00     0.019 C
HETATM   12  C19 UNL     1      66.459  50.128  10.864  1.00  0.00     0.008 C
HETATM   13  C20 UNL     1      67.614  50.710  10.114  1.00  0.00     0.011 C
HETATM   14  C21 UNL     1      68.859  50.923  10.996  1.00  0.00    -0.033 C
HETATM   15  C22 UNL     1      69.476  52.130  10.229  1.00  0.00     0.016 C
HETATM   16  C23 UNL     1      71.861  48.746  11.966  1.00  0.00    -0.023 C
HETATM   17  C24 UNL     1      72.793  48.996  13.167  1.00  0.00     0.017 C
HETATM   18  C25 UNL     1      71.739  47.240  11.913  1.00  0.00     0.017 C
ENDROOT
BRANCH   1  19
HETATM   19  N1  UNL     1      73.903  48.448  10.786  1.00  0.00    -0.397 N
ATOM     20  H1  UNL     1      74.343  48.332  11.699  1.00  0.00     0.159 HD
BRANCH  19  21
HETATM   21  C4  UNL     1      74.564  47.874   9.723  1.00  0.00     0.058 C
BRANCH  21  22
HETATM   22  C3  UNL     1      75.282  46.576   9.834  1.00  0.00     0.070 C
BRANCH  22  23
HETATM   23  C2  UNL     1      74.283  45.428   9.487  1.00  0.00     0.172 C
BRANCH  23  24
HETATM   24  O1  UNL     1      73.208  45.971   8.790  1.00  0.00    -0.396 OA
HETATM   25  C1  UNL     1      72.082  45.166   8.866  1.00  0.00     0.201 C
ENDBRANCH  23  24
ENDBRANCH  22  23
ENDBRANCH  21  22
ENDBRANCH  19  21
ENDBRANCH   1  19
BRANCH  11  26
HETATM   26  C16 UNL     1      64.763  50.947  12.536  1.00  0.00     0.054 C
HETATM   27  C17 UNL     1      63.591  51.552  11.802  1.00  0.00     0.045 C
HETATM   28  C18 UNL     1      64.492  49.484  12.745  1.00  0.00     0.045 C
BRANCH  26  29
HETATM   29  O2  UNL     1      64.854  51.530  13.820  1.00  0.00    -0.390 OA
ATOM     30  H2  UNL     1      64.042  51.321  14.267  1.00  0.00     0.210 HD
ENDBRANCH  26  29
ENDBRANCH  11  26
TORSDOF 7
ENDMDL