MODEL 4
REMARK VINA RESULT: -7.572547233      1.655      2.831
REMARK  8 active torsions:
REMARK  status: ('A' for Active; 'I' for Inactive)
REMARK    1  A    between atoms: C2_2  and  C3_3
REMARK    2  A    between atoms: C2_2  and  C5_5
REMARK    3  A    between atoms: C5_5  and  C6_7
REMARK    4  A    between atoms: C6_7  and  C7_8
REMARK    5  A    between atoms: C7_8  and  C8_9
REMARK    6  A    between atoms: C8_9  and  C10_11
REMARK    7  A    between atoms: C11_12  and  O2_13
REMARK    8  A    between atoms: C21_24  and  O3_25
ROOT
HETATM    1  C10 UNL     1      68.411  50.179  10.057  1.00  0.00     0.027 C
HETATM    2  C11 UNL     1      68.678  50.392   8.575  1.00  0.00     0.129 C
HETATM    3  C12 UNL     1      70.134  50.290   8.959  1.00  0.00     0.032 C
HETATM    4  C13 UNL     1      69.698  49.377  10.071  1.00  0.00    -0.031 C
HETATM    5  C14 UNL     1      70.404  49.653  11.400  1.00  0.00     0.016 C
HETATM    6  C15 UNL     1      69.613  47.945   9.746  1.00  0.00     0.010 C
HETATM    7  C16 UNL     1      70.534  47.439   8.689  1.00  0.00     0.007 C
HETATM    8  C17 UNL     1      71.648  48.448   8.468  1.00  0.00     0.004 C
HETATM    9  C18 UNL     1      72.791  47.884   7.705  1.00  0.00    -0.017 C
HETATM   10  C19 UNL     1      73.366  46.741   8.561  1.00  0.00     0.018 C
HETATM   11  C20 UNL     1      72.453  47.295   6.378  1.00  0.00     0.018 C
HETATM   12  C21 UNL     1      73.883  48.920   7.622  1.00  0.00     0.126 C
HETATM   13  C22 UNL     1      73.558  50.130   8.453  1.00  0.00     0.033 C
HETATM   14  C23 UNL     1      72.295  50.734   7.923  1.00  0.00     0.012 C
HETATM   15  C24 UNL     1      71.113  49.764   8.003  1.00  0.00    -0.033 C
HETATM   16  C25 UNL     1      70.516  49.720   6.624  1.00  0.00     0.016 C
ENDROOT
BRANCH   1  17
HETATM   17  C8  UNL     1      67.156  49.539  10.451  1.00  0.00    -0.011 C
HETATM   18  C9  UNL     1      66.078  49.993   9.455  1.00  0.00     0.010 C
BRANCH  17  19
HETATM   19  C7  UNL     1      66.728  50.107  11.800  1.00  0.00     0.012 C
BRANCH  19  20
HETATM   20  C6  UNL     1      67.412  51.400  12.107  1.00  0.00     0.084 C
BRANCH  20  21
HETATM   21  C5  UNL     1      66.499  52.545  11.899  1.00  0.00     0.154 C
HETATM   22  O1  UNL     1      65.301  52.423  12.245  1.00  0.00    -0.293 OA
BRANCH  21  23
HETATM   23  C2  UNL     1      66.937  53.796  11.311  1.00  0.00    -0.022 C
HETATM   24  C1  UNL     1      66.451  54.955  11.721  1.00  0.00     0.022 C
BRANCH  23  25
HETATM   25  C3  UNL     1      67.956  53.835  10.216  1.00  0.00     0.037 C
HETATM   26  C4  UNL     1      68.084  55.273   9.717  1.00  0.00     0.010 C
ENDBRANCH  23  25
ENDBRANCH  21  23
ENDBRANCH  20  21
ENDBRANCH  19  20
ENDBRANCH  17  19
ENDBRANCH   1  17
BRANCH   2  27
HETATM   27  O2  UNL     1      68.147  49.373   7.848  1.00  0.00    -0.395 OA
ATOM     28  H2  UNL     1      68.690  49.189   7.091  1.00  0.00     0.210 HD
ENDBRANCH   2  27
BRANCH  12  29
HETATM   29  O3  UNL     1      75.118  48.439   8.055  1.00  0.00    -0.395 OA
ATOM     30  H3  UNL     1      75.040  47.719   8.669  1.00  0.00     0.210 HD
ENDBRANCH  12  29
TORSDOF 8
ENDMDL