MODEL 2
REMARK VINA RESULT: -8.083931717      3.525      7.595
REMARK  8 active torsions:
REMARK  status: ('A' for Active; 'I' for Inactive)
REMARK    1  A    between atoms: O1_2  and  C2_3
REMARK    2  A    between atoms: C2_3  and  C3_4
REMARK    3  A    between atoms: C3_4  and  O2_6
REMARK    4  A    between atoms: C3_4  and  C5_8
REMARK    5  A    between atoms: C5_8  and  O3_10
REMARK    6  A    between atoms: C5_8  and  C7_12
REMARK    7  A    between atoms: C8_13  and  C9_14
REMARK    8  A    between atoms: C11_16  and  C12_17
ROOT
HETATM    1  C9  UNL     1      74.677  47.407   9.446  1.00  0.00    -0.062 C
HETATM    2  C10 UNL     1      76.108  46.981   9.694  1.00  0.00     0.048 C
HETATM    3  C11 UNL     1      74.009  48.017  10.368  1.00  0.00     0.007 C
ENDROOT
BRANCH   1   4
HETATM    4  C8  UNL     1      74.083  47.111   8.151  1.00  0.00     0.006 C
HETATM    5  C7  UNL     1      73.865  48.080   7.268  1.00  0.00     0.014 C
BRANCH   5   6
HETATM    6  C5  UNL     1      73.259  47.760   5.954  1.00  0.00     0.104 C
HETATM    7  C6  UNL     1      74.159  48.117   4.807  1.00  0.00     0.053 C
BRANCH   6   8
HETATM    8  C3  UNL     1      71.923  48.432   5.888  1.00  0.00     0.109 C
HETATM    9  C4  UNL     1      72.081  49.797   6.566  1.00  0.00     0.051 C
BRANCH   8  10
HETATM   10  C2  UNL     1      70.832  47.655   6.565  1.00  0.00     0.207 C
BRANCH  10  11
HETATM   11  O1  UNL     1      69.943  48.440   7.256  1.00  0.00    -0.393 OA
HETATM   12  C1  UNL     1      68.685  48.305   6.694  1.00  0.00     0.201 C
ENDBRANCH  10  11
ENDBRANCH   8  10
BRANCH   8  13
HETATM   13  O2  UNL     1      71.581  48.679   4.569  1.00  0.00    -0.385 OA
ATOM     14  H2  UNL     1      72.353  48.633   4.018  1.00  0.00     0.210 HD
ENDBRANCH   8  13
ENDBRANCH   6   8
BRANCH   6  15
HETATM   15  O3  UNL     1      73.047  46.362   5.929  1.00  0.00    -0.383 OA
ATOM     16  H3  UNL     1      73.895  45.937   5.889  1.00  0.00     0.211 HD
ENDBRANCH   6  15
ENDBRANCH   5   6
ENDBRANCH   1   4
BRANCH   3  17
HETATM   17  C12 UNL     1      72.650  48.457  10.218  1.00  0.00     0.004 C
HETATM   18  C13 UNL     1      71.968  48.941  11.286  1.00  0.00    -0.067 C
HETATM   19  C14 UNL     1      72.446  49.093  12.668  1.00  0.00     0.011 C
HETATM   20  C24 UNL     1      70.562  49.404  11.153  1.00  0.00    -0.016 C
HETATM   21  C15 UNL     1      72.332  47.820  13.474  1.00  0.00     0.015 C
HETATM   22  C16 UNL     1      71.533  50.179  13.217  1.00  0.00     0.015 C
HETATM   23  C17 UNL     1      70.226  49.800  12.545  1.00  0.00     0.006 C
HETATM   24  C18 UNL     1      69.203  50.857  12.712  1.00  0.00    -0.043 C
HETATM   25  C19 UNL     1      69.185  51.304  14.156  1.00  0.00     0.015 C
HETATM   26  C20 UNL     1      67.833  50.419  12.325  1.00  0.00     0.015 C
HETATM   27  C21 UNL     1      69.587  52.038  11.857  1.00  0.00     0.009 C
HETATM   28  C22 UNL     1      69.756  51.687  10.414  1.00  0.00     0.002 C
HETATM   29  C23 UNL     1      70.410  50.417  10.104  1.00  0.00     0.014 C
HETATM   30  C25 UNL     1      69.748  48.144  10.818  1.00  0.00     0.020 C
ENDBRANCH   3  17
TORSDOF 8
ENDMDL