MODEL 3
REMARK VINA RESULT: -7.554062364      1.905      2.601
REMARK  8 active torsions:
REMARK  status: ('A' for Active; 'I' for Inactive)
REMARK    1  A    between atoms: C2_2  and  C3_3
REMARK    2  A    between atoms: C3_3  and  C5_5
REMARK    3  A    between atoms: C5_5  and  C6_6
REMARK    4  A    between atoms: C6_6  and  C8_8
REMARK    5  A    between atoms: C9_9  and  C11_11
REMARK    6  A    between atoms: C11_11  and  O1_12
REMARK    7  A    between atoms: C11_11  and  C12_14
REMARK    8  A    between atoms: C12_14  and  O2_15
ROOT
HETATM    1  C12 UNL     1      66.229  48.307   7.661  1.00  0.00     0.105 C
HETATM    2  C13 UNL     1      66.739  49.415   8.447  1.00  0.00     0.017 C
HETATM    3  C14 UNL     1      66.340  49.617   9.690  1.00  0.00    -0.076 C
HETATM    4  C15 UNL     1      66.928  50.789  10.417  1.00  0.00     0.035 C
HETATM    5  C16 UNL     1      65.891  51.588  11.175  1.00  0.00     0.017 C
HETATM    6  C17 UNL     1      64.561  51.146  10.686  1.00  0.00     0.064 C
HETATM    7  C18 UNL     1      63.409  51.762  11.379  1.00  0.00     0.131 C
HETATM    8  O3  UNL     1      63.300  52.826  11.930  1.00  0.00    -0.298 OA
HETATM    9  C19 UNL     1      62.306  50.763  11.270  1.00  0.00     0.079 C
HETATM   10  C20 UNL     1      62.949  49.483  10.777  1.00  0.00     0.018 C
HETATM   11  C21 UNL     1      64.386  49.692  11.116  1.00  0.00    -0.026 C
HETATM   12  C22 UNL     1      64.497  49.601  12.644  1.00  0.00     0.016 C
HETATM   13  C23 UNL     1      65.356  48.788  10.432  1.00  0.00     0.023 C
HETATM   14  C24 UNL     1      64.727  47.728   9.581  1.00  0.00     0.013 C
HETATM   15  C25 UNL     1      64.810  48.019   8.111  1.00  0.00     0.046 C
ENDROOT
BRANCH   1  16
HETATM   16  C11 UNL     1      67.092  47.101   7.707  1.00  0.00     0.184 C
BRANCH  16  17
HETATM   17  C9  UNL     1      68.491  47.368   8.142  1.00  0.00    -0.056 C
HETATM   18  C8  UNL     1      69.357  47.878   7.277  1.00  0.00    -0.018 C
HETATM   19  C10 UNL     1      68.919  47.078   9.509  1.00  0.00     0.046 C
BRANCH  18  20
HETATM   20  C6  UNL     1      70.767  48.203   7.556  1.00  0.00     0.005 C
HETATM   21  C7  UNL     1      71.644  47.386   6.578  1.00  0.00     0.014 C
BRANCH  20  22
HETATM   22  C5  UNL     1      71.092  49.644   7.193  1.00  0.00     0.016 C
BRANCH  22  23
HETATM   23  C3  UNL     1      71.692  50.441   8.309  1.00  0.00     0.004 C
HETATM   24  C4  UNL     1      73.199  50.405   8.121  1.00  0.00     0.014 C
BRANCH  23  25
HETATM   25  C2  UNL     1      71.358  49.826   9.614  1.00  0.00    -0.033 C
HETATM   26  C1  UNL     1      70.572  50.432  10.466  1.00  0.00     0.007 C
ENDBRANCH  23  25
ENDBRANCH  22  23
ENDBRANCH  20  22
ENDBRANCH  18  20
ENDBRANCH  16  17
BRANCH  16  27
HETATM   27  O1  UNL     1      67.107  46.544   6.409  1.00  0.00    -0.388 OA
ATOM     28  H1  UNL     1      66.555  45.772   6.393  1.00  0.00     0.210 HD
ENDBRANCH  16  27
ENDBRANCH   1  16
BRANCH   1  29
HETATM   29  O2  UNL     1      66.095  48.695   6.309  1.00  0.00    -0.383 OA
ATOM     30  H2  UNL     1      66.402  49.590   6.229  1.00  0.00     0.211 HD
ENDBRANCH   1  29
TORSDOF 8
ENDMDL