MODEL 4
REMARK VINA RESULT: -7.753114310      2.393      3.705
REMARK  6 active torsions:
REMARK  status: ('A' for Active; 'I' for Inactive)
REMARK    1  A    between atoms: C7_7  and  N1_8
REMARK    2  A    between atoms: N1_8  and  C8_10
REMARK    3  A    between atoms: C8_10  and  C9_11
REMARK    4  A    between atoms: C9_11  and  C10_12
REMARK    5  A    between atoms: C10_12  and  C11_13
REMARK    6  A    between atoms: C11_13  and  C12_14
ROOT
HETATM    1  C9  UNL     1      73.474  48.614  10.829  1.00  0.00     0.019 C
ENDROOT
BRANCH   1   2
HETATM    2  C8  UNL     1      74.353  47.801   9.938  1.00  0.00     0.114 C
BRANCH   2   3
HETATM    3  N1  UNL     1      74.651  48.371   8.671  1.00  0.00    -0.417 N
ATOM      4  H1  UNL     1      75.072  49.295   8.588  1.00  0.00     0.153 HD
BRANCH   3   5
HETATM    5  C7  UNL     1      74.334  47.588   7.522  1.00  0.00     0.077 C
HETATM    6  C6  UNL     1      73.136  46.685   7.693  1.00  0.00     0.029 C
HETATM    7  C5  UNL     1      71.947  47.429   7.146  1.00  0.00    -0.009 C
HETATM    8  C4  UNL     1      71.045  47.784   8.270  1.00  0.00     0.005 C
HETATM    9  C23 UNL     1      72.452  48.693   6.492  1.00  0.00    -0.009 C
HETATM   10  C3  UNL     1      69.585  47.697   7.963  1.00  0.00     0.000 C
HETATM   11  C2  UNL     1      69.174  48.273   6.662  1.00  0.00     0.000 C
HETATM   12  C1  UNL     1      69.751  49.646   6.402  1.00  0.00     0.000 C
HETATM   13  C25 UNL     1      70.571  49.692   5.152  1.00  0.00     0.000 C
HETATM   14  C24 UNL     1      71.791  48.833   5.154  1.00  0.00     0.005 C
HETATM   15  C22 UNL     1      73.954  48.557   6.408  1.00  0.00     0.029 C
ENDBRANCH   3   5
ENDBRANCH   2   3
ENDBRANCH   1   2
BRANCH   1  16
HETATM   16  C10 UNL     1      72.475  47.806  11.591  1.00  0.00     0.002 C
BRANCH  16  17
HETATM   17  C11 UNL     1      71.906  48.591  12.747  1.00  0.00     0.005 C
BRANCH  17  18
HETATM   18  C12 UNL     1      71.067  49.763  12.293  1.00  0.00    -0.012 C
HETATM   19  C13 UNL     1      70.737  50.611  13.487  1.00  0.00     0.005 C
HETATM   20  C14 UNL     1      69.473  51.425  13.305  1.00  0.00     0.008 C
HETATM   21  C15 UNL     1      69.128  51.582  11.836  1.00  0.00     0.024 C
HETATM   22  C16 UNL     1      68.036  52.557  11.597  1.00  0.00     0.038 C
HETATM   23  C19 UNL     1      68.881  50.277  11.163  1.00  0.00     0.093 C
HETATM   24  C17 UNL     1      66.740  52.014  11.115  1.00  0.00     0.276 C
HETATM   25  N2  UNL     1      66.789  50.759  10.435  1.00  0.00     0.114 N
HETATM   26  C18 UNL     1      67.694  50.754   9.330  1.00  0.00     0.441 C
HETATM   27  C21 UNL     1      67.445  49.814  11.355  1.00  0.00     0.313 C
HETATM   28  O1  UNL     1      68.962  50.450   9.807  1.00  0.00    -0.349 OA
HETATM   29  C20 UNL     1      69.863  49.208  11.581  1.00  0.00     0.044 C
ENDBRANCH  17  18
ENDBRANCH  16  17
ENDBRANCH   1  16
TORSDOF 6
ENDMDL