MODEL 3
REMARK VINA RESULT: -6.950794358      2.377      6.468
REMARK  8 active torsions:
REMARK  status: ('A' for Active; 'I' for Inactive)
REMARK    1  A    between atoms: C2_2  and  C3_3
REMARK    2  A    between atoms: C4_4  and  C5_5
REMARK    3  A    between atoms: C7_7  and  O1_8
REMARK    4  A    between atoms: C17_19  and  C18_20
REMARK    5  A    between atoms: C18_20  and  O2_21
REMARK    6  A    between atoms: C18_20  and  C19_23
REMARK    7  A    between atoms: C19_23  and  C21_25
REMARK    8  A    between atoms: C21_25  and  C22_26
ROOT
HETATM    1  C5  UNL     1      70.237  50.452   9.381  1.00  0.00     0.017 C
HETATM    2  C6  UNL     1      70.063  51.901   9.639  1.00  0.00     0.048 C
HETATM    3  C7  UNL     1      68.793  52.511   9.991  1.00  0.00     0.073 C
HETATM    4  C8  UNL     1      69.177  54.002  10.251  1.00  0.00     0.039 C
HETATM    5  C9  UNL     1      67.978  54.877  10.034  1.00  0.00     0.003 C
HETATM    6  C10 UNL     1      66.775  54.243  10.704  1.00  0.00     0.001 C
HETATM    7  C11 UNL     1      67.277  53.318  11.757  1.00  0.00     0.020 C
HETATM    8  C12 UNL     1      68.040  52.115  11.179  1.00  0.00     0.052 C
HETATM    9  C13 UNL     1      68.777  51.439  12.284  1.00  0.00     0.032 C
HETATM   10  C14 UNL     1      67.911  50.231  11.990  1.00  0.00     0.057 C
HETATM   11  C15 UNL     1      68.632  49.063  11.438  1.00  0.00     0.013 C
HETATM   12  C16 UNL     1      68.506  48.747  10.014  1.00  0.00     0.009 C
HETATM   13  C17 UNL     1      69.066  49.673   8.981  1.00  0.00     0.022 C
HETATM   14  C25 UNL     1      67.087  51.003  11.054  1.00  0.00     0.142 C
HETATM   15  O3  UNL     1      66.055  50.814  10.435  1.00  0.00    -0.297 OA
ENDROOT
BRANCH  13  16
HETATM   16  C18 UNL     1      69.328  48.813   7.766  1.00  0.00     0.126 C
BRANCH  16  17
HETATM   17  O2  UNL     1      68.954  49.389   6.565  1.00  0.00    -0.395 OA
ATOM     18  H2  UNL     1      68.052  49.683   6.534  1.00  0.00     0.210 HD
ENDBRANCH  16  17
BRANCH  16  19
HETATM   19  C19 UNL     1      68.552  47.504   7.841  1.00  0.00     0.011 C
HETATM   20  C20 UNL     1      67.487  47.397   6.775  1.00  0.00     0.012 C
BRANCH  19  21
HETATM   21  C21 UNL     1      69.542  46.393   7.606  1.00  0.00     0.010 C
BRANCH  21  22
HETATM   22  C22 UNL     1      70.914  46.658   8.124  1.00  0.00    -0.022 C
HETATM   23  C23 UNL     1      71.121  45.809   9.366  1.00  0.00     0.009 C
HETATM   24  C24 UNL     1      71.890  46.096   7.080  1.00  0.00     0.009 C
ENDBRANCH  21  22
ENDBRANCH  19  21
ENDBRANCH  16  19
ENDBRANCH  13  16
BRANCH   1  25
HETATM   25  C4  UNL     1      71.480  50.305   8.580  1.00  0.00    -0.026 C
HETATM   26  C3  UNL     1      72.606  49.744   8.929  1.00  0.00    -0.031 C
BRANCH  26  27
HETATM   27  C2  UNL     1      72.935  49.105  10.225  1.00  0.00     0.022 C
HETATM   28  C1  UNL     1      74.043  48.060  10.049  1.00  0.00     0.009 C
ENDBRANCH  26  27
ENDBRANCH   1  25
BRANCH   3  29
HETATM   29  O1  UNL     1      67.904  52.678   8.897  1.00  0.00    -0.389 OA
ATOM     30  H1  UNL     1      67.098  52.182   8.972  1.00  0.00     0.210 HD
ENDBRANCH   3  29
TORSDOF 8
ENDMDL