MODEL 4
REMARK VINA RESULT: -7.489206540      2.053      2.920
REMARK  8 active torsions:
REMARK  status: ('A' for Active; 'I' for Inactive)
REMARK    1  A    between atoms: C6_8  and  C7_9
REMARK    2  A    between atoms: C7_9  and  C9_11
REMARK    3  A    between atoms: C9_11  and  C10_12
REMARK    4  A    between atoms: C10_12  and  C11_13
REMARK    5  A    between atoms: C11_13  and  C12_14
REMARK    6  A    between atoms: C20_22  and  O1_24
REMARK    7  A    between atoms: C22_26  and  C23_27
REMARK    8  A    between atoms: C23_27  and  O2_28
ROOT
HETATM    1  C1  UNL     1      67.449  53.239  11.703  1.00  0.00     0.063 C
HETATM    2  C2  UNL     1      68.162  51.979  11.955  1.00  0.00    -0.018 C
HETATM    3  N1  UNL     1      69.426  52.002  11.753  1.00  0.00    -0.396 N
ATOM      4  H1  UNL     1      69.838  52.879  11.438  1.00  0.00     0.159 HD
HETATM    5  C3  UNL     1      70.308  50.882  11.937  1.00  0.00     0.129 C
HETATM    6  C4  UNL     1      70.019  49.951  10.765  1.00  0.00    -0.020 C
HETATM    7  C5  UNL     1      69.804  50.655   9.472  1.00  0.00     0.018 C
HETATM    8  C6  UNL     1      71.075  48.915  10.743  1.00  0.00    -0.001 C
HETATM    9  C15 UNL     1      70.350  47.612  10.341  1.00  0.00     0.006 C
HETATM   10  C16 UNL     1      68.865  47.996  10.245  1.00  0.00     0.006 C
HETATM   11  C17 UNL     1      68.844  49.123  11.210  1.00  0.00     0.001 C
HETATM   12  C18 UNL     1      67.532  49.667  11.434  1.00  0.00     0.003 C
HETATM   13  C19 UNL     1      66.637  49.964  10.275  1.00  0.00     0.043 C
HETATM   14  C20 UNL     1      65.204  49.905  10.779  1.00  0.00     0.060 C
HETATM   15  C21 UNL     1      64.898  48.462  11.098  1.00  0.00     0.046 C
HETATM   16  C22 UNL     1      64.915  50.860  11.863  1.00  0.00     0.044 C
HETATM   17  C24 UNL     1      66.002  51.089  12.857  1.00  0.00     0.020 C
HETATM   18  C25 UNL     1      67.375  50.789  12.423  1.00  0.00     0.035 C
ENDROOT
BRANCH   8  19
HETATM   19  C7  UNL     1      72.180  49.028   9.710  1.00  0.00    -0.014 C
HETATM   20  C8  UNL     1      73.536  48.872  10.281  1.00  0.00     0.010 C
BRANCH  19  21
HETATM   21  C9  UNL     1      71.881  47.860   8.813  1.00  0.00     0.005 C
BRANCH  21  22
HETATM   22  C10 UNL     1      71.953  47.953   7.367  1.00  0.00     0.001 C
BRANCH  22  23
HETATM   23  C11 UNL     1      71.656  49.237   6.696  1.00  0.00     0.004 C
BRANCH  23  24
HETATM   24  C12 UNL     1      70.478  49.074   5.709  1.00  0.00    -0.023 C
HETATM   25  C13 UNL     1      70.500  50.265   4.809  1.00  0.00     0.009 C
HETATM   26  C14 UNL     1      69.190  48.864   6.429  1.00  0.00     0.009 C
ENDBRANCH  23  24
ENDBRANCH  22  23
ENDBRANCH  21  22
ENDBRANCH  19  21
ENDBRANCH   8  19
BRANCH  14  27
HETATM   27  O1  UNL     1      64.391  50.213   9.660  1.00  0.00    -0.390 OA
ATOM     28  H1  UNL     1      63.499  50.034   9.933  1.00  0.00     0.210 HD
ENDBRANCH  14  27
BRANCH  16  29
HETATM   29  C23 UNL     1      63.664  50.425  12.596  1.00  0.00     0.171 C
BRANCH  29  30
HETATM   30  O2  UNL     1      62.523  51.012  12.047  1.00  0.00    -0.400 OA
ATOM     31  H2  UNL     1      61.891  50.355  11.778  1.00  0.00     0.209 HD
ENDBRANCH  29  30
ENDBRANCH  16  29
TORSDOF 8
ENDMDL