MODEL 4
REMARK VINA RESULT: -8.065529329      2.414      6.003
REMARK  7 active torsions:
REMARK  status: ('A' for Active; 'I' for Inactive)
REMARK    1  A    between atoms: C3_5  and  C4_6
REMARK    2  A    between atoms: C4_6  and  C6_8
REMARK    3  A    between atoms: C6_8  and  C7_9
REMARK    4  A    between atoms: C7_9  and  C8_10
REMARK    5  A    between atoms: C9_11  and  C10_12
REMARK    6  A    between atoms: C10_12  and  O1_13
REMARK    7  A    between atoms: C21_25  and  O2_26
ROOT
HETATM    1  C1  UNL     1      71.383  49.806  13.335  1.00  0.00     0.145 C
HETATM    2  N1  UNL     1      70.636  49.106  12.401  1.00  0.00    -0.400 N
ATOM      3  H1  UNL     1      70.979  48.153  12.278  1.00  0.00     0.158 HD
HETATM    4  C2  UNL     1      69.658  49.340  11.678  1.00  0.00    -0.005 C
HETATM    5  C3  UNL     1      69.187  48.228  10.797  1.00  0.00     0.035 C
HETATM    6  C17 UNL     1      67.826  48.406  10.226  1.00  0.00     0.011 C
HETATM    7  C18 UNL     1      67.061  49.472  10.955  1.00  0.00     0.006 C
HETATM    8  C19 UNL     1      67.849  50.753  10.749  1.00  0.00     0.002 C
HETATM    9  C20 UNL     1      67.065  51.998  10.911  1.00  0.00     0.037 C
HETATM   10  C21 UNL     1      67.991  53.180  10.776  1.00  0.00     0.118 C
HETATM   11  C22 UNL     1      69.384  52.773  10.379  1.00  0.00     0.033 C
HETATM   12  C23 UNL     1      69.969  51.757  11.340  1.00  0.00     0.018 C
HETATM   13  C24 UNL     1      68.998  50.687  11.733  1.00  0.00    -0.002 C
HETATM   14  C25 UNL     1      68.558  50.891  13.155  1.00  0.00     0.022 C
ENDROOT
BRANCH   5  15
HETATM   15  C4  UNL     1      70.182  47.778   9.777  1.00  0.00    -0.009 C
HETATM   16  C5  UNL     1      70.221  46.279   9.563  1.00  0.00     0.011 C
BRANCH  15  17
HETATM   17  C6  UNL     1      70.259  48.544   8.492  1.00  0.00     0.005 C
BRANCH  17  18
HETATM   18  C7  UNL     1      71.395  49.491   8.401  1.00  0.00     0.010 C
BRANCH  18  19
HETATM   19  C8  UNL     1      72.719  48.943   7.970  1.00  0.00     0.024 C
HETATM   20  C9  UNL     1      73.437  48.232   9.040  1.00  0.00    -0.056 C
HETATM   21  C11 UNL     1      73.983  47.061   8.852  1.00  0.00    -0.021 C
HETATM   22  C12 UNL     1      73.959  46.305   7.580  1.00  0.00     0.028 C
HETATM   23  C13 UNL     1      72.720  46.707   6.814  1.00  0.00     0.013 C
HETATM   24  C14 UNL     1      72.786  48.228   6.683  1.00  0.00    -0.040 C
HETATM   25  C15 UNL     1      71.834  48.660   5.617  1.00  0.00     0.015 C
HETATM   26  C16 UNL     1      74.192  48.447   6.069  1.00  0.00     0.015 C
BRANCH  20  27
HETATM   27  C10 UNL     1      73.573  48.847  10.403  1.00  0.00     0.198 C
BRANCH  27  28
HETATM   28  O1  UNL     1      73.524  47.903  11.403  1.00  0.00    -0.397 OA
ATOM     29  H1  UNL     1      72.673  47.874  11.824  1.00  0.00     0.209 HD
ENDBRANCH  27  28
ENDBRANCH  20  27
ENDBRANCH  18  19
ENDBRANCH  17  18
ENDBRANCH  15  17
ENDBRANCH   5  15
BRANCH  10  30
HETATM   30  O2  UNL     1      67.500  54.009   9.766  1.00  0.00    -0.396 OA
ATOM     31  H2  UNL     1      67.954  53.798   8.958  1.00  0.00     0.210 HD
ENDBRANCH  10  30
TORSDOF 7
ENDMDL