MODEL 1
REMARK VINA RESULT: -8.248656717      0.000      0.000
REMARK  8 active torsions:
REMARK  status: ('A' for Active; 'I' for Inactive)
REMARK    1  A    between atoms: C2_2  and  C4_4
REMARK    2  A    between atoms: C4_4  and  C5_5
REMARK    3  A    between atoms: C5_5  and  C6_6
REMARK    4  A    between atoms: C6_6  and  C7_7
REMARK    5  A    between atoms: C13_13  and  O1_14
REMARK    6  A    between atoms: C19_21  and  C21_23
REMARK    7  A    between atoms: C21_23  and  C22_24
REMARK    8  A    between atoms: C22_24  and  O2_26
ROOT
HETATM    1  C7  UNL     1      68.311  49.934  11.268  1.00  0.00    -0.046 C
HETATM    2  C8  UNL     1      69.310  49.815  12.205  1.00  0.00    -0.014 C
HETATM    3  C9  UNL     1      70.578  49.102  12.147  1.00  0.00     0.009 C
HETATM    4  C10 UNL     1      71.623  49.975  12.844  1.00  0.00     0.014 C
HETATM    5  C11 UNL     1      71.017  48.788  10.725  1.00  0.00     0.001 C
HETATM    6  C12 UNL     1      72.484  49.004  10.665  1.00  0.00     0.042 C
HETATM    7  C13 UNL     1      73.160  48.432   9.436  1.00  0.00     0.146 C
HETATM    8  C14 UNL     1      73.003  49.452   8.361  1.00  0.00    -0.061 C
HETATM    9  C15 UNL     1      73.762  49.371   7.294  1.00  0.00     0.017 C
HETATM   10  C16 UNL     1      72.050  50.587   8.368  1.00  0.00     0.036 C
HETATM   11  C17 UNL     1      70.646  49.959   8.489  1.00  0.00     0.010 C
HETATM   12  C18 UNL     1      70.209  49.671   9.848  1.00  0.00     0.003 C
HETATM   13  C19 UNL     1      68.698  49.301   9.994  1.00  0.00    -0.010 C
HETATM   14  C20 UNL     1      68.095  49.821   8.760  1.00  0.00     0.021 C
ENDROOT
BRANCH   1  15
HETATM   15  C6  UNL     1      67.169  50.736  11.674  1.00  0.00    -0.049 C
HETATM   16  C24 UNL     1      65.878  50.596  11.601  1.00  0.00    -0.081 C
HETATM   17  C25 UNL     1      65.067  49.364  11.376  1.00  0.00     0.043 C
HETATM   18  C26 UNL     1      64.899  51.785  11.671  1.00  0.00     0.043 C
BRANCH  15  19
HETATM   19  C5  UNL     1      67.545  52.216  11.955  1.00  0.00     0.043 C
BRANCH  19  20
HETATM   20  C4  UNL     1      67.973  52.982  10.783  1.00  0.00     0.037 C
BRANCH  20  21
HETATM   21  C2  UNL     1      67.615  54.378  10.606  1.00  0.00    -0.093 C
HETATM   22  C1  UNL     1      68.069  55.097   9.558  1.00  0.00     0.014 C
HETATM   23  C3  UNL     1      66.690  55.085  11.533  1.00  0.00     0.042 C
ENDBRANCH  20  21
ENDBRANCH  19  20
ENDBRANCH  15  19
ENDBRANCH   1  15
BRANCH  13  24
HETATM   24  C21 UNL     1      68.481  47.828  10.171  1.00  0.00     0.045 C
BRANCH  24  25
HETATM   25  C22 UNL     1      68.231  46.975   9.011  1.00  0.00     0.115 C
HETATM   26  C23 UNL     1      69.313  45.871   9.050  1.00  0.00     0.039 C
BRANCH  25  27
HETATM   27  O2  UNL     1      67.044  46.247   9.069  1.00  0.00    -0.396 OA
ATOM     28  H2  UNL     1      67.061  45.421   8.600  1.00  0.00     0.210 HD
ENDBRANCH  25  27
ENDBRANCH  24  25
ENDBRANCH  13  24
BRANCH   7  29
HETATM   29  O1  UNL     1      72.704  47.185   9.087  1.00  0.00    -0.391 OA
ATOM     30  H1  UNL     1      73.377  46.621   8.727  1.00  0.00     0.210 HD
ENDBRANCH   7  29
TORSDOF 8
ENDMDL