MODEL 4
REMARK VINA RESULT: -8.065814668      2.431      4.104
REMARK  6 active torsions:
REMARK  status: ('A' for Active; 'I' for Inactive)
REMARK    1  A    between atoms: O1_2  and  C2_3
REMARK    2  A    between atoms: C2_3  and  C3_4
REMARK    3  A    between atoms: C3_4  and  C4_5
REMARK    4  A    between atoms: C5_6  and  C6_7
REMARK    5  A    between atoms: C6_7  and  C7_8
REMARK    6  A    between atoms: C7_8  and  O2_9
ROOT
HETATM    1  C7  UNL     1      67.645  50.656  11.113  1.00  0.00     0.069 C
HETATM    2  C8  UNL     1      67.611  50.862   9.611  1.00  0.00     0.039 C
HETATM    3  C9  UNL     1      68.659  49.816   9.195  1.00  0.00     0.009 C
HETATM    4  C10 UNL     1      69.709  49.862  10.296  1.00  0.00     0.001 C
HETATM    5  C11 UNL     1      70.057  48.452  10.685  1.00  0.00    -0.000 C
HETATM    6  C12 UNL     1      70.737  47.827   9.478  1.00  0.00     0.033 C
HETATM    7  C13 UNL     1      71.319  46.491   9.873  1.00  0.00    -0.016 C
HETATM    8  C14 UNL     1      71.957  46.475  10.979  1.00  0.00    -0.027 C
HETATM    9  C15 UNL     1      72.539  45.114  11.367  1.00  0.00     0.091 C
HETATM   10  N1  UNL     1      72.339  44.715  12.676  1.00  0.00    -0.397 N
ATOM     11  H1  UNL     1      71.485  44.197  12.882  1.00  0.00     0.158 HD
HETATM   12  C16 UNL     1      73.223  44.966  13.756  1.00  0.00     0.130 C
HETATM   13  C17 UNL     1      73.198  46.475  14.198  1.00  0.00     0.100 C
HETATM   14  C18 UNL     1      72.693  47.236  13.126  1.00  0.00    -0.167 C
HETATM   15  C19 UNL     1      72.164  47.686  11.870  1.00  0.00     0.040 C
HETATM   16  C20 UNL     1      73.081  48.669  11.119  1.00  0.00     0.034 C
HETATM   17  C21 UNL     1      70.811  48.367  11.936  1.00  0.00     0.014 C
HETATM   18  C22 UNL     1      70.876  49.673  12.708  1.00  0.00     0.008 C
HETATM   19  C23 UNL     1      69.450  50.181  12.777  1.00  0.00     0.013 C
HETATM   20  C24 UNL     1      69.088  50.692  11.399  1.00  0.00    -0.009 C
HETATM   21  C25 UNL     1      69.712  52.057  11.277  1.00  0.00     0.019 C
ENDROOT
BRANCH   1  22
HETATM   22  C6  UNL     1      66.691  51.458  11.890  1.00  0.00     0.065 C
BRANCH  22  23
HETATM   23  C5  UNL     1      65.426  51.876  11.279  1.00  0.00    -0.028 C
HETATM   24  C4  UNL     1      64.896  53.070  11.300  1.00  0.00    -0.028 C
BRANCH  24  25
HETATM   25  C3  UNL     1      65.428  54.296  11.938  1.00  0.00     0.053 C
BRANCH  25  26
HETATM   26  C2  UNL     1      66.189  55.054  10.855  1.00  0.00     0.170 C
BRANCH  26  27
HETATM   27  O1  UNL     1      67.552  54.843  10.905  1.00  0.00    -0.396 OA
HETATM   28  C1  UNL     1      68.209  55.027   9.695  1.00  0.00     0.201 C
ENDBRANCH  26  27
ENDBRANCH  25  26
ENDBRANCH  24  25
ENDBRANCH  22  23
ENDBRANCH   1  22
BRANCH   1  29
HETATM   29  O2  UNL     1      67.190  49.304  11.266  1.00  0.00    -0.389 OA
ATOM     30  H2  UNL     1      67.795  48.917  11.887  1.00  0.00     0.210 HD
ENDBRANCH   1  29
TORSDOF 6
ENDMDL