MODEL 5
REMARK VINA RESULT: -3.114489256      1.016      1.016
REMARK  1 active torsions:
REMARK  status: ('A' for Active; 'I' for Inactive)
REMARK    1  A    between atoms: C3_7  and  N3_8
ROOT
HETATM    1  C1  UNL     1     -18.348  -4.416  92.491  1.00  0.00     0.317 C
HETATM    2  N1  UNL     1     -17.715  -3.316  91.839  1.00  0.00     0.168 N
HETATM    3  C2  UNL     1     -16.939  -3.661  90.641  1.00  0.00     0.512 C
HETATM    4  N2  UNL     1     -17.342  -2.334  90.136  1.00  0.00     0.007 N
ATOM      5  H21 UNL     1     -17.376  -2.117  89.139  1.00  0.00     0.283 HD
ATOM      6  H22 UNL     1     -16.755  -1.507  90.247  1.00  0.00     0.283 HD
HETATM    7  C3  UNL     1     -18.555  -2.544  90.932  1.00  0.00     0.617 C
ENDROOT
BRANCH   7   8
HETATM    8  N3  UNL     1     -19.131  -1.389  91.512  1.00  0.00    -0.023 N
ATOM      9  H33 UNL     1     -20.143  -1.394  91.388  1.00  0.00     0.279 HD
ATOM     10  H32 UNL     1     -19.080  -1.439  92.530  1.00  0.00     0.279 HD
ATOM     11  H31 UNL     1     -18.736  -0.510  91.178  1.00  0.00     0.279 HD
ENDBRANCH   7   8
TORSDOF 1
ENDMDL