MODEL 5
REMARK VINA RESULT: -2.814637607      8.467      8.939
REMARK  2 active torsions:
REMARK  status: ('A' for Active; 'I' for Inactive)
REMARK    1  A    between atoms: N1_1  and  C1_5
REMARK    2  A    between atoms: C3_7  and  N2_8
ROOT
HETATM    1  C1  UNL     1     -22.350   3.191  96.745  1.00  0.00     0.215 A
HETATM    2  C2  UNL     1     -22.682   3.291  95.311  1.00  0.00     0.069 A
HETATM    3  C3  UNL     1     -22.250   1.963  95.950  1.00  0.00     0.215 A
ENDROOT
BRANCH   1   4
HETATM    4  N1  UNL     1     -23.404   3.426  97.697  1.00  0.00    -0.073 N
ATOM      5  H13 UNL     1     -23.083   4.100  98.393  1.00  0.00     0.274 HD
ATOM      6  H12 UNL     1     -24.151   3.956  97.246  1.00  0.00     0.274 HD
ATOM      7  H11 UNL     1     -23.805   2.618  98.172  1.00  0.00     0.274 HD
ENDBRANCH   1   4
BRANCH   3   8
HETATM    8  N2  UNL     1     -23.265   0.944  95.946  1.00  0.00    -0.073 N
ATOM      9  H23 UNL     1     -24.036   1.280  96.523  1.00  0.00     0.274 HD
ATOM     10  H22 UNL     1     -23.679   0.930  95.014  1.00  0.00     0.274 HD
ATOM     11  H21 UNL     1     -23.085  -0.024  96.213  1.00  0.00     0.274 HD
ENDBRANCH   3   8
TORSDOF 2
ENDMDL