MODEL 3
REMARK VINA RESULT: -3.474477205     10.489     11.211
REMARK  0 active torsions:
REMARK  status: ('A' for Active; 'I' for Inactive)
ROOT
HETATM    1  N1  UNL     1     -24.132  -6.547  97.980  1.00  0.00    -0.385 N
ATOM      2  H11 UNL     1     -23.296  -6.731  98.536  1.00  0.00     0.157 HD
ATOM      3  H12 UNL     1     -24.935  -6.741  98.578  1.00  0.00     0.157 HD
HETATM    4  C1  UNL     1     -24.190  -6.143  96.752  1.00  0.00     0.111 A
HETATM    5  C2  UNL     1     -25.378  -5.881  95.961  1.00  0.00     0.132 A
HETATM    6  N2  UNL     1     -25.015  -5.499  94.794  1.00  0.00    -0.380 N
ATOM      7  H2  UNL     1     -25.668  -5.253  94.050  1.00  0.00     0.160 HD
HETATM    8  C3  UNL     1     -23.606  -5.455  94.653  1.00  0.00     0.244 A
HETATM    9  N3  UNL     1     -23.073  -5.872  95.920  1.00  0.00    -0.360 N
ATOM     10  H3  UNL     1     -22.089  -5.957  96.172  1.00  0.00     0.162 HD
ENDROOT
TORSDOF 0
ENDMDL