MODEL 4
REMARK VINA RESULT: -3.346886080      6.386      7.066
REMARK  0 active torsions:
REMARK  status: ('A' for Active; 'I' for Inactive)
ROOT
HETATM    1  N1  UNL     1     -20.622   0.753  93.551  1.00  0.00    -0.388 N
ATOM      2  H11 UNL     1     -19.613   0.702  93.406  1.00  0.00     0.157 HD
ATOM      3  H12 UNL     1     -21.038   0.227  92.783  1.00  0.00     0.157 HD
HETATM    4  C1  UNL     1     -21.218   1.365  94.515  1.00  0.00     0.098 C
HETATM    5  C2  UNL     1     -22.680   1.439  94.725  1.00  0.00     0.309 C
HETATM    6  N2  UNL     1     -22.771   1.654  96.167  1.00  0.00    -0.053 N
ATOM      7  H21 UNL     1     -22.745   0.796  96.718  1.00  0.00     0.279 HD
ATOM      8  H22 UNL     1     -23.689   1.966  96.484  1.00  0.00     0.279 HD
HETATM    9  C3  UNL     1     -21.680   2.596  96.470  1.00  0.00     0.356 C
HETATM   10  N3  UNL     1     -20.639   2.096  95.581  1.00  0.00    -0.356 N
ATOM     11  H3  UNL     1     -19.639   2.251  95.708  1.00  0.00     0.162 HD
ENDROOT
TORSDOF 0
ENDMDL