MODEL 4
REMARK VINA RESULT: -3.433304489      3.679      4.195
REMARK  0 active torsions:
REMARK  status: ('A' for Active; 'I' for Inactive)
ROOT
HETATM    1  C1  UNL     1     -17.508  -5.538  91.798  1.00  0.00     0.089 C
HETATM    2  C2  UNL     1     -17.888  -4.121  91.452  1.00  0.00     0.082 A
HETATM    3  N1  UNL     1     -18.961  -3.521  91.065  1.00  0.00    -0.318 N
ATOM      4  H1  UNL     1     -19.901  -3.869  90.878  1.00  0.00     0.170 HD
HETATM    5  C3  UNL     1     -18.410  -2.230  90.986  1.00  0.00     0.179 A
HETATM    6  N2  UNL     1     -18.714  -1.014  90.694  1.00  0.00    -0.371 N
ATOM      7  H21 UNL     1     -18.314  -0.078  90.636  1.00  0.00     0.159 HD
ATOM      8  H22 UNL     1     -19.571  -0.554  90.388  1.00  0.00     0.159 HD
HETATM    9  N3  UNL     1     -17.218  -2.870  91.410  1.00  0.00    -0.318 N
ATOM     10  H3  UNL     1     -16.267  -2.558  91.606  1.00  0.00     0.170 HD
ENDROOT
TORSDOF 0
ENDMDL