MODEL 3
REMARK VINA RESULT: -3.490259330     10.012     11.356
REMARK  0 active torsions:
REMARK  status: ('A' for Active; 'I' for Inactive)
ROOT
HETATM    1  C1  UNL     1     -25.378  -5.214  97.280  1.00  0.00     0.055 C
HETATM    2  C2  UNL     1     -24.774  -6.029  96.158  1.00  0.00     0.182 C
HETATM    3  N1  UNL     1     -24.941  -5.473  94.837  1.00  0.00    -0.342 N
ATOM      4  H1  UNL     1     -25.696  -5.013  94.328  1.00  0.00     0.164 HD
HETATM    5  C3  UNL     1     -23.605  -5.842  94.553  1.00  0.00     0.172 C
HETATM    6  N2  UNL     1     -22.939  -6.077  93.457  1.00  0.00    -0.371 N
ATOM      7  H21 UNL     1     -21.976  -6.343  93.253  1.00  0.00     0.159 HD
ATOM      8  H22 UNL     1     -23.116  -6.085  92.453  1.00  0.00     0.159 HD
HETATM    9  N3  UNL     1     -23.359  -5.832  95.950  1.00  0.00    -0.342 N
ATOM     10  H3  UNL     1     -22.539  -5.729  96.548  1.00  0.00     0.164 HD
ENDROOT
TORSDOF 0
ENDMDL