MODEL 2
REMARK VINA RESULT: -3.540264748      7.413      7.661
REMARK  0 active torsions:
REMARK  status: ('A' for Active; 'I' for Inactive)
ROOT
HETATM    1  N1  UNL     1     -18.610  -1.097  90.545  1.00  0.00    -0.387 N
ATOM      2  H11 UNL     1     -17.867  -0.473  90.227  1.00  0.00     0.157 HD
ATOM      3  H12 UNL     1     -19.473  -0.676  90.202  1.00  0.00     0.157 HD
HETATM    4  C1  UNL     1     -18.501  -2.164  91.218  1.00  0.00     0.097 C
HETATM    5  C2  UNL     1     -19.575  -3.065  91.678  1.00  0.00     0.106 C
HETATM    6  C3  UNL     1     -18.748  -4.343  91.904  1.00  0.00     0.209 C
HETATM    7  O1  UNL     1     -17.624  -3.797  92.527  1.00  0.00    -0.279 OA
HETATM    8  N2  UNL     1     -17.304  -2.748  91.692  1.00  0.00    -0.255 N
ATOM      9  H2  UNL     1     -16.360  -2.444  91.456  1.00  0.00     0.195 HD
ENDROOT
TORSDOF 0
ENDMDL