MODEL 4
REMARK VINA RESULT: -3.467989514      0.847      1.997
REMARK  0 active torsions:
REMARK  status: ('A' for Active; 'I' for Inactive)
ROOT
HETATM    1  C1  UNL     1     -22.438  -4.345  95.387  1.00  0.00     0.251 C
HETATM    2  C2  UNL     1     -21.808  -3.177  96.110  1.00  0.00     0.158 C
HETATM    3  N1  UNL     1     -22.011  -3.313  97.535  1.00  0.00    -0.145 NA
HETATM    4  N2  UNL     1     -23.389  -3.256  97.849  1.00  0.00    -0.121 NA
HETATM    5  C3  UNL     1     -23.944  -4.473  97.233  1.00  0.00     0.361 C
HETATM    6  N3  UNL     1     -23.843  -4.375  95.778  1.00  0.00    -0.060 N
ATOM      7  H31 UNL     1     -24.359  -5.118  95.307  1.00  0.00     0.278 HD
ATOM      8  H32 UNL     1     -24.363  -3.580  95.408  1.00  0.00     0.278 HD
ENDROOT
TORSDOF 0
ENDMDL