MODEL 1
REMARK VINA RESULT: -2.853718755      0.000      0.000
REMARK  0 active torsions:
REMARK  status: ('A' for Active; 'I' for Inactive)
ROOT
HETATM    1  S1  UNL     1     -19.773   5.060  92.895  1.00  0.00    -0.041 SA
HETATM    2  C1  UNL     1     -20.222   3.532  93.278  1.00  0.00     0.170 C
HETATM    3  N1  UNL     1     -20.447   2.861  94.513  1.00  0.00    -0.351 N
ATOM      4  H1  UNL     1     -20.165   2.996  95.484  1.00  0.00     0.163 HD
HETATM    5  C2  UNL     1     -21.259   1.898  93.778  1.00  0.00     0.248 C
HETATM    6  N2  UNL     1     -20.554   2.326  92.610  1.00  0.00    -0.351 N
ATOM      7  H2  UNL     1     -20.368   1.932  91.688  1.00  0.00     0.163 HD
ENDROOT
TORSDOF 0
ENDMDL