MODEL 4
REMARK VINA RESULT: -3.246743294      6.659      7.559
REMARK  1 active torsions:
REMARK  status: ('A' for Active; 'I' for Inactive)
REMARK    1  A    between atoms: N1_1  and  C1_5
ROOT
HETATM    1  C1  UNL     1     -18.483  -1.932  91.363  1.00  0.00     0.380 C
HETATM    2  C2  UNL     1     -17.615  -3.146  91.005  1.00  0.00     0.064 C
HETATM    3  C3  UNL     1     -18.150  -4.122  92.063  1.00  0.00     0.031 C
HETATM    4  C4  UNL     1     -19.649  -3.877  91.884  1.00  0.00     0.235 C
HETATM    5  N2  UNL     1     -19.751  -2.445  91.776  1.00  0.00    -0.046 N
ATOM      6  H21 UNL     1     -20.512  -2.152  91.162  1.00  0.00     0.279 HD
ATOM      7  H22 UNL     1     -20.090  -2.010  92.634  1.00  0.00     0.279 HD
ENDROOT
BRANCH   1   8
HETATM    8  N1  UNL     1     -18.527  -1.006  90.281  1.00  0.00    -0.050 N
ATOM      9  H13 UNL     1     -17.593  -0.773  89.945  1.00  0.00     0.276 HD
ATOM     10  H12 UNL     1     -18.893  -1.436  89.432  1.00  0.00     0.276 HD
ATOM     11  H11 UNL     1     -19.054  -0.172  90.540  1.00  0.00     0.276 HD
ENDBRANCH   1   8
TORSDOF 1
ENDMDL