MODEL 3
REMARK VINA RESULT: -6.864809745      2.285      6.088
REMARK  6 active torsions:
REMARK  status: ('A' for Active; 'I' for Inactive)
REMARK    1  A    between atoms: C2_2  and  C3_7
REMARK    2  A    between atoms: N1_3  and  O1_5
REMARK    3  A    between atoms: C4_8  and  N2_9
REMARK    4  A    between atoms: C12_18  and  N3_19
REMARK    5  A    between atoms: C18_28  and  N5_29
REMARK    6  A    between atoms: N5_29  and  C19_31
ROOT
HETATM    1  C3  UNL     1       2.170  24.305  24.986  1.00  0.00     0.058 A
HETATM    2  C4  UNL     1       2.684  25.422  24.325  1.00  0.00     0.050 A
HETATM    3  C11 UNL     1       3.220  26.457  25.113  1.00  0.00     0.078 A
HETATM    4  C12 UNL     1       3.243  26.382  26.477  1.00  0.00     0.106 A
HETATM    5  N4  UNL     1       2.739  25.294  27.045  1.00  0.00    -0.328 N
ATOM      6  H4  UNL     1       2.760  25.241  28.063  1.00  0.00     0.169 HD
HETATM    7  C18 UNL     1       2.190  24.232  26.362  1.00  0.00     0.117 A
ENDROOT
BRANCH   2   8
HETATM    8  N2  UNL     1       2.815  25.626  22.929  1.00  0.00    -0.375 N
HETATM    9  C5  UNL     1       1.890  26.501  22.266  1.00  0.00     0.154 C
HETATM   10  C6  UNL     1       2.095  26.664  20.796  1.00  0.00     0.136 C
HETATM   11  C7  UNL     1       2.749  27.930  20.364  1.00  0.00     0.041 C
HETATM   12  O2  UNL     1       2.753  25.573  20.228  1.00  0.00    -0.378 OA
HETATM   13  C8  UNL     1       3.982  25.362  20.822  1.00  0.00     0.136 C
HETATM   14  C9  UNL     1       4.724  24.377  19.936  1.00  0.00     0.041 C
HETATM   15  C10 UNL     1       3.802  24.875  22.209  1.00  0.00     0.154 C
ENDBRANCH   2   8
BRANCH   1  16
HETATM   16  C2  UNL     1       1.592  23.233  24.204  1.00  0.00     0.044 C
HETATM   17  C1  UNL     1       0.246  23.065  23.636  1.00  0.00     0.071 C
HETATM   18  N1  UNL     1       2.328  22.154  24.029  1.00  0.00    -0.273 N
ATOM     19  H1  UNL     1       3.283  22.166  24.387  1.00  0.00     0.194 HD
BRANCH  18  20
HETATM   20  O1  UNL     1       1.905  21.038  23.409  1.00  0.00    -0.290 OA
ATOM     21  H1  UNL     1       2.428  20.531  22.799  1.00  0.00     0.244 HD
ENDBRANCH  18  20
ENDBRANCH   1  16
BRANCH   7  22
HETATM   22  N5  UNL     1       1.544  23.260  27.169  1.00  0.00    -0.371 N
ATOM     23  H5  UNL     1       0.559  23.419  27.385  1.00  0.00     0.161 HD
BRANCH  22  24
HETATM   24  C19 UNL     1       2.146  22.073  27.711  1.00  0.00     0.083 A
HETATM   25  C20 UNL     1       1.622  21.499  29.038  1.00  0.00     0.027 A
HETATM   26  C21 UNL     1       3.006  21.991  28.904  1.00  0.00     0.027 A
ENDBRANCH  22  24
ENDBRANCH   7  22
BRANCH   4  27
HETATM   27  N3  UNL     1       3.821  27.467  27.226  1.00  0.00    -0.365 N
HETATM   28  C13 UNL     1       4.223  28.612  26.446  1.00  0.00     0.126 C
HETATM   29  C14 UNL     1       5.234  29.467  27.220  1.00  0.00     0.046 C
HETATM   30  C15 UNL     1       4.477  30.413  28.092  1.00  0.00     0.169 C
HETATM   31  O3  UNL     1       3.530  29.641  28.792  1.00  0.00    -0.389 OA
HETATM   32  C16 UNL     1       4.112  28.560  29.416  1.00  0.00     0.187 C
HETATM   33  C17 UNL     1       3.913  27.255  28.658  1.00  0.00     0.150 C
ENDBRANCH   4  27
TORSDOF 6
ENDMDL