MODEL 5
REMARK VINA RESULT: -7.366136398      1.577      2.156
REMARK  9 active torsions:
REMARK  status: ('A' for Active; 'I' for Inactive)
REMARK    1  A    between atoms: C2_2  and  C5_6
REMARK    2  A    between atoms: C6_7  and  C7_8
REMARK    3  A    between atoms: C11_17  and  C12_18
REMARK    4  A    between atoms: N5_21  and  C15_22
REMARK    5  A    between atoms: C15_22  and  C16_23
REMARK    6  A    between atoms: C15_22  and  C17_26
REMARK    7  A    between atoms: C16_23  and  O1_24
REMARK    8  A    between atoms: C17_26  and  C18_27
REMARK    9  A    between atoms: C18_27  and  O2_30
ROOT
HETATM    1  C1  UNL     1       3.414  28.615  30.328  1.00  0.00     0.045 C
HETATM    2  C2  UNL     1       4.240  28.637  29.060  1.00  0.00     0.105 C
HETATM    3  C3  UNL     1       5.701  28.472  29.502  1.00  0.00     0.045 C
HETATM    4  C4  UNL     1       4.041  29.889  28.361  1.00  0.00     0.081 C
HETATM    5  N1  UNL     1       3.867  30.901  27.810  1.00  0.00    -0.195 NA
ENDROOT
BRANCH   2   6
HETATM    6  C5  UNL     1       3.841  27.524  28.197  1.00  0.00    -0.075 C
HETATM    7  C6  UNL     1       3.524  26.594  27.461  1.00  0.00    -0.046 C
BRANCH   7   8
HETATM    8  C7  UNL     1       3.125  25.528  26.566  1.00  0.00     0.101 A
HETATM    9  N2  UNL     1       3.355  25.719  25.216  1.00  0.00    -0.326 N
HETATM   10  C8  UNL     1       2.923  24.843  24.300  1.00  0.00     0.189 A
ATOM     11  H2  UNL     1       3.866  26.547  24.911  1.00  0.00     0.169 HD
HETATM   12  C9  UNL     1       3.158  25.031  22.886  1.00  0.00     0.137 C
HETATM   13  N4  UNL     1       2.259  23.776  24.759  1.00  0.00    -0.343 N
HETATM   14  N3  UNL     1       3.331  25.169  21.750  1.00  0.00    -0.188 NA
HETATM   15  C10 UNL     1       1.998  23.519  26.047  1.00  0.00     0.105 A
ATOM     16  H4  UNL     1       1.923  23.104  24.070  1.00  0.00     0.167 HD
HETATM   17  C11 UNL     1       2.453  24.438  27.005  1.00  0.00     0.021 A
BRANCH  17  18
HETATM   18  C12 UNL     1       2.298  24.060  28.369  1.00  0.00    -0.046 C
HETATM   19  C13 UNL     1       1.149  23.782  28.944  1.00  0.00     0.011 C
HETATM   20  C14 UNL     1       0.815  23.361  30.363  1.00  0.00     0.301 C
HETATM   21  N5  UNL     1       2.050  22.878  30.938  1.00  0.00     0.098 N
HETATM   22  C21 UNL     1       2.564  21.902  29.989  1.00  0.00     0.273 C
HETATM   23  C22 UNL     1       3.811  22.421  29.314  1.00  0.00     0.035 C
HETATM   24  C23 UNL     1       3.606  23.932  29.149  1.00  0.00     0.041 C
BRANCH  21  25
HETATM   25  C15 UNL     1       1.869  22.280  32.256  1.00  0.00     0.249 C
BRANCH  25  26
HETATM   26  C16 UNL     1       0.398  21.981  32.443  1.00  0.00     0.200 C
BRANCH  26  27
HETATM   27  O1  UNL     1      -0.148  22.486  33.593  1.00  0.00    -0.399 OA
ATOM     28  H1  UNL     1      -0.978  22.098  33.843  1.00  0.00     0.209 HD
ENDBRANCH  26  27
ENDBRANCH  25  26
BRANCH  25  29
HETATM   29  C17 UNL     1       2.260  23.391  33.217  1.00  0.00     0.075 C
BRANCH  29  30
HETATM   30  C18 UNL     1       3.516  23.170  33.980  1.00  0.00     0.052 C
HETATM   31  C19 UNL     1       4.657  23.400  32.956  1.00  0.00     0.045 C
HETATM   32  C20 UNL     1       3.690  21.814  34.561  1.00  0.00     0.045 C
BRANCH  30  33
HETATM   33  O2  UNL     1       3.680  24.175  34.935  1.00  0.00    -0.391 OA
ATOM     34  H2  UNL     1       4.605  24.332  35.089  1.00  0.00     0.210 HD
ENDBRANCH  30  33
ENDBRANCH  29  30
ENDBRANCH  25  29
ENDBRANCH  21  25
ENDBRANCH  17  18
ENDBRANCH   7   8
ENDBRANCH   2   6
TORSDOF 9
ENDMDL