MODEL 5
REMARK VINA RESULT: -7.083222270      2.538      3.453
REMARK  7 active torsions:
REMARK  status: ('A' for Active; 'I' for Inactive)
REMARK    1  A    between atoms: C3_5  and  O1_6
REMARK    2  A    between atoms: O1_6  and  C4_7
REMARK    3  A    between atoms: C7_10  and  O2_11
REMARK    4  A    between atoms: C9_15  and  C10_16
REMARK    5  A    between atoms: C10_16  and  N2_17
REMARK    6  A    between atoms: C13_21  and  C14_22
REMARK    7  A    between atoms: C16_26  and  N4_27
ROOT
HETATM    1  N2  UNL     1       2.718  22.684  29.529  1.00  0.00     0.095 N
HETATM    2  C11 UNL     1       4.042  22.050  29.613  1.00  0.00     0.299 C
HETATM    3  C12 UNL     1       4.127  21.082  30.735  1.00  0.00     0.199 C
HETATM    4  O3  UNL     1       3.567  21.397  31.918  1.00  0.00    -0.378 OA
HETATM    5  C13 UNL     1       2.439  22.155  31.952  1.00  0.00     0.174 C
HETATM    6  C18 UNL     1       1.373  21.447  31.103  1.00  0.00     0.068 C
HETATM    7  C19 UNL     1       1.703  21.638  29.644  1.00  0.00     0.276 C
ENDROOT
BRANCH   1   8
HETATM    8  C10 UNL     1       2.610  23.381  28.260  1.00  0.00     0.320 C
BRANCH   8   9
HETATM    9  C9  UNL     1       2.983  24.825  28.416  1.00  0.00     0.037 A
HETATM   10  C2  UNL     1       3.170  25.748  27.413  1.00  0.00     0.022 A
HETATM   11  C1  UNL     1       2.983  25.391  25.944  1.00  0.00     0.069 C
HETATM   12  N1  UNL     1       3.515  26.945  27.770  1.00  0.00    -0.334 N
HETATM   13  C3  UNL     1       3.673  27.242  29.046  1.00  0.00     0.187 A
ATOM     14  H1  UNL     1       3.664  27.662  27.061  1.00  0.00     0.168 HD
HETATM   15  S1  UNL     1       3.320  25.757  29.806  1.00  0.00    -0.048 SA
BRANCH  13  16
HETATM   16  O1  UNL     1       4.042  28.479  29.621  1.00  0.00    -0.325 OA
BRANCH  16  17
HETATM   17  C4  UNL     1       5.039  29.218  28.982  1.00  0.00     0.133 C
HETATM   18  C5  UNL     1       4.490  30.301  28.086  1.00  0.00     0.035 C
HETATM   19  C6  UNL     1       5.740  31.100  27.766  1.00  0.00     0.034 C
HETATM   20  C7  UNL     1       6.428  31.164  29.104  1.00  0.00     0.120 C
HETATM   21  C8  UNL     1       5.930  29.986  29.913  1.00  0.00     0.064 C
BRANCH  20  22
HETATM   22  O2  UNL     1       6.079  32.375  29.705  1.00  0.00    -0.395 OA
ATOM     23  H2  UNL     1       5.486  32.183  30.421  1.00  0.00     0.210 HD
ENDBRANCH  20  22
ENDBRANCH  16  17
ENDBRANCH  13  16
ENDBRANCH   8   9
ENDBRANCH   1   8
BRANCH   5  24
HETATM   24  C14 UNL     1       1.869  22.219  33.318  1.00  0.00     0.054 A
HETATM   25  C15 UNL     1       2.440  22.953  34.335  1.00  0.00     0.117 A
HETATM   26  N3  UNL     1       1.886  22.980  35.562  1.00  0.00    -0.350 N
HETATM   27  C16 UNL     1       0.760  22.285  35.806  1.00  0.00     0.114 A
ATOM     28  H3  UNL     1       2.320  23.527  36.305  1.00  0.00     0.166 HD
HETATM   29  C17 UNL     1       0.167  21.541  34.804  1.00  0.00     0.136 A
HETATM   30  N5  UNL     1       0.755  21.544  33.595  1.00  0.00    -0.362 N
ATOM     31  H5  UNL     1       0.324  20.999  32.849  1.00  0.00     0.165 HD
BRANCH  27  32
HETATM   32  N4  UNL     1       0.216  22.304  36.989  1.00  0.00    -0.384 N
ATOM     33  H42 UNL     1       0.632  21.748  37.736  1.00  0.00     0.157 HD
ATOM     34  H41 UNL     1      -0.616  22.866  37.167  1.00  0.00     0.157 HD
ENDBRANCH  27  32
ENDBRANCH   5  24
TORSDOF 7
ENDMDL