MODEL 3
REMARK VINA RESULT: -8.341619849      2.097      3.105
REMARK  6 active torsions:
REMARK  status: ('A' for Active; 'I' for Inactive)
REMARK    1  A    between atoms: N2_5  and  C4_6
REMARK    2  A    between atoms: C4_6  and  C5_11
REMARK    3  A    between atoms: N3_7  and  O1_9
REMARK    4  A    between atoms: C8_15  and  C9_16
REMARK    5  A    between atoms: C9_16  and  C10_17
REMARK    6  A    between atoms: C13_20  and  N4_21
ROOT
HETATM    1  N1  UNL     1      -2.405  21.283  34.813  1.00  0.00    -0.191 NA
HETATM    2  C1  UNL     1      -1.286  21.428  34.550  1.00  0.00     0.106 C
HETATM    3  C2  UNL     1       0.109  21.626  34.238  1.00  0.00     0.131 A
HETATM    4  C3  UNL     1       0.782  21.295  33.070  1.00  0.00     0.146 A
HETATM    5  N2  UNL     1       2.071  21.661  33.216  1.00  0.00    -0.248 N
HETATM    6  N6  UNL     1       2.264  22.205  34.404  1.00  0.00    -0.257 N
ATOM      7  H6  UNL     1       3.147  22.566  34.766  1.00  0.00     0.191 HD
HETATM    8  C21 UNL     1       1.083  22.196  35.049  1.00  0.00     0.282 A
HETATM    9  O3  UNL     1       0.813  22.618  36.204  1.00  0.00    -0.265 OA
ENDROOT
BRANCH   5  10
HETATM   10  C4  UNL     1       3.053  21.466  32.199  1.00  0.00     0.127 C
HETATM   11  N3  UNL     1       4.074  20.741  32.485  1.00  0.00    -0.255 N
ATOM     12  H3  UNL     1       4.792  20.586  31.778  1.00  0.00     0.195 HD
BRANCH  11  13
HETATM   13  O1  UNL     1       4.213  20.177  33.717  1.00  0.00    -0.288 OA
ATOM     14  H1  UNL     1       5.063  19.894  34.034  1.00  0.00     0.244 HD
ENDBRANCH  11  13
BRANCH  10  15
HETATM   15  C5  UNL     1       2.904  22.085  30.843  1.00  0.00     0.059 C
HETATM   16  C6  UNL     1       4.106  21.848  30.015  1.00  0.00     0.038 C
HETATM   17  C7  UNL     1       4.890  23.028  29.582  1.00  0.00     0.169 C
HETATM   18  O2  UNL     1       4.203  24.183  29.364  1.00  0.00    -0.386 OA
HETATM   19  C8  UNL     1       3.019  24.055  28.676  1.00  0.00     0.125 C
HETATM   20  C19 UNL     1       1.901  23.999  29.726  1.00  0.00     0.033 C
HETATM   21  C20 UNL     1       2.502  23.499  31.043  1.00  0.00     0.015 C
BRANCH  19  22
HETATM   22  C9  UNL     1       2.793  25.307  27.880  1.00  0.00     0.070 C
BRANCH  22  23
HETATM   23  C10 UNL     1       3.493  26.482  28.378  1.00  0.00    -0.056 A
HETATM   24  C11 UNL     1       3.439  26.945  29.674  1.00  0.00     0.009 A
HETATM   25  C12 UNL     1       4.124  28.067  30.088  1.00  0.00     0.030 A
HETATM   26  C13 UNL     1       4.913  28.786  29.183  1.00  0.00     0.039 A
HETATM   27  C17 UNL     1       4.972  28.328  27.880  1.00  0.00     0.030 A
HETATM   28  C18 UNL     1       4.274  27.202  27.497  1.00  0.00     0.009 A
BRANCH  26  29
HETATM   29  N4  UNL     1       5.626  29.945  29.593  1.00  0.00    -0.317 N
HETATM   30  C14 UNL     1       6.357  30.084  30.709  1.00  0.00     0.115 A
HETATM   31  C15 UNL     1       6.866  31.369  30.697  1.00  0.00     0.106 A
HETATM   32  N5  UNL     1       6.442  31.993  29.582  1.00  0.00    -0.360 N
HETATM   33  C16 UNL     1       5.688  31.108  28.923  1.00  0.00     0.188 A
ATOM     34  H5  UNL     1       6.654  32.949  29.298  1.00  0.00     0.166 HD
ENDBRANCH  26  29
ENDBRANCH  22  23
ENDBRANCH  19  22
ENDBRANCH  10  15
ENDBRANCH   5  10
TORSDOF 6
ENDMDL