MODEL 5
REMARK VINA RESULT: -7.942455667      1.517      1.811
REMARK  6 active torsions:
REMARK  status: ('A' for Active; 'I' for Inactive)
REMARK    1  A    between atoms: N1_2  and  C2_5
REMARK    2  A    between atoms: C2_5  and  O1_6
REMARK    3  A    between atoms: C2_5  and  C3_8
REMARK    4  A    between atoms: C3_8  and  C4_9
REMARK    5  A    between atoms: C5_12  and  C6_13
REMARK    6  A    between atoms: N3_15  and  C8_16
ROOT
HETATM    1  C6  UNL     1       3.494  25.084  28.972  1.00  0.00     0.090 A
HETATM    2  C7  UNL     1       3.448  25.033  30.373  1.00  0.00     0.141 A
HETATM    3  N3  UNL     1       3.069  23.801  30.787  1.00  0.00    -0.279 N
HETATM    4  N4  UNL     1       2.878  23.107  29.680  1.00  0.00    -0.020 NA
HETATM    5  N5  UNL     1       3.127  23.850  28.612  1.00  0.00    -0.281 N
ATOM      6  H5  UNL     1       3.050  23.525  27.649  1.00  0.00     0.184 HD
ENDROOT
BRANCH   1   7
HETATM    7  C5  UNL     1       3.911  26.230  28.140  1.00  0.00     0.069 A
HETATM    8  N2  UNL     1       4.252  27.376  28.651  1.00  0.00    -0.351 N
HETATM    9  C4  UNL     1       4.593  28.378  27.881  1.00  0.00     0.064 A
ATOM     10  H2  UNL     1       4.253  27.496  29.664  1.00  0.00     0.166 HD
HETATM   11  S1  UNL     1       4.441  27.693  26.313  1.00  0.00    -0.085 SA
HETATM   12  C18 UNL     1       3.930  26.118  26.766  1.00  0.00     0.083 A
BRANCH   9  13
HETATM   13  C3  UNL     1       4.984  29.803  28.129  1.00  0.00     0.060 A
HETATM   14  C19 UNL     1       5.285  30.633  26.944  1.00  0.00     0.022 A
HETATM   15  C20 UNL     1       3.960  30.851  27.581  1.00  0.00     0.022 A
BRANCH  13  16
HETATM   16  C2  UNL     1       5.553  30.168  29.464  1.00  0.00     0.333 C
BRANCH  16  17
HETATM   17  N1  UNL     1       6.388  31.349  29.332  1.00  0.00    -0.052 N
HETATM   18  C1  UNL     1       6.886  31.779  30.640  1.00  0.00     0.270 C
ATOM     19  H12 UNL     1       5.902  32.103  28.846  1.00  0.00     0.279 HD
ATOM     20  H11 UNL     1       7.148  31.203  28.667  1.00  0.00     0.279 HD
ENDBRANCH  16  17
BRANCH  16  21
HETATM   21  O1  UNL     1       6.342  29.069  29.876  1.00  0.00    -0.369 OA
ATOM     22  H1  UNL     1       6.466  28.472  29.148  1.00  0.00     0.212 HD
ENDBRANCH  16  21
ENDBRANCH  13  16
ENDBRANCH   9  13
ENDBRANCH   1   7
BRANCH   3  23
HETATM   23  C8  UNL     1       2.954  23.377  32.178  1.00  0.00     0.118 C
HETATM   24  C9  UNL     1       4.298  23.052  32.774  1.00  0.00     0.054 C
HETATM   25  C10 UNL     1       4.755  21.650  32.570  1.00  0.00     0.169 C
HETATM   26  O2  UNL     1       3.837  20.836  31.967  1.00  0.00    -0.390 OA
HETATM   27  C11 UNL     1       2.564  20.906  32.495  1.00  0.00     0.179 C
HETATM   28  C12 UNL     1       1.959  22.290  32.411  1.00  0.00     0.004 C
HETATM   29  C13 UNL     1       1.308  22.468  33.797  1.00  0.00     0.014 C
HETATM   30  C17 UNL     1       0.758  22.329  31.518  1.00  0.00     0.018 C
HETATM   31  C14 UNL     1       0.201  21.408  33.669  1.00  0.00     0.005 C
HETATM   32  C15 UNL     1      -0.424  21.878  32.378  1.00  0.00    -0.018 C
HETATM   33  C16 UNL     1      -1.291  23.095  32.718  1.00  0.00     0.010 C
ENDBRANCH   3  23
TORSDOF 6
ENDMDL