MODEL 3
REMARK VINA RESULT: -8.130336168      1.636      2.123
REMARK  7 active torsions:
REMARK  status: ('A' for Active; 'I' for Inactive)
REMARK    1  A    between atoms: C5_9  and  N3_10
REMARK    2  A    between atoms: N3_10  and  C6_12
REMARK    3  A    between atoms: C6_12  and  C7_13
REMARK    4  A    between atoms: C7_13  and  N4_14
REMARK    5  A    between atoms: C16_25  and  O2_26
REMARK    6  A    between atoms: N5_28  and  C17_29
REMARK    7  A    between atoms: C17_29  and  C18_30
ROOT
HETATM    1  C18 UNL     1       4.224  30.003  28.182  1.00  0.00     0.144 C
HETATM    2  C19 UNL     1       5.360  30.806  28.549  1.00  0.00     0.060 C
HETATM    3  N6  UNL     1       6.258  31.456  28.871  1.00  0.00    -0.197 NA
ENDROOT
BRANCH   1   4
HETATM    4  C17 UNL     1       4.258  29.414  26.798  1.00  0.00     0.146 C
BRANCH   4   5
HETATM    5  N5  UNL     1       3.843  28.041  26.796  1.00  0.00    -0.320 N
HETATM    6  C12 UNL     1       3.851  27.261  27.924  1.00  0.00     0.093 A
HETATM    7  S1  UNL     1       4.196  27.246  29.597  1.00  0.00    -0.051 SA
HETATM    8  C13 UNL     1       3.427  26.003  27.684  1.00  0.00     0.038 A
HETATM    9  C4  UNL     1       3.788  25.621  29.953  1.00  0.00     0.105 A
HETATM   10  C3  UNL     1       3.391  25.136  28.739  1.00  0.00     0.080 A
HETATM   11  N2  UNL     1       3.794  24.851  31.064  1.00  0.00    -0.334 N
HETATM   12  N1  UNL     1       3.003  23.819  28.741  1.00  0.00    -0.354 N
HETATM   13  C2  UNL     1       3.001  23.040  29.827  1.00  0.00     0.050 A
ATOM     14  H1  UNL     1       2.696  23.409  27.858  1.00  0.00     0.166 HD
HETATM   15  C1  UNL     1       2.544  21.608  29.705  1.00  0.00     0.072 C
HETATM   16  C5  UNL     1       3.399  23.529  31.038  1.00  0.00     0.124 A
ATOM     17  H2  UNL     1       4.100  25.259  31.948  1.00  0.00     0.168 HD
HETATM   18  C14 UNL     1       3.135  26.004  26.307  1.00  0.00     0.004 A
HETATM   19  C15 UNL     1       2.622  24.861  25.486  1.00  0.00     0.054 C
HETATM   20  C16 UNL     1       3.402  27.265  25.815  1.00  0.00     0.150 A
BRANCH  16  21
HETATM   21  N3  UNL     1       3.451  22.892  32.109  1.00  0.00    -0.373 N
ATOM     22  H3  UNL     1       2.770  22.133  32.090  1.00  0.00     0.161 HD
BRANCH  21  23
HETATM   23  C6  UNL     1       4.128  22.878  33.308  1.00  0.00     0.151 C
BRANCH  23  24
HETATM   24  C7  UNL     1       3.092  23.184  34.430  1.00  0.00     0.292 C
BRANCH  24  25
HETATM   25  N4  UNL     1       2.079  22.162  34.418  1.00  0.00     0.094 N
HETATM   26  C8  UNL     1       0.735  22.631  34.438  1.00  0.00     0.298 C
HETATM   27  C9  UNL     1      -0.212  21.432  34.561  1.00  0.00     0.198 C
HETATM   28  O1  UNL     1       0.018  20.723  35.712  1.00  0.00    -0.388 OA
HETATM   29  C10 UNL     1       1.175  21.101  36.382  1.00  0.00     0.198 C
HETATM   30  C11 UNL     1       2.306  21.136  35.405  1.00  0.00     0.298 C
ENDBRANCH  24  25
ENDBRANCH  23  24
ENDBRANCH  21  23
ENDBRANCH  16  21
BRANCH  20  31
HETATM   31  O2  UNL     1       3.243  27.673  24.494  1.00  0.00    -0.345 OA
ATOM     32  H2  UNL     1       3.594  27.231  23.730  1.00  0.00     0.219 HD
ENDBRANCH  20  31
ENDBRANCH   4   5
ENDBRANCH   1   4
TORSDOF 7
ENDMDL