MODEL 4
REMARK VINA RESULT: -7.508698103      1.499      2.427
REMARK  6 active torsions:
REMARK  status: ('A' for Active; 'I' for Inactive)
REMARK    1  A    between atoms: C2_2  and  N1_3
REMARK    2  A    between atoms: N1_3  and  C3_5
REMARK    3  A    between atoms: N2_9  and  C7_10
REMARK    4  A    between atoms: C8_13  and  N4_14
REMARK    5  A    between atoms: C11_17  and  O1_18
REMARK    6  A    between atoms: N7_29  and  C17_30
ROOT
HETATM    1  C7  UNL     1       2.311  24.407  27.961  1.00  0.00     0.134 A
HETATM    2  N3  UNL     1       2.174  24.280  26.603  1.00  0.00    -0.176 N
ATOM      3  H3  UNL     1       1.659  23.484  26.224  1.00  0.00     0.186 HD
HETATM    4  C8  UNL     1       2.704  25.181  25.762  1.00  0.00     0.683 A
HETATM    5  N5  UNL     1       3.366  26.201  26.300  1.00  0.00    -0.174 N
ATOM      6  H5  UNL     1       3.773  26.893  25.671  1.00  0.00     0.186 HD
HETATM    7  C14 UNL     1       3.532  26.374  27.628  1.00  0.00     0.153 A
HETATM    8  C15 UNL     1       2.993  25.457  28.522  1.00  0.00     0.071 A
HETATM    9  C16 UNL     1       3.301  25.852  29.813  1.00  0.00     0.126 A
HETATM   10  N6  UNL     1       4.018  27.000  29.664  1.00  0.00    -0.307 N
ATOM     11  H6  UNL     1       4.399  27.551  30.432  1.00  0.00     0.186 HD
HETATM   12  N7  UNL     1       4.148  27.297  28.388  1.00  0.00    -0.271 N
ENDROOT
BRANCH   1  13
HETATM   13  N2  UNL     1       1.723  23.422  28.825  1.00  0.00    -0.364 N
HETATM   14  C6  UNL     1       0.439  23.542  29.444  1.00  0.00     0.124 C
HETATM   15  C5  UNL     1       0.399  23.214  30.898  1.00  0.00     0.022 C
HETATM   16  C4  UNL     1       1.760  22.725  31.370  1.00  0.00     0.028 C
HETATM   17  C3  UNL     1       2.330  21.702  30.460  1.00  0.00     0.098 C
HETATM   18  C21 UNL     1       2.499  22.236  29.039  1.00  0.00     0.149 C
BRANCH  17  19
HETATM   19  N1  UNL     1       1.662  20.468  30.480  1.00  0.00    -0.396 N
ATOM     20  H1  UNL     1       1.629  19.950  31.359  1.00  0.00     0.159 HD
BRANCH  19  21
HETATM   21  C2  UNL     1       1.039  19.910  29.356  1.00  0.00     0.051 C
HETATM   22  C1  UNL     1       0.330  18.599  29.470  1.00  0.00     0.054 C
ENDBRANCH  19  21
ENDBRANCH  17  19
ENDBRANCH   1  13
BRANCH   4  23
HETATM   23  N4  UNL     1       2.527  24.996  24.364  1.00  0.00    -0.217 N
HETATM   24  C9  UNL     1       2.232  26.152  23.539  1.00  0.00     0.143 C
HETATM   25  C10 UNL     1       3.051  26.133  22.252  1.00  0.00     0.052 C
HETATM   26  C11 UNL     1       2.771  24.801  21.582  1.00  0.00     0.121 C
HETATM   27  C12 UNL     1       3.406  23.731  22.473  1.00  0.00     0.052 C
HETATM   28  C13 UNL     1       2.648  23.670  23.780  1.00  0.00     0.143 C
BRANCH  26  29
HETATM   29  O1  UNL     1       1.369  24.626  21.619  1.00  0.00    -0.395 OA
ATOM     30  H1  UNL     1       1.218  23.688  21.639  1.00  0.00     0.210 HD
ENDBRANCH  26  29
ENDBRANCH   4  23
BRANCH  12  31
HETATM   31  C17 UNL     1       4.846  28.436  27.828  1.00  0.00     0.110 C
HETATM   32  C18 UNL     1       5.285  29.370  28.963  1.00  0.00     0.027 C
HETATM   33  C19 UNL     1       4.803  30.579  28.158  1.00  0.00     0.004 C
HETATM   34  C20 UNL     1       3.982  29.572  27.337  1.00  0.00     0.027 C
ENDBRANCH  12  31
TORSDOF 6
ENDMDL