MODEL 3
REMARK VINA RESULT: -6.659303435      3.848      8.131
REMARK  7 active torsions:
REMARK  status: ('A' for Active; 'I' for Inactive)
REMARK    1  A    between atoms: C2_2  and  N1_4
REMARK    2  A    between atoms: C2_2  and  C4_8
REMARK    3  A    between atoms: C4_8  and  O1_9
REMARK    4  A    between atoms: O1_9  and  C5_10
REMARK    5  A    between atoms: C9_15  and  C11_17
REMARK    6  A    between atoms: C13_20  and  C14_21
REMARK    7  A    between atoms: C19_29  and  O7_31
ROOT
HETATM    1  C5  UNL     1       2.929  25.537  29.381  1.00  0.00     0.124 C
HETATM    2  C6  UNL     1       2.214  24.316  28.785  1.00  0.00     0.035 C
HETATM    3  C7  UNL     1       1.625  23.613  29.992  1.00  0.00     0.054 C
HETATM    4  C8  UNL     1       2.772  22.835  30.617  1.00  0.00     0.182 C
HETATM    5  O2  UNL     1       2.327  22.341  31.834  1.00  0.00    -0.330 OA
HETATM    6  C9  UNL     1       2.114  20.962  31.703  1.00  0.00     0.179 C
HETATM    7  C10 UNL     1       3.404  20.310  32.208  1.00  0.00     0.080 C
HETATM    8  O5  UNL     1       2.032  20.719  30.335  1.00  0.00    -0.281 OA
HETATM    9  C18 UNL     1       2.935  21.627  29.761  1.00  0.00     0.299 C
HETATM   10  O6  UNL     1       3.698  21.448  28.755  1.00  0.00    -0.262 OA
HETATM   11  C19 UNL     1       4.015  23.663  30.730  1.00  0.00     0.097 C
HETATM   12  C20 UNL     1       4.570  23.522  32.159  1.00  0.00     0.050 C
HETATM   13  C21 UNL     1       3.896  25.097  30.457  1.00  0.00     0.073 C
ENDROOT
BRANCH  11  14
HETATM   14  O7  UNL     1       4.979  23.078  29.905  1.00  0.00    -0.387 OA
ATOM     15  H7  UNL     1       5.829  23.288  30.272  1.00  0.00     0.210 HD
ENDBRANCH  11  14
BRANCH   6  16
HETATM   16  C11 UNL     1       1.019  20.506  32.558  1.00  0.00     0.106 C
HETATM   17  C12 UNL     1      -0.172  21.455  32.691  1.00  0.00     0.181 C
HETATM   18  O3  UNL     1      -0.678  20.810  31.531  1.00  0.00    -0.380 OA
HETATM   19  C13 UNL     1      -0.097  19.669  32.138  1.00  0.00     0.167 C
BRANCH  19  20
HETATM   20  C14 UNL     1      -0.003  18.458  31.385  1.00  0.00    -0.005 A
HETATM   21  C15 UNL     1       0.007  17.170  31.916  1.00  0.00     0.036 A
HETATM   22  C16 UNL     1       0.087  16.282  30.875  1.00  0.00     0.142 A
HETATM   23  O4  UNL     1       0.125  16.970  29.784  1.00  0.00    -0.334 OA
HETATM   24  C17 UNL     1       0.073  18.281  30.028  1.00  0.00     0.151 A
ENDBRANCH  19  20
ENDBRANCH   6  16
BRANCH   1  25
HETATM   25  O1  UNL     1       3.534  26.243  28.390  1.00  0.00    -0.383 OA
BRANCH  25  26
HETATM   26  C4  UNL     1       3.373  25.981  27.093  1.00  0.00     0.206 C
BRANCH  26  27
HETATM   27  C2  UNL     1       3.924  26.871  26.044  1.00  0.00     0.137 C
HETATM   28  C1  UNL     1       3.160  26.993  24.783  1.00  0.00     0.048 C
HETATM   29  C3  UNL     1       3.909  28.307  26.661  1.00  0.00     0.048 C
BRANCH  27  30
HETATM   30  N1  UNL     1       5.331  26.644  25.761  1.00  0.00    -0.069 N
ATOM     31  H13 UNL     1       5.893  26.629  26.612  1.00  0.00     0.275 HD
ATOM     32  H12 UNL     1       5.506  25.689  25.449  1.00  0.00     0.275 HD
ATOM     33  H11 UNL     1       5.672  27.333  25.090  1.00  0.00     0.275 HD
ENDBRANCH  27  30
ENDBRANCH  26  27
ENDBRANCH  25  26
ENDBRANCH   1  25
TORSDOF 7
ENDMDL