MODEL 1
REMARK VINA RESULT: -7.278395337      0.000      0.000
REMARK  6 active torsions:
REMARK  status: ('A' for Active; 'I' for Inactive)
REMARK    1  A    between atoms: C2_2  and  S1_4
REMARK    2  A    between atoms: S1_4  and  C4_5
REMARK    3  A    between atoms: C4_5  and  C5_6
REMARK    4  A    between atoms: C8_13  and  O1_14
REMARK    5  A    between atoms: O1_14  and  C9_15
REMARK    6  A    between atoms: C14_23  and  N4_24
ROOT
HETATM    1  C5  UNL     1       3.034  21.530  32.164  1.00  0.00     0.083 C
HETATM    2  S2  UNL     1       4.557  22.001  33.068  1.00  0.00    -0.141 SA
HETATM    3  C6  UNL     1       4.510  23.745  32.528  1.00  0.00     0.199 C
HETATM    4  N1  UNL     1       3.714  23.683  31.349  1.00  0.00    -0.348 N
HETATM    5  C7  UNL     1       3.590  24.718  30.347  1.00  0.00     0.145 A
HETATM    6  N2  UNL     1       3.865  26.019  30.627  1.00  0.00    -0.306 N
ATOM      7  H2  UNL     1       4.167  26.263  31.570  1.00  0.00     0.171 HD
HETATM    8  C8  UNL     1       3.756  26.994  29.710  1.00  0.00     0.227 A
HETATM    9  N3  UNL     1       3.355  26.644  28.472  1.00  0.00    -0.306 N
ATOM     10  H3  UNL     1       3.268  27.377  27.768  1.00  0.00     0.171 HD
HETATM   11  C14 UNL     1       3.064  25.383  28.115  1.00  0.00     0.140 A
HETATM   12  C15 UNL     1       3.183  24.397  29.071  1.00  0.00     0.157 A
HETATM   13  O3  UNL     1       2.903  23.067  28.790  1.00  0.00    -0.342 OA
HETATM   14  C16 UNL     1       3.304  22.027  29.700  1.00  0.00     0.202 C
HETATM   15  C17 UNL     1       2.961  22.514  31.107  1.00  0.00     0.125 C
ENDROOT
BRANCH   8  16
HETATM   16  O1  UNL     1       4.048  28.319  30.040  1.00  0.00    -0.316 OA
BRANCH  16  17
HETATM   17  C9  UNL     1       4.821  29.070  29.150  1.00  0.00     0.136 C
HETATM   18  C10 UNL     1       3.947  29.968  28.268  1.00  0.00     0.059 C
HETATM   19  C11 UNL     1       4.830  30.495  27.180  1.00  0.00     0.170 C
HETATM   20  O2  UNL     1       6.087  30.865  27.630  1.00  0.00    -0.391 OA
HETATM   21  C12 UNL     1       6.119  31.186  28.972  1.00  0.00     0.170 C
HETATM   22  C13 UNL     1       5.781  30.003  29.865  1.00  0.00     0.059 C
ENDBRANCH  16  17
ENDBRANCH   8  16
BRANCH  11  23
HETATM   23  N4  UNL     1       2.690  25.130  26.919  1.00  0.00    -0.383 N
ATOM     24  H42 UNL     1       3.060  25.638  26.115  1.00  0.00     0.157 HD
ATOM     25  H41 UNL     1       2.001  24.399  26.746  1.00  0.00     0.157 HD
ENDBRANCH  11  23
BRANCH   1  26
HETATM   26  C4  UNL     1       3.012  20.087  31.844  1.00  0.00     0.091 C
BRANCH  26  27
HETATM   27  S1  UNL     1       1.566  19.241  32.466  1.00  0.00    -0.164 SA
BRANCH  27  28
HETATM   28  C2  UNL     1       0.421  18.757  31.154  1.00  0.00     0.039 C
HETATM   29  C1  UNL     1       0.819  19.313  29.818  1.00  0.00     0.021 C
HETATM   30  C3  UNL     1       0.231  17.258  31.128  1.00  0.00     0.021 C
ENDBRANCH  27  28
ENDBRANCH  26  27
ENDBRANCH   1  26
TORSDOF 6
ENDMDL