MODEL 3
REMARK VINA RESULT: -8.073112434      1.542      1.804
REMARK  5 active torsions:
REMARK  status: ('A' for Active; 'I' for Inactive)
REMARK    1  A    between atoms: C3_9  and  C4_10
REMARK    2  A    between atoms: C7_15  and  N5_16
REMARK    3  A    between atoms: C13_24  and  C14_25
REMARK    4  A    between atoms: C14_25  and  N7_26
REMARK    5  A    between atoms: N7_26  and  C15_29
ROOT
HETATM    1  C4  UNL     1       3.380  23.961  30.444  1.00  0.00     0.137 A
HETATM    2  N4  UNL     1       2.582  23.149  29.755  1.00  0.00    -0.343 N
ATOM      3  H4  UNL     1       2.182  22.352  30.251  1.00  0.00     0.167 HD
HETATM    4  C5  UNL     1       2.264  23.295  28.474  1.00  0.00     0.021 A
HETATM    5  C6  UNL     1       2.787  24.368  27.766  1.00  0.00     0.009 A
HETATM    6  C7  UNL     1       3.620  25.229  28.460  1.00  0.00     0.113 A
HETATM    7  N6  UNL     1       3.897  25.006  29.781  1.00  0.00    -0.326 N
ATOM      8  H6  UNL     1       4.513  25.652  30.275  1.00  0.00     0.169 HD
HETATM    9  C12 UNL     1       2.504  24.614  26.327  1.00  0.00     0.050 C
HETATM   10  C13 UNL     1       1.610  23.582  25.751  1.00  0.00     0.016 C
HETATM   11  C18 UNL     1       1.838  22.205  26.351  1.00  0.00     0.013 C
HETATM   12  C19 UNL     1       1.356  22.299  27.790  1.00  0.00     0.058 C
ENDROOT
BRANCH   1  13
HETATM   13  C3  UNL     1       3.716  23.789  31.840  1.00  0.00     0.113 A
HETATM   14  N3  UNL     1       4.824  24.081  32.519  1.00  0.00    -0.294 N
HETATM   15  N2  UNL     1       4.704  23.755  33.792  1.00  0.00    -0.284 N
ATOM     16  H3  UNL     1       5.657  24.503  32.108  1.00  0.00     0.187 HD
HETATM   17  C2  UNL     1       3.461  23.209  34.021  1.00  0.00     0.140 A
ATOM     18  H2  UNL     1       5.425  23.887  34.501  1.00  0.00     0.188 HD
HETATM   19  N1  UNL     1       2.792  22.724  35.018  1.00  0.00    -0.344 N
HETATM   20  C20 UNL     1       2.855  23.237  32.792  1.00  0.00     0.083 A
HETATM   21  C1  UNL     1       1.561  22.273  34.838  1.00  0.00     0.140 A
ATOM     22  H1  UNL     1       3.215  22.688  35.945  1.00  0.00     0.167 HD
HETATM   23  S1  UNL     1       1.328  22.547  33.164  1.00  0.00    -0.079 SA
ENDBRANCH   1  13
BRANCH   6  24
HETATM   24  N5  UNL     1       4.221  26.370  27.897  1.00  0.00    -0.367 N
HETATM   25  C8  UNL     1       3.961  27.739  28.261  1.00  0.00     0.124 C
HETATM   26  C9  UNL     1       3.834  28.409  26.909  1.00  0.00     0.021 C
HETATM   27  C10 UNL     1       4.657  27.578  25.966  1.00  0.00     0.021 C
HETATM   28  C11 UNL     1       5.218  26.452  26.830  1.00  0.00     0.124 C
ENDBRANCH   6  24
BRANCH  10  29
HETATM   29  C14 UNL     1       1.683  23.422  24.253  1.00  0.00     0.237 C
BRANCH  29  30
HETATM   30  N7  UNL     1       2.287  22.200  23.861  1.00  0.00    -0.067 N
ATOM     31  H72 UNL     1       3.263  22.351  23.604  1.00  0.00     0.277 HD
ATOM     32  H71 UNL     1       2.411  21.589  24.668  1.00  0.00     0.277 HD
BRANCH  30  33
HETATM   33  C15 UNL     1       1.593  21.506  22.809  1.00  0.00     0.233 C
HETATM   34  C16 UNL     1       0.091  21.695  22.809  1.00  0.00     0.202 C
HETATM   35  O1  UNL     1      -0.085  20.460  23.476  1.00  0.00    -0.387 OA
HETATM   36  C17 UNL     1       1.198  20.091  23.059  1.00  0.00     0.202 C
ENDBRANCH  30  33
ENDBRANCH  29  30
ENDBRANCH  10  29
TORSDOF 5
ENDMDL