MODEL 5
REMARK VINA RESULT: -6.703758783      3.185      5.947
REMARK  7 active torsions:
REMARK  status: ('A' for Active; 'I' for Inactive)
REMARK    1  A    between atoms: C4_4  and  C5_5
REMARK    2  A    between atoms: C5_5  and  C6_6
REMARK    3  A    between atoms: C8_8  and  O1_9
REMARK    4  A    between atoms: O1_9  and  C9_10
REMARK    5  A    between atoms: C16_18  and  C17_19
REMARK    6  A    between atoms: C17_19  and  C18_20
REMARK    7  A    between atoms: C21_25  and  O4_26
ROOT
HETATM    1  C6  UNL     1      63.096  -3.959  25.330  1.00  0.00     0.026 C
HETATM    2  C7  UNL     1      62.939  -3.564  23.840  1.00  0.00     0.040 C
HETATM    3  C8  UNL     1      63.967  -2.512  23.623  1.00  0.00     0.133 C
HETATM    4  C11 UNL     1      65.322  -3.035  23.892  1.00  0.00     0.045 C
HETATM    5  C12 UNL     1      65.577  -3.813  25.126  1.00  0.00    -0.007 C
HETATM    6  C13 UNL     1      66.634  -4.875  24.730  1.00  0.00     0.019 C
HETATM    7  C14 UNL     1      66.222  -3.004  26.184  1.00  0.00    -0.003 C
HETATM    8  C15 UNL     1      65.769  -1.609  26.388  1.00  0.00     0.011 C
HETATM    9  C16 UNL     1      66.332  -3.689  27.541  1.00  0.00    -0.002 C
HETATM   10  C19 UNL     1      64.904  -4.007  27.917  1.00  0.00     0.008 C
HETATM   11  C20 UNL     1      64.496  -5.113  26.959  1.00  0.00     0.039 C
HETATM   12  C21 UNL     1      64.377  -4.653  25.560  1.00  0.00     0.069 C
ENDROOT
BRANCH   1  13
HETATM   13  C5  UNL     1      61.894  -4.625  25.831  1.00  0.00     0.040 C
BRANCH  13  14
HETATM   14  C4  UNL     1      60.612  -4.583  25.123  1.00  0.00     0.137 C
HETATM   15  C3  UNL     1      59.976  -3.206  25.498  1.00  0.00     0.076 C
HETATM   16  C2  UNL     1      58.526  -3.424  25.327  1.00  0.00     0.010 C
HETATM   17  C1  UNL     1      57.597  -2.531  25.147  1.00  0.00     0.025 C
HETATM   18  C22 UNL     1      58.346  -4.856  25.400  1.00  0.00     0.289 C
HETATM   19  O5  UNL     1      59.595  -5.446  25.529  1.00  0.00    -0.312 OA
HETATM   20  O6  UNL     1      57.247  -5.449  25.354  1.00  0.00    -0.260 OA
ENDBRANCH  13  14
ENDBRANCH   1  13
BRANCH  12  21
HETATM   21  O4  UNL     1      64.375  -5.781  24.739  1.00  0.00    -0.389 OA
ATOM     22  H4  UNL     1      64.898  -6.440  25.179  1.00  0.00     0.210 HD
ENDBRANCH  12  21
BRANCH   3  23
HETATM   23  O1  UNL     1      63.963  -1.942  22.337  1.00  0.00    -0.316 OA
BRANCH  23  24
HETATM   24  C9  UNL     1      64.565  -0.783  21.963  1.00  0.00     0.255 C
HETATM   25  C10 UNL     1      65.830  -0.860  21.171  1.00  0.00     0.126 C
HETATM   26  O2  UNL     1      64.027   0.295  22.301  1.00  0.00    -0.266 OA
ENDBRANCH  23  24
ENDBRANCH   3  23
BRANCH   9  27
HETATM   27  C17 UNL     1      67.016  -2.761  28.481  1.00  0.00     0.104 C
BRANCH  27  28
HETATM   28  C18 UNL     1      67.077  -3.339  29.846  1.00  0.00     0.231 C
HETATM   29  N1  UNL     1      66.642  -2.561  30.988  1.00  0.00    -0.062 NA
HETATM   30  O3  UNL     1      67.493  -4.491  30.093  1.00  0.00    -0.277 OA
ENDBRANCH  27  28
ENDBRANCH   9  27
TORSDOF 7
ENDMDL