MODEL 4
REMARK VINA RESULT: -8.621804898      0.994      1.930
REMARK  5 active torsions:
REMARK  status: ('A' for Active; 'I' for Inactive)
REMARK    1  A    between atoms: C4_6  and  N2_7
REMARK    2  A    between atoms: N2_7  and  C5_9
REMARK    3  A    between atoms: N3_12  and  C8_13
REMARK    4  A    between atoms: C8_13  and  C9_14
REMARK    5  A    between atoms: N5_21  and  C13_22
ROOT
HETATM    1  C5  UNL     1      59.122  -3.089  25.695  1.00  0.00     0.097 C
HETATM    2  C6  UNL     1      58.935  -4.556  25.500  1.00  0.00     0.041 C
HETATM    3  C7  UNL     1      60.247  -4.935  24.838  1.00  0.00     0.097 C
HETATM    4  N3  UNL     1      60.386  -3.865  23.818  1.00  0.00    -0.289 NA
HETATM    5  C21 UNL     1      59.964  -2.685  24.480  1.00  0.00     0.120 C
ENDROOT
BRANCH   4   6
HETATM    6  C8  UNL     1      61.685  -3.920  23.243  1.00  0.00     0.086 C
BRANCH   6   7
HETATM    7  C9  UNL     1      62.528  -2.762  23.064  1.00  0.00     0.044 C
HETATM    8  C10 UNL     1      62.706  -2.475  21.576  1.00  0.00     0.289 C
HETATM    9  N4  UNL     1      63.197  -1.124  21.334  1.00  0.00    -0.068 N
HETATM   10  C11 UNL     1      64.286  -0.750  22.166  1.00  0.00     0.252 C
ATOM     11  H42 UNL     1      63.437  -1.000  20.351  1.00  0.00     0.277 HD
ATOM     12  H41 UNL     1      62.438  -0.448  21.412  1.00  0.00     0.277 HD
HETATM   13  C12 UNL     1      63.948  -1.010  23.592  1.00  0.00     0.150 C
HETATM   14  N5  UNL     1      63.697  -2.470  23.723  1.00  0.00    -0.376 N
BRANCH  14  15
HETATM   15  C13 UNL     1      64.124  -2.885  24.983  1.00  0.00     0.084 C
HETATM   16  C14 UNL     1      64.741  -1.829  25.796  1.00  0.00     0.025 C
HETATM   17  C15 UNL     1      66.153  -2.024  26.258  1.00  0.00     0.002 C
HETATM   18  C16 UNL     1      66.217  -2.764  27.581  1.00  0.00     0.000 C
HETATM   19  C17 UNL     1      66.267  -4.248  27.455  1.00  0.00     0.000 C
HETATM   20  C18 UNL     1      64.846  -4.763  27.398  1.00  0.00     0.000 C
HETATM   21  C19 UNL     1      64.469  -5.173  26.010  1.00  0.00     0.002 C
HETATM   22  C20 UNL     1      64.903  -4.192  24.951  1.00  0.00     0.025 C
ENDBRANCH  14  15
ENDBRANCH   6   7
ENDBRANCH   4   6
BRANCH   1  23
HETATM   23  N2  UNL     1      57.933  -2.311  25.771  1.00  0.00    -0.370 N
ATOM     24  H2  UNL     1      57.826  -1.721  26.596  1.00  0.00     0.161 HD
BRANCH  23  25
HETATM   25  C4  UNL     1      56.896  -2.272  24.830  1.00  0.00     0.105 A
HETATM   26  C3  UNL     1      56.726  -1.113  24.066  1.00  0.00     0.096 A
HETATM   27  C2  UNL     1      55.718  -1.013  23.137  1.00  0.00     0.104 A
HETATM   28  N1  UNL     1      55.591   0.051  22.457  1.00  0.00    -0.381 N
HETATM   29  N7  UNL     1      54.892  -2.050  22.973  1.00  0.00    -0.339 N
HETATM   30  C1  UNL     1      54.555   0.221  21.467  1.00  0.00     0.147 C
ATOM     31  H1  UNL     1      56.246   0.816  22.617  1.00  0.00     0.160 HD
HETATM   32  C22 UNL     1      55.026  -3.180  23.691  1.00  0.00     0.183 A
ATOM     33  H7  UNL     1      54.141  -1.984  22.286  1.00  0.00     0.168 HD
HETATM   34  N6  UNL     1      56.029  -3.261  24.605  1.00  0.00    -0.339 N
ATOM     35  H6  UNL     1      56.124  -4.120  25.146  1.00  0.00     0.168 HD
ENDBRANCH  23  25
ENDBRANCH   1  23
TORSDOF 5
ENDMDL