MODEL 1
REMARK VINA RESULT: -6.662880326      0.000      0.000
REMARK  5 active torsions:
REMARK  status: ('A' for Active; 'I' for Inactive)
REMARK       I    between atoms: N1_4  and  C4_5
REMARK    1  A    between atoms: C4_5  and  C5_7
REMARK    2  A    between atoms: C5_7  and  N2_8
REMARK    3  A    between atoms: C5_7  and  C11_18
REMARK    4  A    between atoms: C11_18  and  N4_20
REMARK    5  A    between atoms: N4_20  and  C13_22
ROOT
HETATM    1  C5  UNL     1      62.666  -2.998  24.280  1.00  0.00     0.196 C
ENDROOT
BRANCH   1   2
HETATM    2  C4  UNL     1      63.675  -3.029  25.359  1.00  0.00     0.253 C
HETATM    3  N1  UNL     1      64.080  -4.137  26.109  1.00  0.00    -0.285 N
HETATM    4  C3  UNL     1      63.651  -5.394  26.039  1.00  0.00     0.125 A
HETATM    5  C22 UNL     1      65.041  -4.136  27.097  1.00  0.00     0.191 A
HETATM    6  C2  UNL     1      64.305  -6.192  26.949  1.00  0.00     0.022 A
HETATM    7  C1  UNL     1      64.141  -7.666  27.210  1.00  0.00     0.069 C
HETATM    8  N6  UNL     1      65.156  -5.377  27.582  1.00  0.00    -0.354 N
ATOM      9  H6  UNL     1      65.797  -5.660  28.323  1.00  0.00     0.166 HD
HETATM   10  O1  UNL     1      64.251  -1.918  25.656  1.00  0.00    -0.270 OA
ENDBRANCH   1   2
BRANCH   1  11
HETATM   11  N2  UNL     1      61.396  -2.663  24.798  1.00  0.00    -0.380 N
HETATM   12  C6  UNL     1      60.367  -3.425  24.890  1.00  0.00     0.008 C
HETATM   13  C7  UNL     1      59.159  -2.808  25.477  1.00  0.00     0.055 C
HETATM   14  C10 UNL     1      60.498  -4.805  24.411  1.00  0.00     0.284 C
HETATM   15  C8  UNL     1      57.991  -3.724  25.466  1.00  0.00     0.033 C
HETATM   16  C9  UNL     1      58.103  -4.825  24.464  1.00  0.00     0.233 C
HETATM   17  N3  UNL     1      59.314  -5.609  24.635  1.00  0.00    -0.070 N
ATOM     18  H32 UNL     1      59.338  -6.065  25.546  1.00  0.00     0.277 HD
ATOM     19  H31 UNL     1      59.309  -6.439  24.042  1.00  0.00     0.277 HD
ATOM     20  H2  UNL     1      61.284  -1.708  25.137  1.00  0.00     0.160 HD
ENDBRANCH   1  11
BRANCH   1  21
HETATM   21  C11 UNL     1      63.081  -2.230  23.056  1.00  0.00     0.105 C
HETATM   22  C12 UNL     1      61.952  -2.387  22.006  1.00  0.00     0.034 C
BRANCH  21  23
HETATM   23  N4  UNL     1      64.256  -2.538  22.467  1.00  0.00    -0.406 N
ATOM     24  H4  UNL     1      64.226  -3.474  22.064  1.00  0.00     0.154 HD
BRANCH  23  25
HETATM   25  C13 UNL     1      65.478  -1.951  22.257  1.00  0.00     0.030 C
HETATM   26  C14 UNL     1      65.844  -1.888  20.752  1.00  0.00     0.035 C
HETATM   27  C15 UNL     1      67.306  -1.617  20.599  1.00  0.00    -0.008 C
HETATM   28  C16 UNL     1      68.160  -2.671  21.262  1.00  0.00     0.037 C
HETATM   29  C20 UNL     1      67.682  -0.270  21.142  1.00  0.00     0.037 C
HETATM   30  C17 UNL     1      67.901  -2.559  22.737  1.00  0.00     0.189 C
HETATM   31  C18 UNL     1      66.486  -2.893  22.973  1.00  0.00     0.063 C
HETATM   32  N5  UNL     1      68.132  -1.232  23.277  1.00  0.00    -0.067 N
HETATM   33  C19 UNL     1      67.297  -0.294  22.623  1.00  0.00     0.189 C
ATOM     34  H52 UNL     1      68.017  -1.206  24.290  1.00  0.00     0.278 HD
ATOM     35  H51 UNL     1      69.115  -0.965  23.232  1.00  0.00     0.278 HD
HETATM   36  C21 UNL     1      65.796  -0.570  22.749  1.00  0.00     0.063 C
ENDBRANCH  23  25
ENDBRANCH  21  23
ENDBRANCH   1  21
TORSDOF 5
ENDMDL