MODEL 5
REMARK VINA RESULT: -6.323161721      2.896      5.879
REMARK  8 active torsions:
REMARK  status: ('A' for Active; 'I' for Inactive)
REMARK    1  A    between atoms: C2_2  and  C3_3
REMARK    2  A    between atoms: C5_5  and  C6_6
REMARK       I    between atoms: C6_6  and  N1_8
REMARK    3  A    between atoms: N1_8  and  C7_10
REMARK    4  A    between atoms: C7_10  and  C8_11
REMARK    5  A    between atoms: C7_10  and  C12_21
REMARK    6  A    between atoms: C11_18  and  O3_19
REMARK       I    between atoms: N3_25  and  C16_26
REMARK    7  A    between atoms: C16_26  and  O5_28
REMARK    8  A    between atoms: O5_28  and  C17_29
ROOT
HETATM    1  C6  UNL     1      64.354  -3.861  25.426  1.00  0.00     0.241 C
HETATM    2  O1  UNL     1      64.913  -4.413  24.428  1.00  0.00    -0.271 OA
HETATM    3  N1  UNL     1      64.762  -4.136  26.755  1.00  0.00    -0.351 N
ATOM      4  H1  UNL     1      64.276  -3.661  27.516  1.00  0.00     0.163 HD
ENDROOT
BRANCH   3   5
HETATM    5  C7  UNL     1      65.830  -5.053  27.093  1.00  0.00     0.125 C
BRANCH   5   6
HETATM    6  C8  UNL     1      65.271  -6.204  27.822  1.00  0.00     0.201 C
HETATM    7  O2  UNL     1      64.494  -5.759  28.911  1.00  0.00    -0.378 OA
HETATM    8  C9  UNL     1      64.575  -6.715  29.916  1.00  0.00     0.196 C
HETATM    9  C10 UNL     1      64.508  -8.104  29.329  1.00  0.00     0.261 C
HETATM   10  N2  UNL     1      63.889  -8.137  28.035  1.00  0.00    -0.044 N
HETATM   11  C11 UNL     1      64.524  -7.227  27.079  1.00  0.00     0.350 C
ATOM     12  H22 UNL     1      63.859  -9.088  27.669  1.00  0.00     0.280 HD
ATOM     13  H21 UNL     1      62.888  -7.955  28.105  1.00  0.00     0.280 HD
BRANCH  11  14
HETATM   14  O3  UNL     1      65.335  -8.047  26.285  1.00  0.00    -0.368 OA
ATOM     15  H3  UNL     1      65.180  -7.947  25.353  1.00  0.00     0.212 HD
ENDBRANCH  11  14
ENDBRANCH   5   6
BRANCH   5  16
HETATM   16  C12 UNL     1      66.969  -4.322  27.669  1.00  0.00    -0.028 C
HETATM   17  C13 UNL     1      66.596  -3.045  28.401  1.00  0.00     0.016 C
HETATM   18  C14 UNL     1      67.836  -5.121  28.611  1.00  0.00     0.016 C
HETATM   19  C15 UNL     1      67.896  -3.903  26.539  1.00  0.00     0.016 C
ENDBRANCH   5  16
ENDBRANCH   3   5
BRANCH   1  20
HETATM   20  C5  UNL     1      63.248  -2.910  25.159  1.00  0.00     0.182 C
HETATM   21  C4  UNL     1      63.732  -1.987  24.033  1.00  0.00     0.041 C
HETATM   22  C3  UNL     1      63.073  -2.588  22.797  1.00  0.00     0.006 C
HETATM   23  C20 UNL     1      61.758  -2.997  23.356  1.00  0.00     0.134 C
HETATM   24  N3  UNL     1      62.065  -3.516  24.667  1.00  0.00    -0.314 N
HETATM   25  C16 UNL     1      61.295  -4.482  25.374  1.00  0.00     0.363 C
HETATM   26  O4  UNL     1      61.647  -4.842  26.512  1.00  0.00    -0.238 OA
BRANCH  22  27
HETATM   27  C2  UNL     1      62.987  -1.631  21.652  1.00  0.00     0.002 C
HETATM   28  C1  UNL     1      64.274  -1.438  20.919  1.00  0.00     0.005 C
ENDBRANCH  22  27
BRANCH  25  29
HETATM   29  O5  UNL     1      60.163  -5.014  24.794  1.00  0.00    -0.299 OA
BRANCH  29  30
HETATM   30  C17 UNL     1      58.876  -4.948  25.395  1.00  0.00     0.125 C
HETATM   31  C18 UNL     1      57.970  -5.972  24.746  1.00  0.00     0.040 C
HETATM   32  C19 UNL     1      58.360  -3.540  25.176  1.00  0.00     0.040 C
ENDBRANCH  29  30
ENDBRANCH  25  29
ENDBRANCH   1  20
TORSDOF 8
ENDMDL