MODEL 2
REMARK VINA RESULT: -8.059122223      0.827      1.040
REMARK  5 active torsions:
REMARK  status: ('A' for Active; 'I' for Inactive)
REMARK    1  A    between atoms: C2_2  and  N1_4
REMARK    2  A    between atoms: N1_4  and  C4_6
REMARK    3  A    between atoms: N3_10  and  C6_12
REMARK    4  A    between atoms: C9_15  and  N4_16
REMARK    5  A    between atoms: N6_28  and  C18_29
ROOT
HETATM    1  C4  UNL     1      57.439  -4.759  24.597  1.00  0.00     0.681 A
HETATM    2  N2  UNL     1      57.184  -6.037  24.990  1.00  0.00    -0.175 N
ATOM      3  H2  UNL     1      56.228  -6.389  24.923  1.00  0.00     0.186 HD
HETATM    4  C5  UNL     1      58.140  -6.854  25.463  1.00  0.00     0.148 A
HETATM    5  N3  UNL     1      57.791  -8.017  25.799  1.00  0.00    -0.369 N
ATOM      6  H3  UNL     1      56.798  -8.212  25.672  1.00  0.00     0.161 HD
HETATM    7  C16 UNL     1      59.409  -6.325  25.531  1.00  0.00     0.123 A
HETATM    8  N5  UNL     1      60.563  -6.860  25.945  1.00  0.00    -0.346 N
ATOM      9  H5  UNL     1      60.686  -7.809  26.299  1.00  0.00     0.167 HD
HETATM   10  C17 UNL     1      61.540  -5.934  25.817  1.00  0.00     0.185 A
HETATM   11  N6  UNL     1      61.017  -4.788  25.316  1.00  0.00    -0.323 N
HETATM   12  C21 UNL     1      59.708  -5.041  25.145  1.00  0.00     0.155 A
HETATM   13  N7  UNL     1      58.685  -4.276  24.676  1.00  0.00    -0.174 N
ATOM     14  H7  UNL     1      58.870  -3.317  24.380  1.00  0.00     0.186 HD
ENDROOT
BRANCH   5  15
HETATM   15  C6  UNL     1      58.536  -9.101  26.322  1.00  0.00     0.083 C
HETATM   16  C7  UNL     1      57.915  -9.514  27.637  1.00  0.00     0.027 C
HETATM   17  C8  UNL     1      56.821 -10.539  27.294  1.00  0.00     0.027 C
HETATM   18  C9  UNL     1      57.515 -11.819  26.971  1.00  0.00     0.083 C
HETATM   19  C14 UNL     1      58.568 -11.582  25.933  1.00  0.00     0.027 C
HETATM   20  C15 UNL     1      58.493 -10.216  25.304  1.00  0.00     0.027 C
BRANCH  18  21
HETATM   21  N4  UNL     1      56.649 -12.912  26.690  1.00  0.00    -0.385 N
HETATM   22  C10 UNL     1      55.446 -12.600  26.018  1.00  0.00     0.148 C
HETATM   23  C11 UNL     1      54.222 -13.290  26.548  1.00  0.00     0.187 C
HETATM   24  O1  UNL     1      54.110 -13.278  27.912  1.00  0.00    -0.385 OA
HETATM   25  C12 UNL     1      55.249 -13.589  28.598  1.00  0.00     0.212 C
HETATM   26  C13 UNL     1      56.442 -13.862  27.710  1.00  0.00     0.084 C
ENDBRANCH  18  21
ENDBRANCH   5  15
BRANCH   1  27
HETATM   27  N1  UNL     1      56.499  -4.022  24.155  1.00  0.00    -0.222 N
ATOM     28  H1  UNL     1      56.077  -4.345  23.285  1.00  0.00     0.178 HD
BRANCH  27  29
HETATM   29  C2  UNL     1      55.943  -2.831  24.673  1.00  0.00     0.091 C
HETATM   30  C1  UNL     1      56.740  -2.253  25.831  1.00  0.00     0.032 C
HETATM   31  C3  UNL     1      55.719  -1.840  23.561  1.00  0.00     0.032 C
ENDBRANCH  27  29
ENDBRANCH   1  27
BRANCH  11  32
HETATM   32  C18 UNL     1      61.751  -3.581  25.041  1.00  0.00     0.084 C
HETATM   33  C19 UNL     1      63.148  -3.730  25.608  1.00  0.00     0.032 C
HETATM   34  C20 UNL     1      61.901  -3.333  23.550  1.00  0.00     0.032 C
ENDBRANCH  11  32
TORSDOF 5
ENDMDL