MODEL 3
REMARK VINA RESULT: -7.276923881      1.580      2.081
REMARK  9 active torsions:
REMARK  status: ('A' for Active; 'I' for Inactive)
REMARK    1  A    between atoms: C4_4  and  O1_5
REMARK    2  A    between atoms: O1_5  and  C5_6
REMARK    3  A    between atoms: C5_6  and  C6_8
REMARK    4  A    between atoms: C6_8  and  C7_9
REMARK    5  A    between atoms: C7_9  and  C8_10
REMARK    6  A    between atoms: C13_16  and  C14_17
REMARK    7  A    between atoms: C14_17  and  O4_18
REMARK    8  A    between atoms: C15_20  and  O5_21
REMARK    9  A    between atoms: C17_24  and  O6_25
ROOT
HETATM    1  C1  UNL     1      62.458  -2.048  22.329  1.00  0.00     0.015 C
HETATM    2  C2  UNL     1      62.170  -3.016  23.213  1.00  0.00    -0.082 C
HETATM    3  C3  UNL     1      60.899  -3.729  23.248  1.00  0.00     0.066 C
HETATM    4  C4  UNL     1      60.397  -4.100  24.608  1.00  0.00     0.136 C
HETATM    5  C10 UNL     1      61.447  -4.442  25.590  1.00  0.00     0.045 C
HETATM    6  C11 UNL     1      62.856  -4.521  25.067  1.00  0.00     0.067 C
HETATM    7  C12 UNL     1      63.750  -4.609  26.256  1.00  0.00     0.145 C
HETATM    8  O3  UNL     1      63.219  -4.720  27.359  1.00  0.00    -0.296 OA
HETATM    9  C13 UNL     1      65.254  -4.583  26.339  1.00  0.00     0.075 C
HETATM   10  C15 UNL     1      65.688  -4.721  27.756  1.00  0.00     0.139 C
HETATM   11  C16 UNL     1      67.044  -4.202  28.081  1.00  0.00     0.069 C
HETATM   12  C17 UNL     1      67.266  -2.786  27.591  1.00  0.00     0.149 C
HETATM   13  C18 UNL     1      67.007  -2.819  26.124  1.00  0.00    -0.055 C
HETATM   14  C19 UNL     1      67.952  -2.423  25.280  1.00  0.00     0.017 C
HETATM   15  C20 UNL     1      65.676  -3.301  25.662  1.00  0.00     0.037 C
HETATM   16  C21 UNL     1      64.651  -2.258  25.967  1.00  0.00     0.011 C
HETATM   17  C22 UNL     1      63.574  -2.123  24.944  1.00  0.00     0.010 C
HETATM   18  C23 UNL     1      63.237  -3.359  24.197  1.00  0.00     0.025 C
ENDROOT
BRANCH   4  19
HETATM   19  O1  UNL     1      59.455  -3.147  25.099  1.00  0.00    -0.316 OA
BRANCH  19  20
HETATM   20  C5  UNL     1      58.164  -3.444  25.405  1.00  0.00     0.259 C
HETATM   21  O2  UNL     1      57.848  -4.669  25.501  1.00  0.00    -0.265 OA
BRANCH  20  22
HETATM   22  C6  UNL     1      57.085  -2.465  25.643  1.00  0.00     0.111 C
BRANCH  22  23
HETATM   23  C7  UNL     1      56.919  -1.478  24.538  1.00  0.00     0.009 C
BRANCH  23  24
HETATM   24  C8  UNL     1      55.717  -1.907  23.716  1.00  0.00    -0.004 C
HETATM   25  C9  UNL     1      55.269  -0.727  22.877  1.00  0.00     0.005 C
ENDBRANCH  23  24
ENDBRANCH  22  23
ENDBRANCH  20  22
ENDBRANCH  19  20
ENDBRANCH   4  19
BRANCH   9  26
HETATM   26  C14 UNL     1      65.711  -5.792  25.542  1.00  0.00     0.184 C
BRANCH  26  27
HETATM   27  O4  UNL     1      66.099  -5.453  24.263  1.00  0.00    -0.400 OA
ATOM     28  H4  UNL     1      67.044  -5.446  24.167  1.00  0.00     0.209 HD
ENDBRANCH  26  27
ENDBRANCH   9  26
BRANCH  10  29
HETATM   29  O5  UNL     1      65.701  -6.107  28.043  1.00  0.00    -0.394 OA
ATOM     30  H5  UNL     1      66.552  -6.434  27.772  1.00  0.00     0.210 HD
ENDBRANCH  10  29
BRANCH  12  31
HETATM   31  O6  UNL     1      66.449  -1.916  28.270  1.00  0.00    -0.391 OA
ATOM     32  H6  UNL     1      65.695  -1.690  27.738  1.00  0.00     0.210 HD
ENDBRANCH  12  31
TORSDOF 9
ENDMDL