MODEL 2
REMARK VINA RESULT: -7.157429068      6.959      9.481
REMARK  6 active torsions:
REMARK  status: ('A' for Active; 'I' for Inactive)
REMARK       I    between atoms: C2_2  and  N1_4
REMARK    1  A    between atoms: C5_7  and  C6_8
REMARK    2  A    between atoms: C6_8  and  O2_9
REMARK    3  A    between atoms: N2_13  and  C9_14
REMARK    4  A    between atoms: C11_20  and  N5_21
REMARK    5  A    between atoms: C12_24  and  O3_25
REMARK    6  A    between atoms: O3_25  and  C13_26
ROOT
HETATM    1  C9  UNL     1      59.890 -10.161  26.685  1.00  0.00     0.142 A
HETATM    2  N3  UNL     1      60.594 -11.335  26.776  1.00  0.00    -0.336 N
ATOM      3  H3  UNL     1      60.084 -12.216  26.834  1.00  0.00     0.168 HD
HETATM    4  C10 UNL     1      61.933 -11.354  26.790  1.00  0.00     0.183 A
HETATM    5  N4  UNL     1      62.619 -10.211  26.714  1.00  0.00    -0.337 N
ATOM      6  H4  UNL     1      63.638 -10.248  26.727  1.00  0.00     0.168 HD
HETATM    7  C11 UNL     1      62.004  -8.986  26.619  1.00  0.00     0.137 A
HETATM    8  C12 UNL     1      60.613  -8.996  26.608  1.00  0.00     0.157 A
ENDROOT
BRANCH   1   9
HETATM    9  N2  UNL     1      58.474 -10.222  26.722  1.00  0.00    -0.365 N
HETATM   10  C8  UNL     1      57.660  -9.829  27.848  1.00  0.00     0.127 C
HETATM   11  C7  UNL     1      56.353 -10.590  27.764  1.00  0.00     0.058 C
HETATM   12  C6  UNL     1      56.561 -12.020  27.312  1.00  0.00     0.066 C
HETATM   13  C20 UNL     1      57.027 -11.992  25.883  1.00  0.00     0.058 C
HETATM   14  C19 UNL     1      57.797 -10.721  25.546  1.00  0.00     0.127 C
BRANCH  12  15
HETATM   15  C5  UNL     1      55.230 -12.731  27.440  1.00  0.00     0.040 C
HETATM   16  C4  UNL     1      54.627 -12.486  28.787  1.00  0.00     0.029 C
HETATM   17  C3  UNL     1      53.141 -12.354  28.539  1.00  0.00     0.126 C
HETATM   18  N1  UNL     1      52.963 -12.605  27.127  1.00  0.00    -0.352 N
HETATM   19  C2  UNL     1      51.824 -13.145  26.516  1.00  0.00     0.215 C
HETATM   20  C21 UNL     1      54.201 -12.181  26.501  1.00  0.00     0.133 C
HETATM   21  C1  UNL     1      51.779 -13.348  25.047  1.00  0.00     0.117 C
HETATM   22  O1  UNL     1      50.816 -13.470  27.192  1.00  0.00    -0.274 OA
ENDBRANCH  12  15
BRANCH  12  23
HETATM   23  O2  UNL     1      57.452 -12.635  28.162  1.00  0.00    -0.389 OA
ATOM     24  H2  UNL     1      58.156 -12.023  28.338  1.00  0.00     0.210 HD
ENDBRANCH  12  23
ENDBRANCH   1   9
BRANCH   8  25
HETATM   25  O3  UNL     1      59.932  -7.818  26.510  1.00  0.00    -0.339 OA
BRANCH  25  26
HETATM   26  C13 UNL     1      59.393  -7.160  25.407  1.00  0.00     0.129 C
HETATM   27  C14 UNL     1      57.896  -6.967  25.536  1.00  0.00     0.032 C
HETATM   28  C15 UNL     1      57.328  -6.076  24.459  1.00  0.00     0.002 C
HETATM   29  C16 UNL     1      57.966  -4.708  24.468  1.00  0.00     0.000 C
HETATM   30  C17 UNL     1      59.123  -4.644  25.440  1.00  0.00     0.002 C
HETATM   31  C18 UNL     1      60.055  -5.804  25.313  1.00  0.00     0.032 C
ENDBRANCH  25  26
ENDBRANCH   8  25
BRANCH   7  32
HETATM   32  N5  UNL     1      62.730  -7.946  26.515  1.00  0.00    -0.383 N
ATOM     33  H52 UNL     1      62.857  -7.402  25.662  1.00  0.00     0.157 HD
ATOM     34  H51 UNL     1      63.252  -7.631  27.333  1.00  0.00     0.157 HD
ENDBRANCH   7  32
TORSDOF 6
ENDMDL