MODEL 3
REMARK VINA RESULT: -6.617650273      1.633      2.424
REMARK  5 active torsions:
REMARK  status: ('A' for Active; 'I' for Inactive)
REMARK    1  A    between atoms: C4_4  and  N1_5
REMARK    2  A    between atoms: N1_5  and  C5_7
REMARK    3  A    between atoms: C14_21  and  N5_22
REMARK    4  A    between atoms: N5_22  and  S1_24
REMARK    5  A    between atoms: S1_24  and  C15_27
ROOT
HETATM    1  C5  UNL     1      64.642  -3.557  24.001  1.00  0.00     0.100 C
HETATM    2  C6  UNL     1      65.216  -2.165  23.962  1.00  0.00     0.053 C
HETATM    3  C7  UNL     1      66.071  -1.949  22.730  1.00  0.00     0.161 C
HETATM    4  C8  UNL     1      67.019  -0.872  23.016  1.00  0.00     0.071 C
HETATM    5  N2  UNL     1      67.775  -0.027  23.241  1.00  0.00    -0.196 NA
HETATM    6  C9  UNL     1      66.739  -3.217  22.357  1.00  0.00     0.090 C
HETATM    7  N3  UNL     1      67.173  -3.355  21.157  1.00  0.00    -0.388 N
ATOM      8  H31 UNL     1      67.633  -4.228  20.900  1.00  0.00     0.157 HD
ATOM      9  H32 UNL     1      67.060  -2.619  20.460  1.00  0.00     0.157 HD
HETATM   10  N4  UNL     1      66.896  -4.228  23.315  1.00  0.00    -0.372 N
HETATM   11  C10 UNL     1      68.088  -5.059  23.369  1.00  0.00     0.150 C
HETATM   12  C11 UNL     1      65.851  -4.473  24.301  1.00  0.00     0.148 C
ENDROOT
BRANCH   1  13
HETATM   13  N1  UNL     1      63.710  -3.831  24.990  1.00  0.00    -0.390 N
ATOM     14  H1  UNL     1      64.072  -4.231  25.855  1.00  0.00     0.159 HD
BRANCH  13  15
HETATM   15  C4  UNL     1      62.349  -3.623  24.933  1.00  0.00    -0.017 C
HETATM   16  C3  UNL     1      61.464  -4.258  25.966  1.00  0.00     0.058 C
HETATM   17  C2  UNL     1      60.033  -4.369  25.557  1.00  0.00     0.010 C
HETATM   18  C1  UNL     1      59.703  -5.799  25.198  1.00  0.00     0.012 C
HETATM   19  C14 UNL     1      59.501  -3.434  24.551  1.00  0.00     0.097 C
HETATM   20  C13 UNL     1      60.519  -2.859  23.571  1.00  0.00     0.032 C
HETATM   21  C12 UNL     1      61.716  -3.776  23.570  1.00  0.00     0.054 C
BRANCH  19  22
HETATM   22  N5  UNL     1      58.913  -2.255  25.151  1.00  0.00    -0.313 N
ATOM     23  H5  UNL     1      59.487  -1.481  25.482  1.00  0.00     0.172 HD
BRANCH  22  24
HETATM   24  S1  UNL     1      57.243  -2.224  25.272  1.00  0.00     0.240 S
HETATM   25  O1  UNL     1      56.809  -1.953  26.723  1.00  0.00    -0.205 OA
HETATM   26  O2  UNL     1      56.693  -3.638  25.023  1.00  0.00    -0.205 OA
BRANCH  24  27
HETATM   27  C15 UNL     1      56.351  -1.125  24.253  1.00  0.00     0.191 C
HETATM   28  C16 UNL     1      55.406  -1.696  23.248  1.00  0.00     0.043 C
HETATM   29  C17 UNL     1      55.454  -0.357  22.504  1.00  0.00     0.077 C
HETATM   30  S2  UNL     1      57.225  -0.270  22.941  1.00  0.00    -0.147 SA
ENDBRANCH  24  27
ENDBRANCH  22  24
ENDBRANCH  19  22
ENDBRANCH  13  15
ENDBRANCH   1  13
TORSDOF 5
ENDMDL