MODEL 5
REMARK VINA RESULT: -7.533128829      1.972      3.131
REMARK  8 active torsions:
REMARK  status: ('A' for Active; 'I' for Inactive)
REMARK    1  A    between atoms: C1_2  and  O2_3
REMARK    2  A    between atoms: C1_2  and  C19_28
REMARK    3  A    between atoms: O2_3  and  C2_4
REMARK    4  A    between atoms: C2_4  and  C3_5
REMARK    5  A    between atoms: C4_6  and  O3_7
REMARK    6  A    between atoms: C5_9  and  O4_10
REMARK    7  A    between atoms: C6_12  and  O5_13
REMARK    8  A    between atoms: C7_15  and  C8_16
ROOT
HETATM    1  C3  UNL     1      64.535  -2.621  24.709  1.00  0.00     0.140 C
HETATM    2  C4  UNL     1      64.805  -1.636  23.616  1.00  0.00     0.174 C
HETATM    3  C5  UNL     1      65.990  -0.763  23.754  1.00  0.00     0.180 C
HETATM    4  C6  UNL     1      66.856  -0.938  24.959  1.00  0.00     0.176 C
HETATM    5  C7  UNL     1      66.208  -1.792  26.022  1.00  0.00     0.149 C
HETATM    6  N1  UNL     1      65.691  -2.978  25.391  1.00  0.00    -0.367 N
HETATM    7  C14 UNL     1      66.457  -4.096  25.269  1.00  0.00    -0.014 C
HETATM    8  C15 UNL     1      67.134  -4.420  23.979  1.00  0.00     0.052 C
HETATM    9  C16 UNL     1      66.766  -5.788  23.522  1.00  0.00     0.006 C
HETATM   10  C17 UNL     1      66.088  -6.424  24.674  1.00  0.00     0.006 C
HETATM   11  C18 UNL     1      65.920  -5.417  25.756  1.00  0.00     0.052 C
ENDROOT
BRANCH   1  12
HETATM   12  C2  UNL     1      63.590  -3.673  24.271  1.00  0.00     0.207 C
BRANCH  12  13
HETATM   13  O2  UNL     1      62.275  -3.315  24.763  1.00  0.00    -0.315 OA
BRANCH  13  14
HETATM   14  C1  UNL     1      61.646  -4.304  25.544  1.00  0.00     0.293 C
HETATM   15  O1  UNL     1      62.322  -5.018  26.336  1.00  0.00    -0.259 OA
BRANCH  14  16
HETATM   16  C19 UNL     1      60.222  -4.478  25.416  1.00  0.00     0.039 A
HETATM   17  C20 UNL     1      59.391  -3.393  25.335  1.00  0.00     0.017 A
HETATM   18  C21 UNL     1      58.020  -3.539  25.212  1.00  0.00     0.001 A
HETATM   19  C22 UNL     1      57.494  -4.809  25.169  1.00  0.00     0.000 A
HETATM   20  C23 UNL     1      58.309  -5.924  25.248  1.00  0.00     0.001 A
HETATM   21  C24 UNL     1      59.684  -5.749  25.372  1.00  0.00     0.017 A
ENDBRANCH  14  16
ENDBRANCH  13  14
ENDBRANCH  12  13
ENDBRANCH   1  12
BRANCH   2  22
HETATM   22  O3  UNL     1      63.667  -0.793  23.533  1.00  0.00    -0.391 OA
ATOM     23  H3  UNL     1      62.961  -1.320  23.178  1.00  0.00     0.210 HD
ENDBRANCH   2  22
BRANCH   3  24
HETATM   24  O4  UNL     1      65.664   0.602  23.576  1.00  0.00    -0.390 OA
ATOM     25  H4  UNL     1      66.138   1.162  24.181  1.00  0.00     0.210 HD
ENDBRANCH   3  24
BRANCH   5  26
HETATM   26  C8  UNL     1      66.957  -1.947  27.242  1.00  0.00    -0.033 A
HETATM   27  C9  UNL     1      66.370  -2.555  28.334  1.00  0.00     0.009 A
HETATM   28  C10 UNL     1      67.020  -2.731  29.531  1.00  0.00     0.001 A
HETATM   29  C11 UNL     1      68.317  -2.292  29.686  1.00  0.00     0.000 A
HETATM   30  C12 UNL     1      68.921  -1.682  28.605  1.00  0.00     0.001 A
HETATM   31  C13 UNL     1      68.251  -1.510  27.397  1.00  0.00     0.009 A
ENDBRANCH   5  26
BRANCH   4  32
HETATM   32  O5  UNL     1      68.083  -1.518  24.641  1.00  0.00    -0.390 OA
ATOM     33  H5  UNL     1      68.178  -2.381  25.025  1.00  0.00     0.210 HD
ENDBRANCH   4  32
TORSDOF 8
ENDMDL