MODEL 5
REMARK VINA RESULT: -5.258451617      2.259      3.471
REMARK  9 active torsions:
REMARK  status: ('A' for Active; 'I' for Inactive)
REMARK    1  A    between atoms: O1_2  and  C2_3
REMARK    2  A    between atoms: C2_3  and  C3_4
REMARK       I    between atoms: N1_6  and  C5_7
REMARK    3  A    between atoms: C5_7  and  O3_9
REMARK    4  A    between atoms: O3_9  and  C6_10
REMARK    5  A    between atoms: C6_10  and  C7_11
REMARK    6  A    between atoms: C7_11  and  N2_12
REMARK    7  A    between atoms: C7_11  and  N3_16
REMARK    8  A    between atoms: N3_16  and  C8_19
REMARK    9  A    between atoms: C9_20  and  O4_21
ROOT
HETATM    1  C7  UNL     1      60.696  -4.045  24.751  1.00  0.00     0.415 C
ENDROOT
BRANCH   1   2
HETATM    2  C6  UNL     1      62.146  -3.707  24.666  1.00  0.00     0.126 C
HETATM    3  C15 UNL     1      62.387  -3.447  23.148  1.00  0.00     0.043 C
HETATM    4  C16 UNL     1      63.678  -2.664  23.191  1.00  0.00     0.003 C
HETATM    5  C17 UNL     1      63.753  -1.999  24.547  1.00  0.00     0.003 C
HETATM    6  C18 UNL     1      62.427  -2.290  25.137  1.00  0.00     0.043 C
BRANCH   2   7
HETATM    7  O3  UNL     1      63.092  -4.615  24.993  1.00  0.00    -0.289 OA
BRANCH   7   8
HETATM    8  C5  UNL     1      63.742  -5.005  26.099  1.00  0.00     0.364 C
HETATM    9  N1  UNL     1      65.183  -5.049  26.143  1.00  0.00    -0.318 N
HETATM   10  C4  UNL     1      66.066  -4.719  25.082  1.00  0.00     0.146 C
HETATM   11  C19 UNL     1      65.893  -5.454  27.363  1.00  0.00     0.202 C
HETATM   12  C3  UNL     1      67.251  -3.961  25.554  1.00  0.00     0.090 C
HETATM   13  S1  UNL     1      67.119  -4.075  27.359  1.00  0.00    -0.141 SA
HETATM   14  O2  UNL     1      63.041  -5.324  27.072  1.00  0.00    -0.238 OA
BRANCH  12  15
HETATM   15  C2  UNL     1      67.387  -2.585  25.025  1.00  0.00     0.183 C
BRANCH  15  16
HETATM   16  O1  UNL     1      67.141  -1.561  25.902  1.00  0.00    -0.395 OA
HETATM   17  C1  UNL     1      67.088  -0.385  25.115  1.00  0.00     0.201 C
ENDBRANCH  15  16
ENDBRANCH  12  15
ENDBRANCH   7   8
ENDBRANCH   2   7
ENDBRANCH   1   2
BRANCH   1  18
HETATM   18  N2  UNL     1      60.531  -5.248  25.558  1.00  0.00    -0.047 N
ATOM     19  H23 UNL     1      60.305  -6.065  24.993  1.00  0.00     0.276 HD
ATOM     20  H22 UNL     1      61.415  -5.579  25.945  1.00  0.00     0.276 HD
ATOM     21  H21 UNL     1      59.833  -5.073  26.281  1.00  0.00     0.276 HD
ENDBRANCH   1  18
BRANCH   1  22
HETATM   22  N3  UNL     1      59.863  -2.987  25.186  1.00  0.00    -0.036 N
ATOM     23  H32 UNL     1      60.256  -2.534  26.011  1.00  0.00     0.280 HD
ATOM     24  H31 UNL     1      59.899  -2.206  24.531  1.00  0.00     0.280 HD
BRANCH  22  25
HETATM   25  C8  UNL     1      58.489  -3.391  25.428  1.00  0.00     0.224 C
HETATM   26  C9  UNL     1      57.768  -3.968  24.266  1.00  0.00     0.149 C
HETATM   27  C10 UNL     1      56.292  -3.571  24.454  1.00  0.00     0.034 C
HETATM   28  C11 UNL     1      56.258  -2.627  25.628  1.00  0.00     0.013 C
HETATM   29  C12 UNL     1      57.691  -2.105  25.660  1.00  0.00    -0.017 C
HETATM   30  C13 UNL     1      57.964  -1.468  26.980  1.00  0.00     0.017 C
HETATM   31  C14 UNL     1      57.933  -1.205  24.487  1.00  0.00     0.017 C
BRANCH  26  32
HETATM   32  O4  UNL     1      57.795  -5.365  24.368  1.00  0.00    -0.393 OA
ATOM     33  H4  UNL     1      58.052  -5.727  23.528  1.00  0.00     0.210 HD
ENDBRANCH  26  32
ENDBRANCH  22  25
ENDBRANCH   1  22
TORSDOF 9
ENDMDL