MODEL 2
REMARK VINA RESULT: -7.814730771      1.157      1.199
REMARK  7 active torsions:
REMARK  status: ('A' for Active; 'I' for Inactive)
REMARK    1  A    between atoms: N2_7  and  C5_8
REMARK    2  A    between atoms: C5_8  and  C6_9
REMARK    3  A    between atoms: C6_9  and  C7_10
REMARK    4  A    between atoms: C6_9  and  C9_14
REMARK    5  A    between atoms: C7_10  and  S1_11
REMARK       I    between atoms: C9_14  and  N3_16
REMARK    6  A    between atoms: N4_19  and  C12_21
REMARK    7  A    between atoms: C12_21  and  C13_22
ROOT
HETATM    1  C9  UNL     1      -6.647 -11.158   6.229  1.00  0.00     0.242 C
HETATM    2  O2  UNL     1      -7.622 -10.625   6.823  1.00  0.00    -0.271 OA
HETATM    3  N3  UNL     1      -5.933 -10.368   5.294  1.00  0.00    -0.255 N
HETATM    4  C10 UNL     1      -4.796 -10.848   4.531  1.00  0.00     0.223 C
HETATM    5  C11 UNL     1      -4.840 -10.271   3.175  1.00  0.00     0.094 C
HETATM    6  N4  UNL     1      -3.882 -10.411   2.317  1.00  0.00    -0.378 N
ATOM      7  H4  UNL     1      -3.997  -9.978   1.401  1.00  0.00     0.160 HD
HETATM    8  N5  UNL     1      -5.971  -9.530   2.776  1.00  0.00    -0.354 N
ATOM      9  H5  UNL     1      -6.205  -9.479   1.784  1.00  0.00     0.163 HD
HETATM   10  C17 UNL     1      -6.808  -8.842   3.729  1.00  0.00     0.115 C
HETATM   11  C18 UNL     1      -8.225  -9.332   3.533  1.00  0.00     0.059 C
HETATM   12  C19 UNL     1      -6.783  -7.361   3.403  1.00  0.00     0.059 C
HETATM   13  N6  UNL     1      -6.314  -9.039   5.062  1.00  0.00    -0.104 NA
ENDROOT
BRANCH   1  14
HETATM   14  C6  UNL     1      -6.345 -12.561   6.574  1.00  0.00     0.109 C
BRANCH  14  15
HETATM   15  C5  UNL     1      -5.243 -12.755   7.557  1.00  0.00     0.141 C
BRANCH  15  16
HETATM   16  N2  UNL     1      -4.375 -13.873   7.309  1.00  0.00    -0.346 N
HETATM   17  C4  UNL     1      -4.392 -15.128   8.023  1.00  0.00     0.132 C
HETATM   18  C3  UNL     1      -3.602 -16.111   7.198  1.00  0.00     0.082 C
HETATM   19  C2  UNL     1      -2.858 -15.321   6.222  1.00  0.00     0.074 C
HETATM   20  N1  UNL     1      -1.939 -15.757   5.435  1.00  0.00    -0.393 N
HETATM   21  C20 UNL     1      -3.365 -13.934   6.316  1.00  0.00     0.265 C
HETATM   22  C1  UNL     1      -1.575 -17.154   5.483  1.00  0.00     0.146 C
ATOM     23  H1  UNL     1      -1.473 -15.125   4.784  1.00  0.00     0.159 HD
HETATM   24  O3  UNL     1      -2.893 -13.032   5.576  1.00  0.00    -0.266 OA
ENDBRANCH  15  16
ENDBRANCH  14  15
BRANCH  14  25
HETATM   25  C7  UNL     1      -7.596 -13.347   6.868  1.00  0.00     0.124 C
BRANCH  25  26
HETATM   26  S1  UNL     1      -7.670 -13.881   8.547  1.00  0.00     0.011 S
HETATM   27  C8  UNL     1      -8.415 -15.457   8.732  1.00  0.00     0.127 C
HETATM   28  O1  UNL     1      -8.508 -12.762   9.475  1.00  0.00    -0.258 OA
ENDBRANCH  25  26
ENDBRANCH  14  25
ENDBRANCH   1  14
BRANCH   6  29
HETATM   29  C12 UNL     1      -2.673 -11.132   2.568  1.00  0.00     0.129 C
BRANCH  29  30
HETATM   30  C13 UNL     1      -1.610 -10.868   1.525  1.00  0.00    -0.035 C
HETATM   31  C14 UNL     1      -0.501  -9.992   2.057  1.00  0.00     0.016 C
HETATM   32  C15 UNL     1      -0.982 -12.171   1.090  1.00  0.00     0.016 C
HETATM   33  C16 UNL     1      -2.184 -10.196   0.299  1.00  0.00     0.016 C
ENDBRANCH  29  30
ENDBRANCH   6  29
TORSDOF 7
ENDMDL