MODEL 5
REMARK VINA RESULT: -7.016763251      1.417      1.608
REMARK  5 active torsions:
REMARK  status: ('A' for Active; 'I' for Inactive)
REMARK    1  A    between atoms: C2_2  and  C3_3
REMARK    2  A    between atoms: C3_3  and  N1_4
REMARK       I    between atoms: N1_4  and  C4_6
REMARK    3  A    between atoms: C4_6  and  C5_8
REMARK    4  A    between atoms: C10_13  and  N2_14
REMARK       I    between atoms: N2_14  and  C11_16
REMARK    5  A    between atoms: C11_16  and  C12_18
REMARK       I    between atoms: N3_25  and  C19_26
ROOT
HETATM    1  C5  UNL     1      -7.514 -11.087   6.958  1.00  0.00     0.104 C
HETATM    2  C6  UNL     1      -6.911 -12.063   7.915  1.00  0.00     0.025 C
HETATM    3  C7  UNL     1      -7.592 -13.320   7.294  1.00  0.00     0.015 C
HETATM    4  C8  UNL     1      -6.932 -13.127   5.930  1.00  0.00     0.033 C
HETATM    5  C9  UNL     1      -5.489 -13.311   6.371  1.00  0.00     0.133 C
HETATM    6  C10 UNL     1      -5.485 -12.452   7.644  1.00  0.00     0.113 C
HETATM    7  N3  UNL     1      -4.688 -12.717   5.339  1.00  0.00    -0.238 N
HETATM    8  C19 UNL     1      -3.556 -13.222   4.729  1.00  0.00     0.229 C
HETATM    9  C20 UNL     1      -2.844 -12.444   3.653  1.00  0.00     0.118 C
HETATM   10  O3  UNL     1      -3.054 -14.338   5.022  1.00  0.00    -0.273 OA
HETATM   11  S1  UNL     1      -5.496 -11.216   5.054  1.00  0.00     0.240 S
HETATM   12  O4  UNL     1      -5.563 -10.912   3.576  1.00  0.00    -0.205 OA
HETATM   13  O5  UNL     1      -4.779 -10.104   5.700  1.00  0.00    -0.205 OA
HETATM   14  C21 UNL     1      -7.085 -11.615   5.654  1.00  0.00     0.149 C
ENDROOT
BRANCH   6  15
HETATM   15  N2  UNL     1      -5.047 -13.282   8.764  1.00  0.00    -0.354 N
HETATM   16  C11 UNL     1      -3.702 -13.344   9.214  1.00  0.00     0.223 C
HETATM   17  O2  UNL     1      -2.850 -12.636   8.601  1.00  0.00    -0.273 OA
ATOM     18  H2  UNL     1      -5.744 -13.847   9.248  1.00  0.00     0.163 HD
BRANCH  16  19
HETATM   19  C12 UNL     1      -3.275 -14.174  10.332  1.00  0.00     0.086 C
HETATM   20  C13 UNL     1      -1.838 -14.694  10.291  1.00  0.00    -0.000 C
HETATM   21  C14 UNL     1      -1.743 -15.403   8.993  1.00  0.00     0.010 C
HETATM   22  C18 UNL     1      -2.392 -15.792  11.212  1.00  0.00     0.011 C
HETATM   23  C15 UNL     1      -3.100 -16.137   9.013  1.00  0.00    -0.013 C
HETATM   24  C16 UNL     1      -2.821 -17.625   9.007  1.00  0.00     0.010 C
HETATM   25  C17 UNL     1      -3.627 -15.641  10.302  1.00  0.00     0.003 C
ENDBRANCH  16  19
ENDBRANCH   6  15
BRANCH   1  26
HETATM   26  C4  UNL     1      -7.381  -9.677   7.253  1.00  0.00     0.223 C
HETATM   27  N1  UNL     1      -7.596  -8.713   6.273  1.00  0.00    -0.361 N
ATOM     28  H1  UNL     1      -7.866  -9.094   5.366  1.00  0.00     0.162 HD
HETATM   29  O1  UNL     1      -7.062  -9.359   8.410  1.00  0.00    -0.273 OA
BRANCH  27  30
HETATM   30  C3  UNL     1      -7.510  -7.302   6.305  1.00  0.00     0.122 C
BRANCH  30  31
HETATM   31  C2  UNL     1      -8.313  -6.512   7.249  1.00  0.00     0.015 C
HETATM   32  C1  UNL     1      -7.882  -5.126   7.610  1.00  0.00     0.006 C
ENDBRANCH  30  31
ENDBRANCH  27  30
ENDBRANCH   1  26
TORSDOF 5
ENDMDL