MODEL 4
REMARK VINA RESULT: -6.904512024      2.134      7.113
REMARK  7 active torsions:
REMARK  status: ('A' for Active; 'I' for Inactive)
REMARK    1  A    between atoms: C2_2  and  C4_4
REMARK    2  A    between atoms: N2_10  and  C7_11
REMARK    3  A    between atoms: C7_11  and  C8_12
REMARK    4  A    between atoms: C8_12  and  C9_13
REMARK    5  A    between atoms: C9_13  and  C10_14
REMARK    6  A    between atoms: C10_14  and  N3_15
REMARK    7  A    between atoms: N3_15  and  C12_17
ROOT
HETATM    1  C4  UNL     1      -6.798 -10.206   4.903  1.00  0.00     0.180 C
HETATM    2  N1  UNL     1      -5.601 -10.109   4.111  1.00  0.00    -0.343 N
ATOM      3  H1  UNL     1      -5.543  -9.325   3.461  1.00  0.00     0.163 HD
HETATM    4  C5  UNL     1      -4.497 -10.989   4.140  1.00  0.00     0.257 C
HETATM    5  O1  UNL     1      -4.091 -11.497   3.032  1.00  0.00    -0.267 OA
HETATM    6  C6  UNL     1      -3.732 -11.406   5.342  1.00  0.00     0.160 C
HETATM    7  N2  UNL     1      -4.068 -12.655   5.890  1.00  0.00    -0.383 N
HETATM    8  C13 UNL     1      -5.375 -13.168   5.681  1.00  0.00     0.153 C
HETATM    9  C14 UNL     1      -6.313 -12.777   6.807  1.00  0.00     0.053 C
HETATM   10  C15 UNL     1      -7.757 -13.003   6.436  1.00  0.00     0.038 C
HETATM   11  C16 UNL     1      -8.416 -14.114   7.198  1.00  0.00    -0.011 C
HETATM   12  C17 UNL     1      -8.843 -13.742   8.573  1.00  0.00     0.009 C
HETATM   13  C18 UNL     1      -7.742 -13.734   9.591  1.00  0.00    -0.013 C
HETATM   14  C19 UNL     1      -6.940 -15.042   9.563  1.00  0.00     0.010 C
HETATM   15  C20 UNL     1      -6.351 -14.930   8.148  1.00  0.00    -0.007 C
HETATM   16  C21 UNL     1      -7.491 -15.298   7.222  1.00  0.00     0.010 C
HETATM   17  C22 UNL     1      -5.956 -13.509   8.070  1.00  0.00     0.020 C
HETATM   18  C23 UNL     1      -6.648 -12.757   9.195  1.00  0.00     0.012 C
HETATM   19  N4  UNL     1      -6.039 -11.361   7.068  1.00  0.00    -0.348 N
ATOM     20  H4  UNL     1      -5.401 -11.140   7.833  1.00  0.00     0.163 HD
HETATM   21  C24 UNL     1      -6.584 -10.285   6.350  1.00  0.00     0.241 C
HETATM   22  O3  UNL     1      -6.923  -9.274   7.064  1.00  0.00    -0.271 OA
ENDROOT
BRANCH   7  23
HETATM   23  C7  UNL     1      -3.027 -13.634   6.021  1.00  0.00     0.122 C
BRANCH  23  24
HETATM   24  C8  UNL     1      -3.494 -15.041   5.866  1.00  0.00     0.021 C
BRANCH  24  25
HETATM   25  C9  UNL     1      -3.128 -15.912   7.008  1.00  0.00     0.021 C
BRANCH  25  26
HETATM   26  C10 UNL     1      -2.196 -15.245   7.992  1.00  0.00     0.124 C
BRANCH  26  27
HETATM   27  N3  UNL     1      -2.789 -15.226   9.316  1.00  0.00    -0.364 N
HETATM   28  C11 UNL     1      -3.296 -16.472   9.847  1.00  0.00     0.152 C
BRANCH  27  29
HETATM   29  C12 UNL     1      -2.861 -14.005  10.050  1.00  0.00     0.350 C
HETATM   30  O2  UNL     1      -2.794 -12.920   9.435  1.00  0.00    -0.284 OA
ENDBRANCH  27  29
ENDBRANCH  26  27
ENDBRANCH  25  26
ENDBRANCH  24  25
ENDBRANCH  23  24
ENDBRANCH   7  23
BRANCH   1  31
HETATM   31  C2  UNL     1      -7.718  -9.027   4.587  1.00  0.00     0.009 C
HETATM   32  C1  UNL     1      -6.963  -7.770   4.262  1.00  0.00     0.012 C
HETATM   33  C3  UNL     1      -8.467  -9.439   3.314  1.00  0.00     0.012 C
ENDBRANCH   1  31
TORSDOF 7
ENDMDL