MODEL 3
REMARK VINA RESULT: -7.630152112      2.713      7.333
REMARK  8 active torsions:
REMARK  status: ('A' for Active; 'I' for Inactive)
REMARK       I    between atoms: C2_2  and  N1_4
REMARK    1  A    between atoms: N1_4  and  C3_6
REMARK    2  A    between atoms: C3_6  and  C4_7
REMARK    3  A    between atoms: C3_6  and  C21_33
REMARK       I    between atoms: C4_7  and  N2_9
REMARK    4  A    between atoms: C7_12  and  N3_13
REMARK    5  A    between atoms: C10_16  and  C11_17
REMARK    6  A    between atoms: C11_17  and  C12_18
REMARK       I    between atoms: C12_18  and  N4_20
REMARK    7  A    between atoms: N4_20  and  C13_22
REMARK    8  A    between atoms: C15_24  and  C16_25
ROOT
HETATM    1  C4  UNL     1      -2.806 -14.292   8.766  1.00  0.00     0.243 C
HETATM    2  O2  UNL     1      -2.054 -13.321   8.547  1.00  0.00    -0.271 OA
HETATM    3  N2  UNL     1      -4.044 -14.410   8.140  1.00  0.00    -0.343 N
HETATM    4  C5  UNL     1      -5.012 -15.488   8.209  1.00  0.00     0.128 C
HETATM    5  C6  UNL     1      -6.111 -15.115   7.194  1.00  0.00     0.058 C
HETATM    6  C7  UNL     1      -6.031 -13.611   7.337  1.00  0.00     0.246 C
HETATM    7  C10 UNL     1      -4.591 -13.333   7.237  1.00  0.00     0.129 C
ENDROOT
BRANCH   7   8
HETATM    8  C11 UNL     1      -3.881 -13.539   5.973  1.00  0.00     0.130 C
BRANCH   8   9
HETATM    9  C12 UNL     1      -3.295 -12.384   5.268  1.00  0.00     0.225 C
HETATM   10  O3  UNL     1      -2.373 -11.729   5.767  1.00  0.00    -0.273 OA
HETATM   11  N4  UNL     1      -3.795 -12.043   4.024  1.00  0.00    -0.312 N
ATOM     12  H4  UNL     1      -3.719 -12.814   3.360  1.00  0.00     0.170 HD
BRANCH  11  13
HETATM   13  C13 UNL     1      -4.314 -11.037   3.505  1.00  0.00     0.126 A
HETATM   14  C14 UNL     1      -5.496 -10.503   4.070  1.00  0.00     0.077 A
HETATM   15  C15 UNL     1      -5.840  -9.404   3.331  1.00  0.00     0.037 A
HETATM   16  N5  UNL     1      -4.920  -9.280   2.376  1.00  0.00    -0.301 N
HETATM   17  N6  UNL     1      -4.015 -10.242   2.470  1.00  0.00    -0.281 N
ATOM     18  H5  UNL     1      -4.914  -8.546   1.669  1.00  0.00     0.187 HD
HETATM   19  C20 UNL     1      -2.846 -10.441   1.604  1.00  0.00     0.179 C
BRANCH  15  20
HETATM   20  C16 UNL     1      -7.046  -8.584   3.657  1.00  0.00    -0.007 C
HETATM   21  C17 UNL     1      -7.246  -8.542   5.182  1.00  0.00     0.021 C
HETATM   22  C18 UNL     1      -6.900  -7.187   3.155  1.00  0.00     0.021 C
HETATM   23  C19 UNL     1      -8.298  -9.211   3.095  1.00  0.00     0.021 C
ENDBRANCH  15  20
ENDBRANCH  11  13
ENDBRANCH   8   9
ENDBRANCH   7   8
BRANCH   6  24
HETATM   24  N3  UNL     1      -6.960 -12.871   6.591  1.00  0.00     0.086 N
HETATM   25  C8  UNL     1      -7.185 -11.576   7.270  1.00  0.00     0.310 C
HETATM   26  C9  UNL     1      -8.282 -13.529   6.744  1.00  0.00     0.310 C
ENDBRANCH   6  24
BRANCH   1  27
HETATM   27  C3  UNL     1      -2.300 -15.322   9.736  1.00  0.00     0.180 C
BRANCH  27  28
HETATM   28  N1  UNL     1      -3.296 -15.581  10.709  1.00  0.00    -0.348 N
HETATM   29  C2  UNL     1      -3.906 -14.930  11.738  1.00  0.00     0.214 C
HETATM   30  C1  UNL     1      -4.990 -15.635  12.540  1.00  0.00     0.117 C
HETATM   31  O1  UNL     1      -3.691 -13.776  12.138  1.00  0.00    -0.274 OA
ATOM     32  H1  UNL     1      -3.663 -16.527  10.610  1.00  0.00     0.163 HD
ENDBRANCH  27  28
BRANCH  27  33
HETATM   33  C21 UNL     1      -1.823 -16.507   8.934  1.00  0.00     0.009 C
HETATM   34  C22 UNL     1      -2.205 -17.845   9.482  1.00  0.00     0.012 C
HETATM   35  C23 UNL     1      -0.290 -16.420   8.796  1.00  0.00     0.012 C
ENDBRANCH  27  33
ENDBRANCH   1  27
TORSDOF 8
ENDMDL