MODEL 2
REMARK VINA RESULT: -7.054154400      1.221      1.439
REMARK  6 active torsions:
REMARK  status: ('A' for Active; 'I' for Inactive)
REMARK    1  A    between atoms: C2_2  and  C3_3
REMARK    2  A    between atoms: C3_3  and  N1_4
REMARK    3  A    between atoms: C12_20  and  C13_21
REMARK       I    between atoms: C13_21  and  N5_23
REMARK    4  A    between atoms: N5_23  and  C14_25
REMARK    5  A    between atoms: C14_25  and  C15_26
REMARK    6  A    between atoms: C18_31  and  O6_33
ROOT
HETATM    1  N1  UNL     1      -4.940 -13.380   8.741  1.00  0.00    -0.308 N
HETATM    2  C4  UNL     1      -6.123 -12.777   8.097  1.00  0.00     0.328 C
HETATM    3  O1  UNL     1      -6.508 -11.591   8.203  1.00  0.00    -0.247 OA
HETATM    4  N2  UNL     1      -6.747 -13.816   7.325  1.00  0.00    -0.272 N
HETATM    5  C5  UNL     1      -7.955 -13.728   6.508  1.00  0.00     0.164 C
HETATM    6  C6  UNL     1      -5.927 -14.957   7.538  1.00  0.00     0.264 C
HETATM    7  O2  UNL     1      -6.190 -16.151   7.558  1.00  0.00    -0.270 OA
HETATM    8  C7  UNL     1      -4.551 -14.319   7.752  1.00  0.00     0.186 A
HETATM    9  C8  UNL     1      -4.110 -13.733   6.449  1.00  0.00     0.038 A
HETATM   10  C9  UNL     1      -3.063 -14.603   6.454  1.00  0.00     0.059 A
HETATM   11  N3  UNL     1      -2.316 -14.415   5.325  1.00  0.00    -0.355 N
ATOM     12  H3  UNL     1      -1.473 -14.922   5.054  1.00  0.00     0.166 HD
HETATM   13  C10 UNL     1      -2.924 -13.420   4.639  1.00  0.00     0.060 A
HETATM   14  C11 UNL     1      -4.045 -12.972   5.312  1.00  0.00     0.071 A
HETATM   15  N4  UNL     1      -4.843 -11.918   4.766  1.00  0.00    -0.349 N
ATOM     16  H4  UNL     1      -5.663 -11.614   5.292  1.00  0.00     0.166 HD
HETATM   17  C12 UNL     1      -4.584 -11.326   3.637  1.00  0.00     0.101 A
HETATM   18  C16 UNL     1      -3.411 -11.781   2.914  1.00  0.00     0.037 A
HETATM   19  C17 UNL     1      -2.620 -12.766   3.373  1.00  0.00     0.034 A
HETATM   20  C18 UNL     1      -3.438 -15.215   7.777  1.00  0.00     0.138 A
HETATM   21  C19 UNL     1      -2.247 -15.027   8.677  1.00  0.00     0.057 C
ENDROOT
BRANCH   1  22
HETATM   22  C3  UNL     1      -4.535 -12.903  10.014  1.00  0.00     0.129 C
BRANCH  22  23
HETATM   23  C2  UNL     1      -4.506 -13.868  11.149  1.00  0.00     0.015 C
HETATM   24  C1  UNL     1      -5.703 -14.731  11.199  1.00  0.00     0.006 C
ENDBRANCH  22  23
ENDBRANCH   1  22
BRANCH  20  25
HETATM   25  O6  UNL     1      -3.843 -16.556   7.643  1.00  0.00    -0.376 OA
HETATM   26  C20 UNL     1      -2.975 -17.447   8.220  1.00  0.00     0.203 C
ENDBRANCH  20  25
BRANCH  17  27
HETATM   27  C13 UNL     1      -5.460 -10.251   3.151  1.00  0.00     0.268 C
HETATM   28  O3  UNL     1      -5.202  -9.626   2.092  1.00  0.00    -0.266 OA
HETATM   29  N5  UNL     1      -6.613  -9.906   3.877  1.00  0.00    -0.346 N
ATOM     30  H5  UNL     1      -6.834 -10.402   4.740  1.00  0.00     0.163 HD
BRANCH  29  31
HETATM   31  C14 UNL     1      -7.490  -8.854   3.411  1.00  0.00     0.236 C
BRANCH  31  32
HETATM   32  C15 UNL     1      -7.022  -7.494   3.714  1.00  0.00     0.191 C
HETATM   33  O4  UNL     1      -6.577  -6.695   2.856  1.00  0.00    -0.647 OA
HETATM   34  O5  UNL     1      -7.057  -7.019   5.027  1.00  0.00    -0.647 OA
ENDBRANCH  31  32
ENDBRANCH  29  31
ENDBRANCH  17  27
TORSDOF 6
ENDMDL