MODEL 2
REMARK VINA RESULT: -6.835960501      2.273      3.734
REMARK  8 active torsions:
REMARK  status: ('A' for Active; 'I' for Inactive)
REMARK    1  A    between atoms: O1_2  and  C2_3
REMARK    2  A    between atoms: C2_3  and  C3_5
REMARK    3  A    between atoms: C7_10  and  C8_11
REMARK    4  A    between atoms: C8_11  and  O4_12
REMARK    5  A    between atoms: C9_14  and  C10_15
REMARK       I    between atoms: N1_19  and  C12_20
REMARK    6  A    between atoms: C12_20  and  C13_22
REMARK    7  A    between atoms: C13_22  and  N2_23
REMARK    8  A    between atoms: C18_28  and  C19_29
ROOT
HETATM    1  C3  UNL     1      -3.337 -11.433   4.495  1.00  0.00     0.194 C
HETATM    2  C4  UNL     1      -3.473 -10.514   3.336  1.00  0.00     0.114 C
HETATM    3  C5  UNL     1      -4.862 -10.365   2.863  1.00  0.00     0.136 C
HETATM    4  O3  UNL     1      -5.125 -10.476   1.692  1.00  0.00    -0.297 OA
HETATM    5  C6  UNL     1      -5.885 -10.079   3.897  1.00  0.00     0.086 C
HETATM    6  C7  UNL     1      -5.592  -8.782   4.666  1.00  0.00     0.039 C
HETATM    7  C9  UNL     1      -5.960  -9.532   5.905  1.00  0.00     0.117 C
HETATM    8  C11 UNL     1      -5.722 -10.849   5.154  1.00  0.00     0.114 C
HETATM    9  N1  UNL     1      -4.474 -11.491   5.381  1.00  0.00    -0.330 N
HETATM   10  C12 UNL     1      -4.357 -12.255   6.596  1.00  0.00     0.247 C
HETATM   11  O7  UNL     1      -3.252 -12.807   6.782  1.00  0.00    -0.271 OA
ENDROOT
BRANCH   1  12
HETATM   12  C2  UNL     1      -3.065 -12.796   3.912  1.00  0.00     0.282 C
HETATM   13  O2  UNL     1      -4.024 -13.489   3.492  1.00  0.00    -0.263 OA
BRANCH  12  14
HETATM   14  O1  UNL     1      -1.790 -13.327   3.816  1.00  0.00    -0.325 OA
HETATM   15  C1  UNL     1      -0.937 -13.110   2.708  1.00  0.00     0.213 C
ENDBRANCH  12  14
ENDBRANCH   1  12
BRANCH  10  16
HETATM   16  C13 UNL     1      -5.419 -12.397   7.551  1.00  0.00     0.340 C
BRANCH  16  17
HETATM   17  N2  UNL     1      -6.108 -13.707   7.575  1.00  0.00    -0.058 N
HETATM   18  C14 UNL     1      -5.145 -14.619   8.071  1.00  0.00     0.273 C
HETATM   19  C15 UNL     1      -6.413 -14.125   6.202  1.00  0.00     0.238 C
HETATM   20  C16 UNL     1      -7.917 -14.143   6.075  1.00  0.00     0.030 C
HETATM   21  C17 UNL     1      -8.294 -13.175   7.145  1.00  0.00     0.036 C
HETATM   22  C18 UNL     1      -7.308 -13.479   8.257  1.00  0.00     0.198 C
BRANCH  22  23
HETATM   23  C19 UNL     1      -7.840 -14.352   9.318  1.00  0.00    -0.022 C
HETATM   24  C20 UNL     1      -9.004 -13.553   9.960  1.00  0.00     0.016 C
HETATM   25  C21 UNL     1      -8.394 -15.676   8.987  1.00  0.00     0.016 C
HETATM   26  C22 UNL     1      -6.874 -14.509  10.473  1.00  0.00     0.016 C
ENDBRANCH  22  23
ENDBRANCH  16  17
ENDBRANCH  10  16
BRANCH   7  27
HETATM   27  C10 UNL     1      -7.391  -9.426   6.291  1.00  0.00     0.179 C
HETATM   28  O5  UNL     1      -7.654  -9.039   7.457  1.00  0.00    -0.648 OA
HETATM   29  O6  UNL     1      -8.445  -9.725   5.452  1.00  0.00    -0.648 OA
ENDBRANCH   7  27
BRANCH   6  30
HETATM   30  C8  UNL     1      -6.486  -7.680   4.209  1.00  0.00     0.170 C
BRANCH  30  31
HETATM   31  O4  UNL     1      -7.352  -8.053   3.198  1.00  0.00    -0.400 OA
ATOM     32  H4  UNL     1      -8.057  -7.434   3.054  1.00  0.00     0.209 HD
ENDBRANCH  30  31
ENDBRANCH   6  30
TORSDOF 8
ENDMDL