MODEL 4
REMARK VINA RESULT: -5.404419330      7.031      9.440
REMARK  7 active torsions:
REMARK  status: ('A' for Active; 'I' for Inactive)
REMARK    1  A    between atoms: C2_2  and  C3_3
REMARK    2  A    between atoms: C3_3  and  C4_4
REMARK    3  A    between atoms: C4_4  and  C5_5
REMARK    4  A    between atoms: C5_5  and  O1_6
REMARK    5  A    between atoms: C5_5  and  C6_8
REMARK    6  A    between atoms: N2_19  and  C14_20
REMARK    7  A    between atoms: C14_20  and  S1_21
ROOT
HETATM    1  C4  UNL     1       0.195 -12.771   0.398  1.00  0.00     0.188 C
HETATM    2  C9  UNL     1      -0.774 -13.544   1.136  1.00  0.00     0.197 C
HETATM    3  N1  UNL     1      -1.017 -13.485   2.556  1.00  0.00    -0.344 N
ATOM      4  H1  UNL     1      -1.284 -12.653   3.081  1.00  0.00     0.163 HD
HETATM    5  C10 UNL     1      -0.819 -14.799   3.107  1.00  0.00     0.265 C
HETATM    6  O2  UNL     1      -1.414 -15.334   4.033  1.00  0.00    -0.270 OA
HETATM    7  C11 UNL     1       0.305 -15.253   2.202  1.00  0.00     0.301 C
HETATM    8  C12 UNL     1       1.389 -14.391   2.613  1.00  0.00     0.089 C
HETATM    9  C13 UNL     1       2.105 -13.497   1.716  1.00  0.00     0.249 C
HETATM   10  N2  UNL     1       1.561 -13.282   0.407  1.00  0.00    -0.020 N
HETATM   11  C16 UNL     1       1.809 -14.546  -0.220  1.00  0.00     0.209 C
HETATM   12  C17 UNL     1       1.942 -15.846   0.131  1.00  0.00    -0.032 C
HETATM   13  C18 UNL     1       2.213 -16.714  -1.091  1.00  0.00     0.046 C
HETATM   14  C19 UNL     1       1.898 -16.649   1.355  1.00  0.00     0.309 C
HETATM   15  N3  UNL     1       0.685 -16.584   2.155  1.00  0.00     0.115 N
HETATM   16  C20 UNL     1       0.903 -17.286   3.362  1.00  0.00     0.312 C
HETATM   17  C21 UNL     1      -0.575 -15.010   1.038  1.00  0.00     0.200 C
HETATM   18  O5  UNL     1      -0.976 -15.850   0.276  1.00  0.00    -0.292 OA
ENDROOT
BRANCH   1  19
HETATM   19  C3  UNL     1       0.135 -11.286   0.609  1.00  0.00     0.045 C
BRANCH  19  20
HETATM   20  C2  UNL     1      -0.459 -10.590   1.720  1.00  0.00    -0.002 C
HETATM   21  C1  UNL     1      -1.926 -10.145   1.330  1.00  0.00     0.005 C
ENDBRANCH  19  20
ENDBRANCH   1  19
BRANCH   1  22
HETATM   22  C5  UNL     1      -0.263 -12.809  -1.066  1.00  0.00     0.161 C
BRANCH  22  23
HETATM   23  O1  UNL     1      -1.163 -13.793  -1.379  1.00  0.00    -0.393 OA
ATOM     24  H1  UNL     1      -0.806 -14.547  -1.833  1.00  0.00     0.210 HD
ENDBRANCH  22  23
BRANCH  22  25
HETATM   25  C6  UNL     1      -0.551 -11.621  -1.840  1.00  0.00     0.009 C
HETATM   26  C7  UNL     1       0.284 -11.702  -3.188  1.00  0.00     0.012 C
HETATM   27  C8  UNL     1      -1.918 -11.418  -2.435  1.00  0.00     0.012 C
ENDBRANCH  22  25
ENDBRANCH   1  22
BRANCH  10  28
HETATM   28  C14 UNL     1       2.517 -12.389  -0.213  1.00  0.00     0.383 C
BRANCH  28  29
HETATM   29  S1  UNL     1       4.208 -12.772  -0.097  1.00  0.00     0.166 S
HETATM   30  C15 UNL     1       5.072 -11.408  -0.962  1.00  0.00     0.163 C
HETATM   31  O3  UNL     1       4.817 -12.673   1.276  1.00  0.00    -0.227 OA
HETATM   32  O4  UNL     1       4.712 -13.974  -0.749  1.00  0.00    -0.227 OA
ENDBRANCH  28  29
ENDBRANCH  10  28
TORSDOF 7
ENDMDL