MODEL 3
REMARK VINA RESULT: -8.329952661      2.228      3.089
REMARK  8 active torsions:
REMARK  status: ('A' for Active; 'I' for Inactive)
REMARK       I    between atoms: C2_2  and  N1_4
REMARK    1  A    between atoms: N1_4  and  C3_5
REMARK    2  A    between atoms: C3_5  and  C4_6
REMARK    3  A    between atoms: C3_5  and  C19_31
REMARK       I    between atoms: C4_6  and  N2_8
REMARK    4  A    between atoms: C10_16  and  C11_17
REMARK    5  A    between atoms: C11_17  and  O4_18
REMARK    6  A    between atoms: C11_17  and  N4_20
REMARK    7  A    between atoms: C13_22  and  C14_23
REMARK    8  A    between atoms: C14_23  and  C15_24
ROOT
HETATM    1  C4  UNL     1      -6.699 -10.793   5.910  1.00  0.00     0.257 C
HETATM    2  O2  UNL     1      -7.819 -11.172   6.369  1.00  0.00    -0.270 OA
HETATM    3  N2  UNL     1      -5.761 -11.823   5.597  1.00  0.00    -0.327 N
HETATM    4  C5  UNL     1      -4.488 -11.467   5.024  1.00  0.00     0.152 C
HETATM    5  C6  UNL     1      -3.289 -12.239   5.434  1.00  0.00     0.100 C
HETATM    6  C7  UNL     1      -2.227 -12.018   4.348  1.00  0.00     0.034 C
HETATM    7  N3  UNL     1      -3.602 -13.657   5.473  1.00  0.00    -0.348 N
HETATM    8  C8  UNL     1      -2.659 -14.654   4.992  1.00  0.00     0.153 C
HETATM    9  C9  UNL     1      -4.856 -14.039   5.998  1.00  0.00     0.251 C
HETATM   10  O3  UNL     1      -4.969 -15.127   6.621  1.00  0.00    -0.271 OA
HETATM   11  C10 UNL     1      -6.084 -13.208   5.851  1.00  0.00     0.254 C
ENDROOT
BRANCH  11  12
HETATM   12  C11 UNL     1      -7.010 -13.467   6.957  1.00  0.00     0.154 C
BRANCH  12  13
HETATM   13  O4  UNL     1      -8.226 -13.743   6.588  1.00  0.00    -0.347 OA
ATOM     14  H4  UNL     1      -8.714 -13.000   6.252  1.00  0.00     0.219 HD
ENDBRANCH  12  13
BRANCH  12  15
HETATM   15  N4  UNL     1      -6.759 -13.461   8.341  1.00  0.00    -0.280 N
HETATM   16  C12 UNL     1      -5.604 -12.735   8.937  1.00  0.00     0.161 C
HETATM   17  C13 UNL     1      -5.220 -13.724   9.990  1.00  0.00     0.105 C
HETATM   18  N5  UNL     1      -6.525 -14.015  10.590  1.00  0.00    -0.336 N
HETATM   19  C18 UNL     1      -7.416 -13.996   9.470  1.00  0.00     0.324 C
ATOM     20  H5  UNL     1      -6.745 -14.190  11.571  1.00  0.00     0.164 HD
HETATM   21  O5  UNL     1      -8.614 -14.382   9.436  1.00  0.00    -0.247 OA
BRANCH  17  22
HETATM   22  C14 UNL     1      -4.168 -13.392  10.935  1.00  0.00     0.031 C
BRANCH  22  23
HETATM   23  C15 UNL     1      -2.783 -13.850  10.733  1.00  0.00    -0.021 C
HETATM   24  C16 UNL     1      -2.351 -13.859   9.306  1.00  0.00     0.009 C
HETATM   25  C17 UNL     1      -2.664 -15.288  11.271  1.00  0.00     0.009 C
ENDBRANCH  22  23
ENDBRANCH  17  22
ENDBRANCH  12  15
ENDBRANCH  11  12
BRANCH   1  26
HETATM   26  C3  UNL     1      -6.458  -9.338   5.739  1.00  0.00     0.262 C
BRANCH  26  27
HETATM   27  N1  UNL     1      -7.303  -8.406   6.340  1.00  0.00    -0.400 NA
HETATM   28  C2  UNL     1      -8.123  -7.503   6.924  1.00  0.00     0.283 C
HETATM   29  C1  UNL     1      -7.793  -6.030   6.973  1.00  0.00     0.134 C
HETATM   30  O1  UNL     1      -9.247  -7.765   7.501  1.00  0.00    -0.258 OA
ENDBRANCH  26  27
BRANCH  26  31
HETATM   31  C19 UNL     1      -6.407  -8.997   4.260  1.00  0.00     0.023 C
HETATM   32  C20 UNL     1      -6.002  -7.581   4.003  1.00  0.00     0.013 C
HETATM   33  C21 UNL     1      -7.825  -9.201   3.666  1.00  0.00     0.013 C
ENDBRANCH  26  31
ENDBRANCH   1  26
TORSDOF 8
ENDMDL