MODEL 3
REMARK VINA RESULT: -6.788614160      1.856      2.369
REMARK  6 active torsions:
REMARK  status: ('A' for Active; 'I' for Inactive)
REMARK    1  A    between atoms: C2_2  and  N1_3
REMARK    2  A    between atoms: N1_3  and  C3_4
REMARK    3  A    between atoms: C8_9  and  C9_10
REMARK    4  A    between atoms: C9_10  and  C10_11
REMARK       I    between atoms: C10_11  and  N2_13
REMARK    5  A    between atoms: N2_13  and  C11_15
REMARK    6  A    between atoms: C13_19  and  C14_20
ROOT
HETATM    1  C11 UNL     1      -1.111 -11.506   3.329  1.00  0.00     0.214 C
HETATM    2  C12 UNL     1      -0.531 -10.770   2.172  1.00  0.00     0.247 C
HETATM    3  O2  UNL     1      -0.192  -9.600   1.931  1.00  0.00    -0.271 OA
HETATM    4  N3  UNL     1      -0.538 -11.988   1.475  1.00  0.00    -0.313 N
HETATM    5  C13 UNL     1      -0.624 -12.899   0.400  1.00  0.00     0.212 C
HETATM    6  C15 UNL     1      -0.275 -14.266   0.839  1.00  0.00     0.089 C
HETATM    7  C16 UNL     1       1.226 -14.387   0.935  1.00  0.00     0.034 C
HETATM    8  C17 UNL     1      -0.891 -15.372   0.055  1.00  0.00     0.034 C
HETATM    9  S1  UNL     1      -0.948 -14.202   2.515  1.00  0.00     0.178 S
HETATM   10  O5  UNL     1      -2.420 -14.286   2.516  1.00  0.00    -0.225 OA
HETATM   11  O6  UNL     1      -0.312 -15.250   3.370  1.00  0.00    -0.225 OA
HETATM   12  C18 UNL     1      -0.310 -12.592   2.785  1.00  0.00     0.243 C
ENDROOT
BRANCH   1  13
HETATM   13  N2  UNL     1      -2.520 -11.514   3.253  1.00  0.00    -0.345 N
HETATM   14  C10 UNL     1      -3.283 -11.576   4.444  1.00  0.00     0.218 C
HETATM   15  O1  UNL     1      -2.707 -11.622   5.578  1.00  0.00    -0.274 OA
ATOM     16  H2  UNL     1      -2.986 -11.476   2.346  1.00  0.00     0.163 HD
BRANCH  14  17
HETATM   17  C9  UNL     1      -4.766 -11.589   4.455  1.00  0.00     0.109 C
BRANCH  17  18
HETATM   18  C8  UNL     1      -5.332 -10.460   5.299  1.00  0.00     0.020 C
HETATM   19  C7  UNL     1      -6.504 -10.960   6.037  1.00  0.00     0.008 C
HETATM   20  C6  UNL     1      -7.770 -10.183   5.906  1.00  0.00     0.028 C
HETATM   21  C5  UNL     1      -7.574  -8.767   5.436  1.00  0.00     0.237 C
HETATM   22  N1  UNL     1      -6.845  -8.840   4.184  1.00  0.00    -0.067 N
HETATM   23  C19 UNL     1      -5.516  -9.284   4.421  1.00  0.00     0.242 C
BRANCH  22  24
HETATM   24  C2  UNL     1      -6.761  -7.486   3.613  1.00  0.00     0.233 C
HETATM   25  C1  UNL     1      -5.524  -7.294   2.797  1.00  0.00     0.035 C
ENDBRANCH  22  24
BRANCH  22  26
HETATM   26  C3  UNL     1      -7.601  -9.629   3.257  1.00  0.00     0.233 C
HETATM   27  C4  UNL     1      -8.829  -8.885   2.735  1.00  0.00     0.035 C
ENDBRANCH  22  26
ENDBRANCH  17  18
ENDBRANCH  14  17
ENDBRANCH   1  13
BRANCH   5  28
HETATM   28  C14 UNL     1       0.208 -12.433  -0.756  1.00  0.00     0.198 C
HETATM   29  O3  UNL     1      -0.034 -12.838  -1.916  1.00  0.00    -0.646 OA
HETATM   30  O4  UNL     1       1.258 -11.552  -0.578  1.00  0.00    -0.646 OA
ENDBRANCH   5  28
TORSDOF 6
ENDMDL