MODEL 4
REMARK VINA RESULT: -7.828359105      3.362      6.016
REMARK  6 active torsions:
REMARK  status: ('A' for Active; 'I' for Inactive)
REMARK    1  A    between atoms: C2_2  and  C4_4
REMARK    2  A    between atoms: C4_4  and  C6_6
REMARK       I    between atoms: C6_6  and  N1_8
REMARK    3  A    between atoms: N1_8  and  C7_10
REMARK    4  A    between atoms: C9_14  and  C10_15
REMARK    5  A    between atoms: C12_19  and  C13_20
REMARK       I    between atoms: C13_20  and  N3_22
REMARK    6  A    between atoms: C16_26  and  C17_27
REMARK       I    between atoms: C17_27  and  N4_29
ROOT
HETATM    1  C7  UNL     1      -4.767 -13.766   9.822  1.00  0.00     0.203 C
HETATM    2  C8  UNL     1      -5.915 -14.555  10.322  1.00  0.00     0.246 C
HETATM    3  O2  UNL     1      -6.012 -15.413  11.238  1.00  0.00    -0.271 OA
HETATM    4  N2  UNL     1      -6.733 -13.922   9.359  1.00  0.00    -0.325 N
HETATM    5  C9  UNL     1      -8.018 -13.468   8.908  1.00  0.00     0.193 C
HETATM    6  C11 UNL     1      -7.963 -12.998   7.446  1.00  0.00     0.080 C
HETATM    7  C12 UNL     1      -6.826 -12.017   7.402  1.00  0.00     0.011 C
HETATM    8  C20 UNL     1      -5.685 -12.377   7.933  1.00  0.00     0.013 C
HETATM    9  C21 UNL     1      -5.570 -13.715   8.541  1.00  0.00     0.144 C
ENDROOT
BRANCH   7  10
HETATM   10  C13 UNL     1      -7.059 -10.724   6.774  1.00  0.00     0.251 C
HETATM   11  O5  UNL     1      -7.608  -9.782   7.396  1.00  0.00    -0.268 OA
HETATM   12  N3  UNL     1      -6.649 -10.548   5.434  1.00  0.00    -0.330 N
HETATM   13  C14 UNL     1      -7.372  -9.818   4.648  1.00  0.00     0.004 A
ATOM     14  H3  UNL     1      -5.796 -10.989   5.091  1.00  0.00     0.168 HD
HETATM   15  C15 UNL     1      -8.454  -8.953   4.150  1.00  0.00     0.073 A
HETATM   16  C16 UNL     1      -7.397  -9.329   3.224  1.00  0.00     0.129 A
BRANCH  16  17
HETATM   17  C17 UNL     1      -6.323  -8.348   2.959  1.00  0.00     0.229 C
HETATM   18  O6  UNL     1      -6.411  -7.185   3.413  1.00  0.00    -0.273 OA
HETATM   19  N4  UNL     1      -5.171  -8.668   2.198  1.00  0.00    -0.360 N
HETATM   20  C18 UNL     1      -5.055 -10.008   1.665  1.00  0.00     0.152 C
HETATM   21  C19 UNL     1      -4.113  -7.716   1.934  1.00  0.00     0.152 C
ENDBRANCH  16  17
ENDBRANCH   7  10
BRANCH   5  22
HETATM   22  C10 UNL     1      -9.037 -14.524   9.098  1.00  0.00     0.197 C
HETATM   23  O3  UNL     1     -10.146 -14.317   9.652  1.00  0.00    -0.646 OA
HETATM   24  O4  UNL     1      -8.816 -15.843   8.661  1.00  0.00    -0.646 OA
ENDBRANCH   5  22
BRANCH   1  25
HETATM   25  N1  UNL     1      -3.632 -14.652   9.640  1.00  0.00    -0.345 N
HETATM   26  C6  UNL     1      -2.654 -14.887  10.610  1.00  0.00     0.222 C
HETATM   27  O1  UNL     1      -2.747 -14.294  11.736  1.00  0.00    -0.273 OA
ATOM     28  H1  UNL     1      -3.543 -15.135   8.745  1.00  0.00     0.163 HD
BRANCH  26  29
HETATM   29  C4  UNL     1      -1.533 -15.818  10.313  1.00  0.00     0.077 C
HETATM   30  C5  UNL     1      -1.813 -16.408   8.944  1.00  0.00     0.020 C
BRANCH  29  31
HETATM   31  C2  UNL     1      -1.599 -16.952  11.311  1.00  0.00    -0.010 C
HETATM   32  C1  UNL     1      -1.952 -18.263  10.619  1.00  0.00     0.010 C
HETATM   33  C3  UNL     1      -0.281 -17.073  12.048  1.00  0.00     0.010 C
ENDBRANCH  29  31
ENDBRANCH  26  29
ENDBRANCH   1  25
TORSDOF 6
ENDMDL