MODEL 4
REMARK VINA RESULT: -6.749752028      1.169      1.573
REMARK  5 active torsions:
REMARK  status: ('A' for Active; 'I' for Inactive)
REMARK    1  A    between atoms: C4_6  and  C5_7
REMARK    2  A    between atoms: C5_7  and  O1_8
REMARK    3  A    between atoms: C5_7  and  N2_10
REMARK    4  A    between atoms: N2_10  and  O2_12
REMARK    5  A    between atoms: C7_15  and  N3_16
ROOT
HETATM    1  N1  UNL     1      22.483  -9.746  -0.033  1.00  0.00    -0.093 NA
HETATM    2  C1  UNL     1      21.987  -8.410   0.131  1.00  0.00     0.102 A
HETATM    3  S1  UNL     1      21.360  -7.738   1.556  1.00  0.00    -0.078 SA
HETATM    4  C2  UNL     1      20.995  -6.176   0.978  1.00  0.00    -0.008 A
HETATM    5  C3  UNL     1      21.372  -6.221  -0.316  1.00  0.00    -0.026 A
HETATM    6  C4  UNL     1      21.897  -7.386  -0.782  1.00  0.00     0.055 A
HETATM    7  C6  UNL     1      21.171  -4.966  -1.153  1.00  0.00     0.065 C
HETATM    8  C7  UNL     1      20.381  -3.956  -0.431  1.00  0.00     0.088 C
HETATM    9  C11 UNL     1      20.814  -3.747   1.020  1.00  0.00     0.030 C
HETATM   10  C12 UNL     1      20.402  -5.026   1.714  1.00  0.00     0.049 C
ENDROOT
BRANCH   8  11
HETATM   11  N3  UNL     1      20.586  -2.678  -1.086  1.00  0.00    -0.366 N
HETATM   12  C8  UNL     1      19.643  -1.903  -1.433  1.00  0.00     0.140 C
HETATM   13  N4  UNL     1      18.266  -2.082  -1.278  1.00  0.00    -0.350 N
HETATM   14  S2  UNL     1      19.781  -0.312  -2.242  1.00  0.00    -0.089 SA
HETATM   15  C9  UNL     1      17.472  -1.267  -1.762  1.00  0.00     0.073 C
ATOM     16  H4  UNL     1      17.914  -2.890  -0.763  1.00  0.00     0.167 HD
HETATM   17  C10 UNL     1      17.994  -0.106  -2.503  1.00  0.00     0.127 C
ATOM     18  H3  UNL     1      21.544  -2.385  -1.278  1.00  0.00     0.162 HD
ENDBRANCH   8  11
BRANCH   6  19
HETATM   19  C5  UNL     1      22.380  -7.650  -2.158  1.00  0.00     0.173 C
BRANCH  19  20
HETATM   20  O1  UNL     1      21.675  -8.526  -2.941  1.00  0.00    -0.344 OA
ATOM     21  H1  UNL     1      21.897  -8.589  -3.864  1.00  0.00     0.219 HD
ENDBRANCH  19  20
BRANCH  19  22
HETATM   22  N2  UNL     1      23.414  -7.104  -2.649  1.00  0.00    -0.247 N
ATOM     23  H2  UNL     1      24.320  -7.461  -2.344  1.00  0.00     0.196 HD
BRANCH  22  24
HETATM   24  O2  UNL     1      23.418  -6.092  -3.540  1.00  0.00    -0.288 OA
ATOM     25  H2  UNL     1      23.127  -5.204  -3.368  1.00  0.00     0.244 HD
ENDBRANCH  22  24
ENDBRANCH  19  22
ENDBRANCH   6  19
TORSDOF 5
ENDMDL