MODEL 1
REMARK VINA RESULT: -4.651022760      0.000      0.000
REMARK  2 active torsions:
REMARK  status: ('A' for Active; 'I' for Inactive)
REMARK       I    between atoms: N1_2  and  C2_4
REMARK    1  A    between atoms: C2_4  and  C3_6
REMARK    2  A    between atoms: C3_6  and  N2_7
ROOT
HETATM    1  N2  UNL     1      27.948   0.803   2.375  1.00  0.00    -0.308 N
HETATM    2  C4  UNL     1      28.375   0.768   1.124  1.00  0.00     0.147 A
HETATM    3  S1  UNL     1      27.880  -0.234  -0.087  1.00  0.00    -0.052 SA
HETATM    4  S2  UNL     1      29.550   1.998   1.059  1.00  0.00    -0.053 SA
HETATM    5  C5  UNL     1      29.442   2.520   2.683  1.00  0.00     0.090 A
HETATM    6  C6  UNL     1      30.087   3.509   3.452  1.00  0.00     0.123 A
HETATM    7  S3  UNL     1      31.197   4.385   2.658  1.00  0.00    -0.059 SA
HETATM    8  N3  UNL     1      29.778   3.687   4.746  1.00  0.00    -0.323 N
ATOM      9  H3  UNL     1      30.232   4.398   5.320  1.00  0.00     0.169 HD
HETATM   10  C7  UNL     1      28.832   2.868   5.237  1.00  0.00     0.178 A
HETATM   11  S4  UNL     1      28.417   3.055   6.841  1.00  0.00    -0.040 SA
HETATM   12  N4  UNL     1      28.210   1.925   4.527  1.00  0.00    -0.318 N
ATOM     13  H4  UNL     1      27.504   1.351   4.987  1.00  0.00     0.170 HD
HETATM   14  C8  UNL     1      28.482   1.695   3.196  1.00  0.00     0.132 A
ENDROOT
BRANCH   1  15
HETATM   15  C3  UNL     1      26.888  -0.154   2.814  1.00  0.00     0.234 C
BRANCH  15  16
HETATM   16  C2  UNL     1      25.571   0.536   2.802  1.00  0.00     0.235 C
HETATM   17  N1  UNL     1      24.690   0.302   1.727  1.00  0.00    -0.364 N
HETATM   18  C1  UNL     1      23.410   0.962   1.702  1.00  0.00     0.149 C
ATOM     19  H1  UNL     1      24.956  -0.331   0.973  1.00  0.00     0.161 HD
HETATM   20  O1  UNL     1      25.277   1.318   3.763  1.00  0.00    -0.272 OA
ENDBRANCH  15  16
ENDBRANCH   1  15
TORSDOF 2
ENDMDL