MODEL 1
REMARK VINA RESULT: -6.736417674      0.000      0.000
REMARK  4 active torsions:
REMARK  status: ('A' for Active; 'I' for Inactive)
REMARK    1  A    between atoms: C2_2  and  N1_4
REMARK    2  A    between atoms: N5_14  and  O1_16
REMARK    3  A    between atoms: C8_19  and  N6_20
REMARK    4  A    between atoms: N6_20  and  C9_22
ROOT
HETATM    1  N1  UNL     1      22.100  -2.630   0.631  1.00  0.00    -0.270 N
HETATM    2  N2  UNL     1      21.909  -1.364   0.362  1.00  0.00    -0.280 N
ATOM      3  H2  UNL     1      22.444  -0.606   0.784  1.00  0.00     0.189 HD
HETATM    4  C4  UNL     1      20.936  -1.181  -0.525  1.00  0.00     0.139 A
HETATM    5  N3  UNL     1      20.374  -0.110  -1.098  1.00  0.00    -0.337 N
ATOM      6  H3  UNL     1      20.721   0.819  -0.861  1.00  0.00     0.168 HD
HETATM    7  C5  UNL     1      19.371  -0.225  -1.972  1.00  0.00     0.183 A
HETATM    8  N4  UNL     1      18.903  -1.429  -2.296  1.00  0.00    -0.336 N
ATOM      9  H4  UNL     1      18.136  -1.522  -2.962  1.00  0.00     0.168 HD
HETATM   10  C6  UNL     1      19.450  -2.521  -1.736  1.00  0.00     0.143 A
HETATM   11  N5  UNL     1      18.951  -3.626  -2.057  1.00  0.00    -0.252 N
ATOM     12  H5  UNL     1      19.354  -4.467  -1.642  1.00  0.00     0.196 HD
HETATM   13  C7  UNL     1      20.493  -2.486  -0.823  1.00  0.00     0.100 A
HETATM   14  C8  UNL     1      21.215  -3.403  -0.106  1.00  0.00     0.137 A
ENDROOT
BRANCH  14  15
HETATM   15  N6  UNL     1      21.126  -4.776  -0.036  1.00  0.00    -0.370 N
ATOM     16  H6  UNL     1      20.171  -5.029   0.220  1.00  0.00     0.161 HD
BRANCH  15  17
HETATM   17  C9  UNL     1      21.875  -5.951  -0.191  1.00  0.00     0.083 C
HETATM   18  C10 UNL     1      21.158  -6.895  -1.254  1.00  0.00     0.025 C
HETATM   19  C11 UNL     1      22.130  -8.021  -1.504  1.00  0.00     0.002 C
HETATM   20  C12 UNL     1      21.869  -9.203  -0.601  1.00  0.00     0.000 C
HETATM   21  C13 UNL     1      22.567  -9.136   0.711  1.00  0.00     0.000 C
HETATM   22  C14 UNL     1      22.948  -7.731   1.126  1.00  0.00     0.002 C
HETATM   23  C15 UNL     1      21.744  -6.860   1.059  1.00  0.00     0.025 C
ENDBRANCH  15  17
ENDBRANCH  14  15
BRANCH   1  24
HETATM   24  C2  UNL     1      23.121  -3.108   1.576  1.00  0.00     0.102 C
HETATM   25  C1  UNL     1      24.515  -2.715   1.162  1.00  0.00     0.034 C
HETATM   26  C3  UNL     1      22.816  -2.772   2.995  1.00  0.00     0.034 C
ENDBRANCH   1  24
BRANCH  11  27
HETATM   27  O1  UNL     1      17.925  -3.779  -2.908  1.00  0.00    -0.288 OA
ATOM     28  H1  UNL     1      17.173  -4.338  -2.749  1.00  0.00     0.244 HD
ENDBRANCH  11  27
TORSDOF 4
ENDMDL