MODEL 1
REMARK VINA RESULT: -6.305653883      0.000      0.000
REMARK  4 active torsions:
REMARK  status: ('A' for Active; 'I' for Inactive)
REMARK    1  A    between atoms: C2_2  and  N1_5
REMARK    2  A    between atoms: C8_12  and  C9_13
REMARK    3  A    between atoms: C9_13  and  S1_14
REMARK    4  A    between atoms: S1_14  and  C10_15
ROOT
HETATM    1  N1  UNL     1      22.149  -8.484  -1.015  1.00  0.00    -0.368 N
ATOM      2  H1  UNL     1      22.630  -9.174  -1.592  1.00  0.00     0.161 HD
HETATM    3  C5  UNL     1      22.280  -7.274  -1.383  1.00  0.00     0.104 A
HETATM    4  C6  UNL     1      23.045  -7.019  -2.505  1.00  0.00     0.065 A
HETATM    5  C7  UNL     1      23.180  -5.704  -2.894  1.00  0.00     0.093 A
HETATM    6  N2  UNL     1      22.590  -4.686  -2.213  1.00  0.00    -0.355 N
ATOM      7  H2  UNL     1      22.706  -3.722  -2.524  1.00  0.00     0.166 HD
HETATM    8  C8  UNL     1      21.855  -4.963  -1.128  1.00  0.00     0.092 A
HETATM    9  N6  UNL     1      21.715  -6.247  -0.736  1.00  0.00    -0.332 N
ATOM     10  H6  UNL     1      21.153  -6.444   0.091  1.00  0.00     0.168 HD
ENDROOT
BRANCH   8  11
HETATM   11  C9  UNL     1      21.221  -3.833  -0.406  1.00  0.00     0.158 C
BRANCH  11  12
HETATM   12  S1  UNL     1      21.733  -3.749   1.303  1.00  0.00    -0.096 SA
BRANCH  12  13
HETATM   13  C10 UNL     1      23.063  -2.592   1.594  1.00  0.00     0.130 A
HETATM   14  N3  UNL     1      23.111  -1.278   1.447  1.00  0.00    -0.286 N
HETATM   15  N4  UNL     1      24.171  -0.638   1.716  1.00  0.00    -0.279 N
ATOM     16  H3  UNL     1      22.288  -0.775   1.114  1.00  0.00     0.188 HD
HETATM   17  C11 UNL     1      25.241  -1.311   2.151  1.00  0.00     0.159 A
ATOM     18  H4  UNL     1      24.208   0.375   1.603  1.00  0.00     0.189 HD
HETATM   19  N5  UNL     1      26.418  -0.836   2.479  1.00  0.00    -0.379 N
HETATM   20  S2  UNL     1      24.641  -2.925   2.152  1.00  0.00    -0.027 SA
ATOM     21  H52 UNL     1      26.773   0.120   2.478  1.00  0.00     0.158 HD
ATOM     22  H51 UNL     1      27.234  -1.351   2.811  1.00  0.00     0.158 HD
ENDBRANCH  12  13
ENDBRANCH  11  12
ENDBRANCH   8  11
BRANCH   1  23
HETATM   23  C2  UNL     1      21.423  -9.008   0.091  1.00  0.00     0.021 C
HETATM   24  C1  UNL     1      20.014  -8.539   0.234  1.00  0.00     0.037 C
HETATM   25  C3  UNL     1      21.416 -10.539  -0.037  1.00  0.00     0.037 C
HETATM   26  C4  UNL     1      22.172  -8.683   1.371  1.00  0.00     0.037 C
ENDBRANCH   1  23
TORSDOF 4
ENDMDL