MODEL 4
REMARK VINA RESULT: -5.940502693      2.697      3.735
REMARK  2 active torsions:
REMARK  status: ('A' for Active; 'I' for Inactive)
REMARK    1  A    between atoms: C2_2  and  N1_3
REMARK    2  A    between atoms: N1_3  and  O1_5
ROOT
HETATM    1  C1  UNL     1      29.385   2.772   3.969  1.00  0.00     0.070 C
HETATM    2  C2  UNL     1      28.452   1.899   3.152  1.00  0.00     0.030 C
HETATM    3  C3  UNL     1      27.982   2.375   2.049  1.00  0.00    -0.051 C
HETATM    4  C4  UNL     1      28.428   3.784   1.684  1.00  0.00     0.037 C
HETATM    5  C5  UNL     1      27.324   4.763   1.943  1.00  0.00     0.005 C
HETATM    6  C6  UNL     1      26.024   4.005   1.639  1.00  0.00     0.005 C
HETATM    7  C7  UNL     1      26.269   3.001   0.526  1.00  0.00    -0.003 C
HETATM    8  C8  UNL     1      24.920   2.488   0.121  1.00  0.00     0.040 C
HETATM    9  C9  UNL     1      24.649   1.376   1.051  1.00  0.00     0.161 C
HETATM   10  O2  UNL     1      23.753   1.589   2.065  1.00  0.00    -0.273 OA
HETATM   11  N2  UNL     1      23.371   0.387   2.620  1.00  0.00    -0.248 N
ATOM     12  H2  UNL     1      22.725   0.460   3.407  1.00  0.00     0.196 HD
HETATM   13  C10 UNL     1      23.739  -0.943   2.263  1.00  0.00     0.151 A
HETATM   14  N3  UNL     1      23.077  -2.033   2.406  1.00  0.00    -0.284 N
ATOM     15  H3  UNL     1      22.146  -2.094   2.819  1.00  0.00     0.188 HD
HETATM   16  N4  UNL     1      23.803  -3.133   1.917  1.00  0.00    -0.309 N
ATOM     17  H4  UNL     1      23.470  -4.097   1.929  1.00  0.00     0.186 HD
HETATM   18  C11 UNL     1      24.958  -2.755   1.447  1.00  0.00     0.122 A
HETATM   19  C12 UNL     1      25.024  -1.317   1.626  1.00  0.00     0.030 A
HETATM   20  C13 UNL     1      26.065  -0.529   1.298  1.00  0.00    -0.061 C
HETATM   21  C14 UNL     1      27.163  -1.232   0.680  1.00  0.00     0.045 C
HETATM   22  C15 UNL     1      26.037   0.927   1.581  1.00  0.00     0.055 C
HETATM   23  C16 UNL     1      27.059   1.772   1.056  1.00  0.00     0.031 C
ENDROOT
BRANCH   2  24
HETATM   24  N1  UNL     1      28.225   0.627   3.709  1.00  0.00    -0.274 N
ATOM     25  H1  UNL     1      27.522  -0.008   3.330  1.00  0.00     0.193 HD
BRANCH  24  26
HETATM   26  O1  UNL     1      29.006   0.283   4.799  1.00  0.00    -0.290 OA
ATOM     27  H1  UNL     1      28.881  -0.590   5.150  1.00  0.00     0.244 HD
ENDBRANCH  24  26
ENDBRANCH   2  24
TORSDOF 2
ENDMDL