MODEL 2
REMARK VINA RESULT: -5.464539026      1.917      5.973
REMARK  3 active torsions:
REMARK  status: ('A' for Active; 'I' for Inactive)
REMARK    1  A    between atoms: C2_2  and  N1_4
REMARK    2  A    between atoms: N1_4  and  N2_5
REMARK    3  A    between atoms: N2_5  and  C4_7
ROOT
HETATM    1  C4  UNL     1      25.586   2.127   2.885  1.00  0.00     0.153 C
HETATM    2  N3  UNL     1      25.840   2.154   4.136  1.00  0.00    -0.349 N
ATOM      3  H3  UNL     1      25.517   1.356   4.683  1.00  0.00     0.163 HD
HETATM    4  C5  UNL     1      26.548   3.214   4.877  1.00  0.00     0.186 C
HETATM    5  C6  UNL     1      26.327   2.896   6.302  1.00  0.00     0.055 C
HETATM    6  C7  UNL     1      27.085   3.674   7.309  1.00  0.00    -0.042 C
HETATM    7  C8  UNL     1      27.522   2.794   8.478  1.00  0.00     0.015 C
HETATM    8  C9  UNL     1      26.210   4.763   7.953  1.00  0.00     0.015 C
HETATM    9  C10 UNL     1      28.223   4.366   6.660  1.00  0.00     0.039 C
HETATM   10  C11 UNL     1      28.815   3.591   5.473  1.00  0.00     0.027 C
HETATM   11  C12 UNL     1      30.051   4.405   5.136  1.00  0.00     0.038 C
HETATM   12  C13 UNL     1      29.383   2.258   5.959  1.00  0.00     0.038 C
HETATM   13  N4  UNL     1      27.872   3.428   4.419  1.00  0.00    -0.363 N
HETATM   14  C14 UNL     1      28.028   4.325   3.348  1.00  0.00     0.071 C
HETATM   15  C15 UNL     1      27.735   3.787   1.968  1.00  0.00     0.126 C
HETATM   16  S1  UNL     1      26.017   3.363   1.679  1.00  0.00    -0.088 SA
ENDROOT
BRANCH   1  17
HETATM   17  N2  UNL     1      24.893   1.024   2.346  1.00  0.00    -0.284 N
ATOM     18  H2  UNL     1      24.068   0.658   2.821  1.00  0.00     0.184 HD
BRANCH  17  19
HETATM   19  N1  UNL     1      25.329   0.443   1.183  1.00  0.00    -0.135 NA
BRANCH  19  20
HETATM   20  C2  UNL     1      26.277  -0.627   1.376  1.00  0.00     0.091 C
HETATM   21  C1  UNL     1      27.493  -0.511   0.525  1.00  0.00     0.029 C
HETATM   22  C3  UNL     1      25.641  -1.980   1.145  1.00  0.00     0.029 C
ENDBRANCH  19  20
ENDBRANCH  17  19
ENDBRANCH   1  17
TORSDOF 3
ENDMDL