MODEL 4
REMARK VINA RESULT: -6.890457964      2.955      6.862
REMARK  4 active torsions:
REMARK  status: ('A' for Active; 'I' for Inactive)
REMARK    1  A    between atoms: C2_2  and  C14_23
REMARK    2  A    between atoms: N1_3  and  N2_5
REMARK    3  A    between atoms: C14_23  and  O2_24
REMARK    4  A    between atoms: N5_26  and  O3_28
ROOT
HETATM    1  N2  UNL     1      22.041  -3.601   1.106  1.00  0.00    -0.307 N
ATOM      2  H2  UNL     1      22.016  -3.809   2.104  1.00  0.00     0.186 HD
HETATM    3  C3  UNL     1      22.209  -4.560   0.269  1.00  0.00     0.032 C
HETATM    4  C4  UNL     1      22.360  -5.939   0.785  1.00  0.00     0.094 C
HETATM    5  C5  UNL     1      21.874  -6.997  -0.180  1.00  0.00     0.074 C
HETATM    6  C6  UNL     1      22.702  -8.234   0.058  1.00  0.00     0.039 C
HETATM    7  C7  UNL     1      22.139  -9.464  -0.564  1.00  0.00     0.003 C
HETATM    8  C8  UNL     1      20.674  -9.665  -0.326  1.00  0.00     0.000 C
HETATM    9  C9  UNL     1      19.858  -8.431  -0.602  1.00  0.00     0.003 C
HETATM   10  C10 UNL     1      20.408  -7.226   0.115  1.00  0.00     0.039 C
HETATM   11  O1  UNL     1      21.997  -6.643  -1.523  1.00  0.00    -0.326 OA
HETATM   12  C11 UNL     1      22.512  -5.439  -1.972  1.00  0.00     0.136 C
HETATM   13  N3  UNL     1      23.212  -5.429  -3.080  1.00  0.00    -0.382 N
ATOM     14  H31 UNL     1      23.591  -4.542  -3.411  1.00  0.00     0.158 HD
ATOM     15  H32 UNL     1      23.398  -6.267  -3.631  1.00  0.00     0.158 HD
HETATM   16  C12 UNL     1      22.243  -4.233  -1.180  1.00  0.00     0.213 C
HETATM   17  C13 UNL     1      20.923  -3.648  -1.511  1.00  0.00     0.078 C
HETATM   18  N4  UNL     1      19.906  -3.184  -1.755  1.00  0.00    -0.196 NA
ENDROOT
BRANCH   1  19
HETATM   19  N1  UNL     1      21.894  -2.292   0.681  1.00  0.00    -0.301 N
HETATM   20  C2  UNL     1      22.546  -1.313   1.202  1.00  0.00     0.074 C
HETATM   21  C1  UNL     1      23.498  -1.581   2.304  1.00  0.00     0.074 C
ATOM     22  H1  UNL     1      21.240  -2.096  -0.078  1.00  0.00     0.186 HD
BRANCH  20  23
HETATM   23  C14 UNL     1      22.342   0.035   0.705  1.00  0.00     0.184 C
HETATM   24  N5  UNL     1      23.099   0.999   1.089  1.00  0.00    -0.246 N
ATOM     25  H5  UNL     1      23.849   0.800   1.751  1.00  0.00     0.196 HD
BRANCH  23  26
HETATM   26  O2  UNL     1      21.302   0.282  -0.204  1.00  0.00    -0.343 OA
ATOM     27  H2  UNL     1      20.963   1.165  -0.295  1.00  0.00     0.219 HD
ENDBRANCH  23  26
BRANCH  24  28
HETATM   28  O3  UNL     1      22.938   2.278   0.644  1.00  0.00    -0.288 OA
ATOM     29  H3  UNL     1      23.532   2.978   0.883  1.00  0.00     0.244 HD
ENDBRANCH  24  28
ENDBRANCH  20  23
ENDBRANCH   1  19
TORSDOF 4
ENDMDL