MODEL 1
REMARK VINA RESULT: -6.619739215      0.000      0.000
REMARK  3 active torsions:
REMARK  status: ('A' for Active; 'I' for Inactive)
REMARK    1  A    between atoms: C4_4  and  N1_5
REMARK    2  A    between atoms: N3_14  and  C8_15
REMARK    3  A    between atoms: C8_15  and  C9_16
ROOT
HETATM    1  C1  UNL     1      21.143  -9.913  -1.669  1.00  0.00     0.032 C
HETATM    2  C2  UNL     1      21.939  -9.072  -0.662  1.00  0.00     0.081 C
HETATM    3  C3  UNL     1      20.939  -8.582   0.357  1.00  0.00     0.062 C
HETATM    4  C4  UNL     1      21.355  -7.322   1.042  1.00  0.00     0.225 C
HETATM    5  C5  UNL     1      21.585  -6.270   0.027  1.00  0.00     0.054 A
HETATM    6  C6  UNL     1      22.181  -6.646  -1.157  1.00  0.00     0.113 A
HETATM    7  N2  UNL     1      22.396  -5.704  -2.084  1.00  0.00    -0.338 N
ATOM      8  H2  UNL     1      22.837  -5.956  -2.968  1.00  0.00     0.168 HD
HETATM    9  C7  UNL     1      22.033  -4.425  -1.860  1.00  0.00     0.185 A
HETATM   10  N3  UNL     1      21.450  -4.026  -0.718  1.00  0.00    -0.333 N
HETATM   11  C15 UNL     1      21.226  -4.958   0.227  1.00  0.00     0.116 A
HETATM   12  S1  UNL     1      20.511  -4.546   1.663  1.00  0.00    -0.059 SA
HETATM   13  N4  UNL     1      22.565  -8.016  -1.389  1.00  0.00    -0.371 N
ATOM     14  H4  UNL     1      23.287  -8.232  -2.076  1.00  0.00     0.161 HD
ENDROOT
BRANCH  10  15
HETATM   15  C8  UNL     1      21.064  -2.668  -0.482  1.00  0.00     0.135 C
BRANCH  15  16
HETATM   16  C9  UNL     1      20.033  -2.138  -1.452  1.00  0.00     0.004 C
HETATM   17  C10 UNL     1      20.165  -0.635  -1.454  1.00  0.00     0.006 C
HETATM   18  C11 UNL     1      18.828   0.038  -1.195  1.00  0.00     0.000 C
HETATM   19  C12 UNL     1      17.924  -0.500  -2.291  1.00  0.00     0.000 C
HETATM   20  C13 UNL     1      17.546  -1.894  -1.847  1.00  0.00     0.000 C
HETATM   21  C14 UNL     1      18.662  -2.643  -1.198  1.00  0.00     0.006 C
ENDBRANCH  15  16
ENDBRANCH  10  15
BRANCH   4  22
HETATM   22  N1  UNL     1      22.610  -7.512   1.762  1.00  0.00    -0.071 N
ATOM     23  H13 UNL     1      22.863  -8.499   1.826  1.00  0.00     0.275 HD
ATOM     24  H12 UNL     1      23.410  -7.183   1.220  1.00  0.00     0.275 HD
ATOM     25  H11 UNL     1      22.571  -7.072   2.681  1.00  0.00     0.275 HD
ENDBRANCH   4  22
TORSDOF 3
ENDMDL