MODEL 1
REMARK VINA RESULT: -5.323054338      0.000      0.000
REMARK  4 active torsions:
REMARK  status: ('A' for Active; 'I' for Inactive)
REMARK    1  A    between atoms: C2_2  and  C10_23
REMARK    2  A    between atoms: N1_3  and  N2_5
REMARK    3  A    between atoms: C3_6  and  C4_7
REMARK    4  A    between atoms: C5_9  and  N3_10
ROOT
HETATM    1  N2  UNL     1      20.914  -6.452   1.462  1.00  0.00    -0.216 N
HETATM    2  C3  UNL     1      20.349  -5.225   1.681  1.00  0.00     0.102 A
HETATM    3  C8  UNL     1      19.627  -5.387   2.812  1.00  0.00     0.179 A
HETATM    4  O1  UNL     1      19.753  -6.650   3.247  1.00  0.00    -0.288 OA
HETATM    5  C9  UNL     1      20.535  -7.300   2.430  1.00  0.00     0.244 A
HETATM    6  N5  UNL     1      20.902  -8.559   2.515  1.00  0.00    -0.363 N
ATOM      7  H51 UNL     1      20.614  -9.203   3.250  1.00  0.00     0.159 HD
ATOM      8  H52 UNL     1      21.513  -9.067   1.876  1.00  0.00     0.159 HD
ENDROOT
BRANCH   2   9
HETATM    9  C4  UNL     1      20.574  -4.092   0.800  1.00  0.00     0.061 A
HETATM   10  S1  UNL     1      19.574  -3.589  -0.529  1.00  0.00    -0.050 SA
HETATM   11  C5  UNL     1      20.474  -2.246  -1.033  1.00  0.00     0.143 A
HETATM   12  N4  UNL     1      21.491  -2.229  -0.180  1.00  0.00    -0.340 N
HETATM   13  C6  UNL     1      21.560  -3.152   0.753  1.00  0.00     0.027 A
ATOM     14  H4  UNL     1      22.210  -1.509  -0.248  1.00  0.00     0.168 HD
HETATM   15  C7  UNL     1      22.711  -3.186   1.765  1.00  0.00     0.070 C
BRANCH  11  16
HETATM   16  N3  UNL     1      20.256  -1.399  -2.021  1.00  0.00    -0.380 N
ATOM     17  H32 UNL     1      19.769  -1.592  -2.896  1.00  0.00     0.158 HD
ATOM     18  H31 UNL     1      20.517  -0.417  -2.114  1.00  0.00     0.158 HD
ENDBRANCH  11  16
ENDBRANCH   2   9
BRANCH   1  19
HETATM   19  N1  UNL     1      21.748  -6.779   0.410  1.00  0.00    -0.298 N
HETATM   20  C2  UNL     1      21.344  -7.376  -0.665  1.00  0.00     0.008 C
HETATM   21  C1  UNL     1      19.919  -7.741  -0.809  1.00  0.00     0.066 C
ATOM     22  H1  UNL     1      22.737  -6.538   0.484  1.00  0.00     0.187 HD
BRANCH  20  23
HETATM   23  C10 UNL     1      22.263  -7.715  -1.780  1.00  0.00    -0.012 C
HETATM   24  C11 UNL     1      22.690  -6.473  -2.513  1.00  0.00     0.021 C
HETATM   25  C12 UNL     1      23.522  -8.299  -1.127  1.00  0.00     0.021 C
HETATM   26  C13 UNL     1      21.666  -8.752  -2.692  1.00  0.00     0.021 C
ENDBRANCH  20  23
ENDBRANCH   1  19
TORSDOF 4
ENDMDL