MODEL 1
REMARK VINA RESULT: -7.070452686      0.000      0.000
REMARK  2 active torsions:
REMARK  status: ('A' for Active; 'I' for Inactive)
REMARK    1  A    between atoms: C3_6  and  N2_7
REMARK    2  A    between atoms: C5_13  and  C6_14
ROOT
HETATM    1  N2  UNL     1      12.156 -14.711 -37.832  1.00  0.00    -0.126 N
ATOM      2  H2  UNL     1      11.636 -14.748 -38.709  1.00  0.00     0.197 HD
HETATM    3  C4  UNL     1      13.486 -14.276 -37.826  1.00  0.00     0.196 C
HETATM    4  N3  UNL     1      14.602 -13.901 -37.838  1.00  0.00    -0.171 NA
ENDROOT
BRANCH   1   5
HETATM    5  C3  UNL     1      11.522 -15.107 -36.610  1.00  0.00     0.693 C
HETATM    6  N1  UNL     1      10.752 -16.139 -36.686  1.00  0.00    -0.164 N
HETATM    7  S1  UNL     1       9.955 -16.662 -35.221  1.00  0.00    -0.032 SA
ATOM      8  H1  UNL     1      10.612 -16.631 -37.569  1.00  0.00     0.192 HD
HETATM    9  C2  UNL     1      10.798 -15.971 -33.785  1.00  0.00     0.094 C
HETATM   10  C1  UNL     1       9.727 -15.527 -32.806  1.00  0.00     0.026 C
HETATM   11  C5  UNL     1      11.807 -14.933 -34.093  1.00  0.00     0.164 C
HETATM   12  N4  UNL     1      11.752 -14.385 -35.414  1.00  0.00    -0.214 N
ATOM     13  H4  UNL     1      11.891 -13.378 -35.504  1.00  0.00     0.178 HD
BRANCH  11  14
HETATM   14  C6  UNL     1      11.637 -13.825 -33.117  1.00  0.00     0.035 A
HETATM   15  C7  UNL     1      11.877 -13.871 -31.738  1.00  0.00     0.041 A
HETATM   16  C8  UNL     1      11.602 -12.647 -31.180  1.00  0.00    -0.007 A
HETATM   17  C9  UNL     1      11.688 -12.223 -29.885  1.00  0.00     0.014 A
HETATM   18  C13 UNL     1      11.191 -11.856 -32.237  1.00  0.00     0.042 A
HETATM   19  C10 UNL     1      11.337 -10.901 -29.615  1.00  0.00     0.001 A
HETATM   20  C11 UNL     1      10.918 -10.070 -30.649  1.00  0.00     0.002 A
HETATM   21  C12 UNL     1      10.852 -10.551 -31.930  1.00  0.00     0.030 A
HETATM   22  N5  UNL     1      11.221 -12.580 -33.382  1.00  0.00    -0.357 N
ATOM     23  H5  UNL     1      10.964 -12.230 -34.306  1.00  0.00     0.166 HD
ENDBRANCH  11  14
ENDBRANCH   1   5
TORSDOF 2
ENDMDL