MODEL 4
REMARK VINA RESULT: -5.901392078      2.621      6.268
REMARK  4 active torsions:
REMARK  status: ('A' for Active; 'I' for Inactive)
REMARK    1  A    between atoms: C6_8  and  N2_9
REMARK    2  A    between atoms: N2_9  and  C7_11
REMARK    3  A    between atoms: N3_13  and  O1_15
REMARK    4  A    between atoms: C8_17  and  N4_18
ROOT
HETATM    1  C1  UNL     1      11.404 -14.782 -35.575  1.00  0.00     0.068 C
HETATM    2  C2  UNL     1      11.586 -14.538 -34.116  1.00  0.00     0.012 A
HETATM    3  N1  UNL     1      11.488 -13.318 -33.559  1.00  0.00    -0.357 N
ATOM      4  H1  UNL     1      11.280 -12.520 -34.160  1.00  0.00     0.166 HD
HETATM    5  C3  UNL     1      11.652 -13.110 -32.247  1.00  0.00     0.075 A
HETATM    6  C4  UNL     1      11.545 -11.826 -31.695  1.00  0.00    -0.001 A
HETATM    7  C5  UNL     1      11.245 -10.695 -32.575  1.00  0.00     0.053 C
HETATM    8  C6  UNL     1      11.724 -11.680 -30.345  1.00  0.00     0.094 A
HETATM    9  C8  UNL     1      12.001 -12.793 -29.596  1.00  0.00     0.169 A
HETATM   10  O2  UNL     1      12.096 -13.998 -30.160  1.00  0.00    -0.289 OA
HETATM   11  C9  UNL     1      11.932 -14.186 -31.444  1.00  0.00     0.111 A
HETATM   12  C10 UNL     1      12.045 -15.472 -31.967  1.00  0.00    -0.018 A
HETATM   13  C11 UNL     1      12.347 -16.644 -31.110  1.00  0.00     0.052 C
HETATM   14  C12 UNL     1      11.868 -15.642 -33.318  1.00  0.00    -0.031 A
HETATM   15  C13 UNL     1      11.978 -16.989 -33.921  1.00  0.00     0.051 C
ENDROOT
BRANCH   8  16
HETATM   16  N2  UNL     1      11.623 -10.406 -29.760  1.00  0.00    -0.331 N
ATOM     17  H2  UNL     1      12.422  -9.776 -29.841  1.00  0.00     0.168 HD
BRANCH  16  18
HETATM   18  C7  UNL     1      10.481  -9.944 -29.066  1.00  0.00     0.175 C
HETATM   19  S1  UNL     1       9.005  -9.457 -29.926  1.00  0.00    -0.011 SA
HETATM   20  N3  UNL     1      10.505  -9.873 -27.795  1.00  0.00    -0.246 N
ATOM     21  H3  UNL     1       9.687  -9.541 -27.284  1.00  0.00     0.196 HD
BRANCH  20  22
HETATM   22  O1  UNL     1      11.636 -10.245 -27.120  1.00  0.00    -0.288 OA
ATOM     23  H1  UNL     1      11.558 -10.749 -26.319  1.00  0.00     0.244 HD
ENDBRANCH  20  22
ENDBRANCH  16  18
ENDBRANCH   8  16
BRANCH   9  24
HETATM   24  N4  UNL     1      12.178 -12.717 -28.339  1.00  0.00    -0.378 N
ATOM     25  H42 UNL     1      12.975 -13.215 -27.943  1.00  0.00     0.158 HD
ATOM     26  H41 UNL     1      11.546 -12.176 -27.746  1.00  0.00     0.158 HD
ENDBRANCH   9  24
TORSDOF 4
ENDMDL