MODEL 4
REMARK VINA RESULT: -4.687432663      2.436      3.531
REMARK  2 active torsions:
REMARK  status: ('A' for Active; 'I' for Inactive)
REMARK    1  A    between atoms: O1_1  and  C1_3
REMARK    2  A    between atoms: N3_15  and  C7_16
ROOT
HETATM    1  C1  UNL     1      11.581 -13.044 -32.708  1.00  0.00     0.145 A
HETATM    2  C2  UNL     1      11.092 -11.780 -32.401  1.00  0.00     0.088 A
HETATM    3  C3  UNL     1      11.246 -11.634 -31.060  1.00  0.00     0.068 A
HETATM    4  N1  UNL     1      10.945 -10.617 -30.243  1.00  0.00    -0.331 N
ATOM      5  H1  UNL     1      10.522  -9.765 -30.611  1.00  0.00     0.168 HD
HETATM    6  C4  UNL     1      11.206 -10.737 -28.935  1.00  0.00     0.177 A
HETATM    7  S1  UNL     1      10.835  -9.480 -27.926  1.00  0.00    -0.040 SA
HETATM    8  N2  UNL     1      11.756 -11.848 -28.454  1.00  0.00    -0.322 N
ATOM      9  H2  UNL     1      11.940 -11.901 -27.452  1.00  0.00     0.169 HD
HETATM   10  C5  UNL     1      12.087 -12.919 -29.227  1.00  0.00     0.132 A
HETATM   11  S2  UNL     1      12.754 -14.236 -28.557  1.00  0.00    -0.058 SA
HETATM   12  C6  UNL     1      11.823 -12.807 -30.572  1.00  0.00     0.102 A
HETATM   13  N3  UNL     1      12.025 -13.674 -31.605  1.00  0.00    -0.318 N
ENDROOT
BRANCH  13  14
HETATM   14  C7  UNL     1      12.599 -15.007 -31.561  1.00  0.00     0.096 C
HETATM   15  C8  UNL     1      14.076 -14.942 -32.036  1.00  0.00     0.052 C
HETATM   16  C9  UNL     1      14.665 -16.305 -31.631  1.00  0.00     0.169 C
HETATM   17  O2  UNL     1      13.897 -17.319 -32.142  1.00  0.00    -0.391 OA
HETATM   18  C10 UNL     1      12.966 -16.954 -33.091  1.00  0.00     0.169 C
HETATM   19  C11 UNL     1      11.968 -15.933 -32.582  1.00  0.00     0.052 C
ENDBRANCH  13  14
BRANCH   1  20
HETATM   20  O1  UNL     1      11.557 -13.489 -34.028  1.00  0.00    -0.346 OA
ATOM     21  H1  UNL     1      12.020 -14.284 -34.263  1.00  0.00     0.219 HD
ENDBRANCH   1  20
TORSDOF 2
ENDMDL