MODEL 3
REMARK VINA RESULT: -5.023852460      6.964      8.439
REMARK  4 active torsions:
REMARK  status: ('A' for Active; 'I' for Inactive)
REMARK    1  A    between atoms: N1_6  and  O1_8
REMARK    2  A    between atoms: C8_12  and  O2_13
REMARK    3  A    between atoms: O2_13  and  O3_14
REMARK    4  A    between atoms: C14_21  and  O4_22
ROOT
HETATM    1  C1  UNL     1      17.659 -15.765 -24.891  1.00  0.00     0.016 C
HETATM    2  C2  UNL     1      17.313 -15.423 -26.349  1.00  0.00    -0.032 C
HETATM    3  C3  UNL     1      18.650 -14.966 -26.959  1.00  0.00     0.015 C
HETATM    4  C4  UNL     1      18.934 -13.727 -26.164  1.00  0.00     0.056 C
HETATM    5  C5  UNL     1      17.593 -13.183 -25.845  1.00  0.00     0.015 C
HETATM    6  N1  UNL     1      17.385 -12.067 -25.252  1.00  0.00    -0.277 N
ATOM      7  H1  UNL     1      16.432 -11.755 -25.064  1.00  0.00     0.193 HD
HETATM    8  C6  UNL     1      16.549 -14.162 -26.335  1.00  0.00     0.044 C
HETATM    9  C7  UNL     1      15.425 -14.106 -25.342  1.00  0.00     0.051 C
HETATM   10  C8  UNL     1      14.434 -15.229 -25.544  1.00  0.00     0.192 C
HETATM   11  C9  UNL     1      14.494 -15.572 -27.001  1.00  0.00    -0.018 C
HETATM   12  C10 UNL     1      13.571 -14.935 -27.693  1.00  0.00    -0.018 C
HETATM   13  C11 UNL     1      13.353 -15.044 -29.147  1.00  0.00     0.027 C
HETATM   14  C12 UNL     1      14.113 -16.239 -29.706  1.00  0.00     0.007 C
HETATM   15  C13 UNL     1      15.513 -16.151 -29.125  1.00  0.00     0.043 C
HETATM   16  C14 UNL     1      15.419 -16.485 -27.652  1.00  0.00     0.084 C
HETATM   17  C15 UNL     1      16.776 -16.576 -27.060  1.00  0.00     0.052 C
ENDROOT
BRANCH   6  18
HETATM   18  O1  UNL     1      18.447 -11.298 -24.873  1.00  0.00    -0.290 OA
ATOM     19  H1  UNL     1      18.661 -11.216 -23.952  1.00  0.00     0.244 HD
ENDBRANCH   6  18
BRANCH  10  20
HETATM   20  O2  UNL     1      13.143 -14.824 -25.205  1.00  0.00    -0.233 OA
BRANCH  20  21
HETATM   21  O3  UNL     1      13.189 -13.696 -24.540  1.00  0.00    -0.250 OA
ATOM     22  H3  UNL     1      14.077 -13.525 -24.252  1.00  0.00     0.253 HD
ENDBRANCH  20  21
ENDBRANCH  10  20
BRANCH  16  23
HETATM   23  O4  UNL     1      14.822 -17.771 -27.609  1.00  0.00    -0.385 OA
ATOM     24  H4  UNL     1      15.431 -18.369 -28.024  1.00  0.00     0.211 HD
ENDBRANCH  16  23
TORSDOF 4
ENDMDL