MODEL 5
REMARK VINA RESULT: -5.323835840      1.769      2.155
REMARK  3 active torsions:
REMARK  status: ('A' for Active; 'I' for Inactive)
REMARK    1  A    between atoms: C5_6  and  C6_7
REMARK    2  A    between atoms: C10_14  and  C11_15
REMARK    3  A    between atoms: C11_15  and  N3_16
ROOT
HETATM    1  N1  UNL     1      10.571  -9.363 -27.697  1.00  0.00    -0.191 NA
HETATM    2  C1  UNL     1      10.856 -10.118 -28.519  1.00  0.00     0.107 C
HETATM    3  C2  UNL     1      11.225 -11.086 -29.537  1.00  0.00     0.086 A
HETATM    4  C3  UNL     1      11.207 -10.917 -30.888  1.00  0.00     0.031 A
HETATM    5  C4  UNL     1      11.591 -11.951 -31.658  1.00  0.00     0.022 A
HETATM    6  C5  UNL     1      11.973 -13.099 -31.024  1.00  0.00     0.019 A
HETATM    7  S2  UNL     1      11.779 -12.686 -29.372  1.00  0.00    -0.078 SA
ENDROOT
BRANCH   6   8
HETATM    8  C6  UNL     1      12.403 -14.417 -31.596  1.00  0.00     0.017 A
HETATM    9  C7  UNL     1      13.580 -14.963 -31.112  1.00  0.00     0.067 A
HETATM   10  S1  UNL     1      13.734 -16.414 -31.984  1.00  0.00    -0.081 SA
HETATM   11  C8  UNL     1      12.327 -16.312 -32.934  1.00  0.00     0.103 A
HETATM   12  C9  UNL     1      11.762 -15.118 -32.541  1.00  0.00     0.075 A
HETATM   13  N5  UNL     1      11.681 -17.166 -33.915  1.00  0.00    -0.337 N
HETATM   14  N2  UNL     1      10.565 -14.791 -33.306  1.00  0.00    -0.374 N
HETATM   15  C10 UNL     1       9.629 -15.846 -33.688  1.00  0.00     0.174 C
ATOM     16  H2  UNL     1      10.380 -13.825 -33.576  1.00  0.00     0.160 HD
HETATM   17  C12 UNL     1      10.435 -16.825 -34.516  1.00  0.00     0.100 C
HETATM   18  N4  UNL     1      10.056 -17.300 -35.625  1.00  0.00    -0.387 N
ATOM     19  H42 UNL     1       9.164 -17.056 -36.055  1.00  0.00     0.157 HD
ATOM     20  H41 UNL     1      10.599 -17.960 -36.182  1.00  0.00     0.157 HD
ATOM     21  H5  UNL     1      12.134 -18.040 -34.182  1.00  0.00     0.168 HD
BRANCH  15  22
HETATM   22  C11 UNL     1       9.152 -16.618 -32.481  1.00  0.00     0.262 C
BRANCH  22  23
HETATM   23  N3  UNL     1       7.935 -17.343 -32.761  1.00  0.00    -0.077 N
ATOM     24  H33 UNL     1       7.217 -16.730 -33.148  1.00  0.00     0.274 HD
ATOM     25  H32 UNL     1       8.051 -17.973 -33.554  1.00  0.00     0.274 HD
ATOM     26  H31 UNL     1       7.596 -17.839 -31.937  1.00  0.00     0.274 HD
ENDBRANCH  22  23
ENDBRANCH  15  22
ENDBRANCH   6   8
TORSDOF 3
ENDMDL