MODEL 5
REMARK VINA RESULT: -5.867385986      2.454      7.136
REMARK  2 active torsions:
REMARK  status: ('A' for Active; 'I' for Inactive)
REMARK    1  A    between atoms: C3_6  and  C4_7
REMARK    2  A    between atoms: C8_15  and  N5_16
ROOT
HETATM    1  C4  UNL     1      12.516 -14.080 -31.531  1.00  0.00     0.068 C
HETATM    2  C5  UNL     1      12.071 -13.071 -30.818  1.00  0.00     0.078 A
HETATM    3  N3  UNL     1      11.364 -11.913 -31.208  1.00  0.00    -0.346 N
ATOM      4  H3  UNL     1      11.094 -11.752 -32.178  1.00  0.00     0.167 HD
HETATM    5  C6  UNL     1      11.056 -11.005 -30.210  1.00  0.00     0.107 A
HETATM    6  C7  UNL     1      11.456 -11.308 -28.938  1.00  0.00     0.122 A
HETATM    7  N4  UNL     1      11.251 -10.537 -27.871  1.00  0.00    -0.183 N
ATOM      8  H4  UNL     1      11.579 -10.831 -26.951  1.00  0.00     0.185 HD
HETATM    9  C8  UNL     1      10.611  -9.377 -28.018  1.00  0.00     0.677 A
HETATM   10  N6  UNL     1      10.192  -9.020 -29.234  1.00  0.00    -0.179 N
ATOM     11  H6  UNL     1       9.704  -8.131 -29.340  1.00  0.00     0.185 HD
HETATM   12  C9  UNL     1      10.383  -9.769 -30.310  1.00  0.00     0.146 A
HETATM   13  S1  UNL     1       9.832  -9.229 -31.749  1.00  0.00    -0.057 SA
HETATM   14  S2  UNL     1      12.263 -12.896 -29.045  1.00  0.00    -0.052 SA
ENDROOT
BRANCH   1  15
HETATM   15  C3  UNL     1      13.239 -15.214 -30.979  1.00  0.00     0.051 A
HETATM   16  N2  UNL     1      12.655 -16.334 -30.464  1.00  0.00    -0.351 N
HETATM   17  C2  UNL     1      13.588 -17.189 -30.018  1.00  0.00     0.182 A
ATOM     18  H2  UNL     1      11.649 -16.499 -30.424  1.00  0.00     0.166 HD
HETATM   19  N1  UNL     1      14.817 -16.640 -30.231  1.00  0.00    -0.355 N
HETATM   20  C1  UNL     1      16.100 -17.233 -29.887  1.00  0.00     0.156 C
HETATM   21  C10 UNL     1      14.593 -15.439 -30.817  1.00  0.00     0.120 A
ENDBRANCH   1  15
BRANCH   9  22
HETATM   22  N5  UNL     1      10.383  -8.578 -27.012  1.00  0.00    -0.234 N
ATOM     23  H52 UNL     1       9.618  -7.906 -27.081  1.00  0.00     0.174 HD
ATOM     24  H51 UNL     1      10.945  -8.602 -26.162  1.00  0.00     0.174 HD
ENDBRANCH   9  22
TORSDOF 2
ENDMDL