MODEL 5
REMARK VINA RESULT: -5.851528123      2.604      4.349
REMARK  4 active torsions:
REMARK  status: ('A' for Active; 'I' for Inactive)
REMARK    1  A    between atoms: N1_1  and  C1_4
REMARK    2  A    between atoms: C2_7  and  O1_8
REMARK    3  A    between atoms: C4_13  and  C5_14
REMARK    4  A    between atoms: N4_23  and  N5_24
ROOT
HETATM    1  C1  UNL     1      10.894 -10.386 -30.798  1.00  0.00     0.679 A
HETATM    2  N2  UNL     1      10.802 -10.853 -32.076  1.00  0.00    -0.168 N
ATOM      3  H2  UNL     1      10.402 -10.248 -32.794  1.00  0.00     0.186 HD
HETATM    4  C2  UNL     1      11.221 -12.078 -32.422  1.00  0.00     0.186 A
HETATM    5  C3  UNL     1      11.771 -12.932 -31.480  1.00  0.00     0.132 A
HETATM    6  N3  UNL     1      12.267 -14.163 -31.483  1.00  0.00    -0.338 N
ATOM      7  H3  UNL     1      12.333 -14.771 -32.300  1.00  0.00     0.167 HD
HETATM    8  C4  UNL     1      12.663 -14.480 -30.251  1.00  0.00     0.110 A
HETATM    9  N4  UNL     1      12.412 -13.428 -29.465  1.00  0.00    -0.231 N
HETATM   10  C14 UNL     1      11.857 -12.452 -30.200  1.00  0.00     0.174 A
HETATM   11  N6  UNL     1      11.419 -11.197 -29.889  1.00  0.00    -0.172 N
ATOM     12  H6  UNL     1      11.499 -10.871 -28.925  1.00  0.00     0.186 HD
ENDROOT
BRANCH   8  13
HETATM   13  C5  UNL     1      13.285 -15.744 -29.766  1.00  0.00     0.055 C
HETATM   14  C6  UNL     1      14.782 -15.757 -29.806  1.00  0.00     0.012 C
HETATM   15  C7  UNL     1      15.465 -15.487 -31.066  1.00  0.00     0.001 C
HETATM   16  C8  UNL     1      15.943 -16.646 -31.882  1.00  0.00     0.000 C
HETATM   17  C9  UNL     1      16.052 -17.958 -31.227  1.00  0.00     0.000 C
HETATM   18  C10 UNL     1      14.831 -18.791 -31.133  1.00  0.00     0.000 C
HETATM   19  C11 UNL     1      13.702 -18.466 -32.013  1.00  0.00     0.000 C
HETATM   20  C12 UNL     1      12.812 -17.339 -31.681  1.00  0.00     0.001 C
HETATM   21  C13 UNL     1      12.621 -16.990 -30.270  1.00  0.00     0.012 C
ENDBRANCH   8  13
BRANCH   9  22
HETATM   22  N5  UNL     1      12.668 -13.309 -28.072  1.00  0.00    -0.335 N
ATOM     23  H52 UNL     1      13.491 -13.704 -27.617  1.00  0.00     0.177 HD
ATOM     24  H51 UNL     1      12.094 -12.836 -27.374  1.00  0.00     0.177 HD
ENDBRANCH   9  22
BRANCH   4  25
HETATM   25  O1  UNL     1      11.116 -12.525 -33.722  1.00  0.00    -0.344 OA
ATOM     26  H1  UNL     1      10.269 -12.695 -34.115  1.00  0.00     0.219 HD
ENDBRANCH   4  25
BRANCH   1  27
HETATM   27  N1  UNL     1      10.489  -9.209 -30.485  1.00  0.00    -0.234 N
ATOM     28  H12 UNL     1      10.989  -8.377 -30.796  1.00  0.00     0.174 HD
ATOM     29  H11 UNL     1       9.653  -9.069 -29.917  1.00  0.00     0.174 HD
ENDBRANCH   1  27
TORSDOF 4
ENDMDL