MODEL 4
REMARK VINA RESULT: -6.443720838      5.629      6.559
REMARK  2 active torsions:
REMARK  status: ('A' for Active; 'I' for Inactive)
REMARK    1  A    between atoms: N2_10  and  N3_12
REMARK    2  A    between atoms: C9_18  and  C10_19
ROOT
HETATM    1  N3  UNL     1      12.336 -13.380 -28.712  1.00  0.00    -0.270 N
ATOM      2  H3  UNL     1      12.209 -13.856 -29.604  1.00  0.00     0.190 HD
HETATM    3  C8  UNL     1      13.099 -13.933 -27.833  1.00  0.00     0.207 C
HETATM    4  N4  UNL     1      13.401 -13.430 -26.538  1.00  0.00    -0.272 N
ATOM      5  H4  UNL     1      13.332 -12.464 -26.216  1.00  0.00     0.185 HD
HETATM    6  N5  UNL     1      13.811 -14.546 -25.798  1.00  0.00    -0.108 NA
HETATM    7  C9  UNL     1      14.651 -15.233 -26.784  1.00  0.00     0.233 C
HETATM    8  N6  UNL     1      13.824 -15.178 -27.940  1.00  0.00    -0.336 N
ATOM      9  H6  UNL     1      13.758 -15.870 -28.687  1.00  0.00     0.164 HD
ENDROOT
BRANCH   1  10
HETATM   10  N2  UNL     1      11.705 -12.223 -28.523  1.00  0.00    -0.296 N
HETATM   11  C7  UNL     1      11.241 -11.327 -29.255  1.00  0.00     0.074 A
HETATM   12  C2  UNL     1      11.287 -11.329 -30.699  1.00  0.00     0.051 A
HETATM   13  C6  UNL     1      10.592 -10.164 -28.565  1.00  0.00     0.041 A
HETATM   14  C1  UNL     1      11.827 -12.290 -31.396  1.00  0.00     0.045 C
HETATM   15  N1  UNL     1      10.692 -10.193 -31.381  1.00  0.00    -0.364 N
HETATM   16  C3  UNL     1      10.154  -9.234 -30.726  1.00  0.00     0.095 A
ATOM     17  H1  UNL     1      10.704 -10.158 -32.401  1.00  0.00     0.165 HD
HETATM   18  C4  UNL     1      10.090  -9.198 -29.281  1.00  0.00    -0.044 A
HETATM   19  C5  UNL     1       9.430  -8.016 -28.594  1.00  0.00     0.049 C
ATOM     20  H2  UNL     1      11.567 -12.019 -27.533  1.00  0.00     0.187 HD
ENDBRANCH   1  10
BRANCH   7  21
HETATM   21  C10 UNL     1      14.816 -16.693 -26.353  1.00  0.00    -0.011 A
HETATM   22  C11 UNL     1      13.971 -17.687 -26.729  1.00  0.00     0.018 A
HETATM   23  C12 UNL     1      14.239 -18.943 -26.267  1.00  0.00     0.050 A
HETATM   24  S1  UNL     1      15.638 -18.732 -25.329  1.00  0.00    -0.113 SA
HETATM   25  C13 UNL     1      15.859 -17.059 -25.539  1.00  0.00     0.060 A
ENDBRANCH   7  21
TORSDOF 2
ENDMDL