MODEL 3
REMARK VINA RESULT: -4.354253787      9.506     11.306
REMARK  4 active torsions:
REMARK  status: ('A' for Active; 'I' for Inactive)
REMARK    1  A    between atoms: C4_4  and  N1_5
REMARK    2  A    between atoms: C5_10  and  N3_11
REMARK    3  A    between atoms: C6_12  and  C7_13
REMARK    4  A    between atoms: C12_23  and  O1_24
ROOT
HETATM    1  C1  UNL     1      13.328 -14.889 -30.050  1.00  0.00     0.051 C
HETATM    2  C2  UNL     1      12.459 -14.520 -31.204  1.00  0.00    -0.021 A
HETATM    3  C3  UNL     1      12.084 -13.212 -31.337  1.00  0.00     0.057 A
HETATM    4  C4  UNL     1      11.275 -12.849 -32.423  1.00  0.00     0.100 A
HETATM    5  N2  UNL     1      10.907 -13.817 -33.286  1.00  0.00    -0.326 N
ATOM      6  H2  UNL     1      10.318 -13.539 -34.071  1.00  0.00     0.169 HD
HETATM    7  C5  UNL     1      11.247 -15.116 -33.206  1.00  0.00     0.151 A
HETATM    8  C12 UNL     1      12.041 -15.452 -32.130  1.00  0.00     0.116 A
ENDROOT
BRANCH   7   9
HETATM    9  N3  UNL     1      10.875 -16.057 -34.187  1.00  0.00    -0.257 N
HETATM   10  C6  UNL     1      11.402 -16.347 -35.335  1.00  0.00     0.114 A
HETATM   11  N4  UNL     1      10.657 -17.349 -35.907  1.00  0.00    -0.286 N
HETATM   12  N5  UNL     1       9.679 -17.663 -35.103  1.00  0.00    -0.274 N
ATOM     13  H4  UNL     1      10.840 -17.779 -36.814  1.00  0.00     0.188 HD
HETATM   14  C11 UNL     1       9.780 -16.888 -34.032  1.00  0.00     0.200 A
ATOM     15  H5  UNL     1       8.967 -18.374 -35.269  1.00  0.00     0.189 HD
HETATM   16  S1  UNL     1       8.818 -16.869 -32.721  1.00  0.00    -0.039 SA
BRANCH  10  17
HETATM   17  C7  UNL     1      12.551 -15.820 -36.053  1.00  0.00     0.009 C
HETATM   18  C8  UNL     1      12.755 -16.744 -37.277  1.00  0.00     0.023 C
HETATM   19  C9  UNL     1      13.836 -15.702 -35.353  1.00  0.00     0.023 C
HETATM   20  C10 UNL     1      12.219 -14.460 -36.691  1.00  0.00     0.023 C
ENDBRANCH  10  17
ENDBRANCH   7   9
BRANCH   8  21
HETATM   21  O1  UNL     1      12.430 -16.759 -31.975  1.00  0.00    -0.357 OA
ATOM     22  H1  UNL     1      12.822 -17.210 -32.714  1.00  0.00     0.218 HD
ENDBRANCH   8  21
BRANCH   4  23
HETATM   23  N1  UNL     1      10.946 -11.684 -32.561  1.00  0.00    -0.385 N
ATOM     24  H12 UNL     1      11.623 -10.928 -32.663  1.00  0.00     0.157 HD
ATOM     25  H11 UNL     1       9.955 -11.440 -32.565  1.00  0.00     0.157 HD
ENDBRANCH   4  23
TORSDOF 4
ENDMDL