MODEL 5
REMARK VINA RESULT: -4.694952102      2.417      3.187
REMARK  4 active torsions:
REMARK  status: ('A' for Active; 'I' for Inactive)
REMARK    1  A    between atoms: C2_2  and  O1_3
REMARK    2  A    between atoms: C6_11  and  O2_12
REMARK    3  A    between atoms: C8_15  and  C9_16
REMARK    4  A    between atoms: N2_22  and  O4_24
ROOT
HETATM    1  C1  UNL     1      15.168 -13.320 -22.702  1.00  0.00     0.047 C
HETATM    2  C2  UNL     1      13.900 -14.096 -23.045  1.00  0.00     0.066 C
HETATM    3  C3  UNL     1      13.293 -14.619 -21.792  1.00  0.00     0.044 C
HETATM    4  C4  UNL     1      13.654 -16.038 -21.454  1.00  0.00     0.058 C
HETATM    5  C5  UNL     1      14.777 -16.577 -22.225  1.00  0.00     0.015 C
HETATM    6  N1  UNL     1      15.671 -17.270 -21.661  1.00  0.00    -0.403 N
ATOM      7  H11 UNL     1      16.452 -17.645 -22.197  1.00  0.00     0.155 HD
ATOM      8  H12 UNL     1      15.603 -17.449 -20.659  1.00  0.00     0.155 HD
HETATM    9  C6  UNL     1      14.873 -16.318 -23.671  1.00  0.00     0.108 C
HETATM   10  C7  UNL     1      16.301 -16.133 -24.061  1.00  0.00     0.060 C
HETATM   11  C8  UNL     1      16.372 -14.953 -24.989  1.00  0.00     0.072 C
HETATM   12  C13 UNL     1      14.957 -14.495 -25.192  1.00  0.00     0.029 C
HETATM   13  N2  UNL     1      14.619 -13.721 -26.137  1.00  0.00    -0.276 N
ATOM     14  H2  UNL     1      15.368 -13.420 -26.762  1.00  0.00     0.193 HD
HETATM   15  C14 UNL     1      14.108 -15.103 -24.123  1.00  0.00     0.108 C
ENDROOT
BRANCH  11  16
HETATM   16  C9  UNL     1      16.938 -15.350 -26.317  1.00  0.00    -0.024 A
HETATM   17  C10 UNL     1      17.932 -14.696 -27.013  1.00  0.00     0.034 A
HETATM   18  C11 UNL     1      18.144 -15.408 -28.192  1.00  0.00     0.142 A
HETATM   19  O3  UNL     1      17.324 -16.432 -28.206  1.00  0.00    -0.334 OA
HETATM   20  C12 UNL     1      16.591 -16.426 -27.102  1.00  0.00     0.149 A
ENDBRANCH  11  16
BRANCH   9  21
HETATM   21  O2  UNL     1      14.380 -17.442 -24.359  1.00  0.00    -0.383 OA
ATOM     22  H2  UNL     1      14.937 -17.602 -25.113  1.00  0.00     0.211 HD
ENDBRANCH   9  21
BRANCH  13  23
HETATM   23  O4  UNL     1      13.382 -13.247 -26.415  1.00  0.00    -0.290 OA
ATOM     24  H4  UNL     1      13.151 -12.385 -26.741  1.00  0.00     0.244 HD
ENDBRANCH  13  23
BRANCH   2  25
HETATM   25  O1  UNL     1      13.004 -13.126 -23.554  1.00  0.00    -0.389 OA
ATOM     26  H1  UNL     1      12.680 -13.494 -24.368  1.00  0.00     0.210 HD
ENDBRANCH   2  25
TORSDOF 4
ENDMDL