MODEL 1
REMARK VINA RESULT: -6.933523094      0.000      0.000
REMARK  5 active torsions:
REMARK  status: ('A' for Active; 'I' for Inactive)
REMARK       I    between atoms: N2_3  and  C2_5
REMARK    1  A    between atoms: N4_7  and  C3_9
REMARK    2  A    between atoms: C3_9  and  C4_10
REMARK    3  A    between atoms: C4_10  and  N5_11
REMARK    4  A    between atoms: C4_10  and  C5_15
REMARK    5  A    between atoms: C5_15  and  C6_16
ROOT
HETATM    1  C4  UNL     1      15.786  20.701  64.944  1.00  0.00     0.205 C
ENDROOT
BRANCH   1   2
HETATM    2  C3  UNL     1      16.809  19.687  65.471  1.00  0.00     0.155 C
BRANCH   2   3
HETATM    3  N4  UNL     1      18.118  20.122  65.051  1.00  0.00    -0.362 N
HETATM    4  C2  UNL     1      19.109  19.341  64.922  1.00  0.00     0.188 C
HETATM    5  N2  UNL     1      20.363  19.855  64.503  1.00  0.00    -0.329 N
HETATM    6  N3  UNL     1      18.963  17.956  65.198  1.00  0.00    -0.064 NA
HETATM    7  C1  UNL     1      21.034  19.152  63.637  1.00  0.00     0.192 C
ATOM      8  H2  UNL     1      20.724  20.737  64.866  1.00  0.00     0.168 HD
HETATM    9  N1  UNL     1      22.281  19.675  63.227  1.00  0.00    -0.097 NA
ATOM     10  H4  UNL     1      18.254  21.112  64.847  1.00  0.00     0.162 HD
ENDBRANCH   2   3
ENDBRANCH   1   2
BRANCH   1  11
HETATM   11  N5  UNL     1      14.850  20.085  64.058  1.00  0.00    -0.073 N
ATOM     12  H53 UNL     1      15.266  19.896  63.147  1.00  0.00     0.274 HD
ATOM     13  H52 UNL     1      14.645  19.127  64.339  1.00  0.00     0.274 HD
ATOM     14  H51 UNL     1      13.998  20.640  63.972  1.00  0.00     0.274 HD
ENDBRANCH   1  11
BRANCH   1  15
HETATM   15  C5  UNL     1      16.578  21.811  64.292  1.00  0.00     0.072 C
BRANCH  15  16
HETATM   16  C6  UNL     1      16.636  23.029  65.127  1.00  0.00    -0.056 A
HETATM   17  C7  UNL     1      15.553  23.467  65.850  1.00  0.00     0.007 A
HETATM   18  C8  UNL     1      15.596  24.606  66.637  1.00  0.00     0.001 A
HETATM   19  C9  UNL     1      16.775  25.322  66.690  1.00  0.00     0.000 A
HETATM   20  C10 UNL     1      17.867  24.896  65.971  1.00  0.00     0.001 A
HETATM   21  C11 UNL     1      17.802  23.749  65.188  1.00  0.00     0.007 A
ENDBRANCH  15  16
ENDBRANCH   1  15
TORSDOF 5
ENDMDL