MODEL 3
REMARK VINA RESULT: -6.594442795      2.535      5.564
REMARK  6 active torsions:
REMARK  status: ('A' for Active; 'I' for Inactive)
REMARK    1  A    between atoms: N1_1  and  C1_4
REMARK    2  A    between atoms: C8_13  and  C9_14
REMARK    3  A    between atoms: C9_14  and  C10_15
REMARK    4  A    between atoms: C10_15  and  C11_16
REMARK    5  A    between atoms: C11_16  and  C12_17
REMARK    6  A    between atoms: C12_17  and  N3_18
ROOT
HETATM    1  C1  UNL     1      15.589  21.190  64.247  1.00  0.00     0.106 A
HETATM    2  N2  UNL     1      14.761  22.084  65.014  1.00  0.00    -0.342 N
ATOM      3  H2  UNL     1      13.757  21.994  65.171  1.00  0.00     0.167 HD
HETATM    4  C2  UNL     1      15.526  23.021  65.466  1.00  0.00     0.044 A
HETATM    5  C3  UNL     1      15.184  24.123  66.265  1.00  0.00     0.030 A
HETATM    6  C4  UNL     1      16.159  25.018  66.645  1.00  0.00     0.002 A
HETATM    7  C5  UNL     1      17.475  24.871  66.266  1.00  0.00     0.001 A
HETATM    8  C6  UNL     1      17.763  23.772  65.481  1.00  0.00     0.014 A
HETATM    9  C7  UNL     1      16.817  22.850  65.077  1.00  0.00     0.001 A
HETATM   10  C8  UNL     1      16.922  21.742  64.325  1.00  0.00    -0.002 A
ENDROOT
BRANCH  10  11
HETATM   11  C9  UNL     1      18.168  21.232  63.743  1.00  0.00     0.043 C
BRANCH  11  12
HETATM   12  C10 UNL     1      18.542  19.881  64.240  1.00  0.00     0.006 C
BRANCH  12  13
HETATM   13  C11 UNL     1      18.785  19.965  65.754  1.00  0.00     0.027 C
BRANCH  13  14
HETATM   14  C12 UNL     1      19.621  18.749  66.109  1.00  0.00     0.229 C
BRANCH  14  15
HETATM   15  N3  UNL     1      20.707  19.086  67.002  1.00  0.00    -0.079 N
ATOM     16  H33 UNL     1      20.363  19.534  67.851  1.00  0.00     0.274 HD
ATOM     17  H32 UNL     1      21.119  18.250  67.416  1.00  0.00     0.274 HD
ATOM     18  H31 UNL     1      21.414  19.659  66.540  1.00  0.00     0.274 HD
ENDBRANCH  14  15
ENDBRANCH  13  14
ENDBRANCH  12  13
ENDBRANCH  11  12
ENDBRANCH  10  11
BRANCH   1  19
HETATM   19  N1  UNL     1      15.201  20.129  63.624  1.00  0.00    -0.385 N
ATOM     20  H12 UNL     1      14.565  20.062  62.829  1.00  0.00     0.157 HD
ATOM     21  H11 UNL     1      15.471  19.169  63.835  1.00  0.00     0.157 HD
ENDBRANCH   1  19
TORSDOF 6
ENDMDL