MODEL 3
REMARK VINA RESULT: -7.333785672      2.494      2.997
REMARK  5 active torsions:
REMARK  status: ('A' for Active; 'I' for Inactive)
REMARK    1  A    between atoms: N1_1  and  C1_4
REMARK    2  A    between atoms: C4_7  and  C5_8
REMARK    3  A    between atoms: C6_9  and  C7_10
REMARK    4  A    between atoms: C7_10  and  N2_11
REMARK    5  A    between atoms: C10_14  and  O1_15
ROOT
HETATM    1  C5  UNL     1      17.698  23.397  65.360  1.00  0.00     0.010 C
HETATM    2  C6  UNL     1      18.165  22.987  64.211  1.00  0.00    -0.004 C
ENDROOT
BRANCH   1   3
HETATM    3  C4  UNL     1      17.825  24.760  65.784  1.00  0.00    -0.021 A
HETATM    4  C3  UNL     1      16.819  25.366  66.490  1.00  0.00     0.016 A
HETATM    5  C2  UNL     1      16.957  26.691  66.895  1.00  0.00     0.049 A
HETATM    6  C1  UNL     1      18.120  27.339  66.560  1.00  0.00     0.098 A
HETATM    7  N4  UNL     1      19.105  26.743  65.867  1.00  0.00    -0.352 N
HETATM    8  C11 UNL     1      18.992  25.470  65.468  1.00  0.00     0.101 A
ATOM      9  H4  UNL     1      19.950  27.267  65.642  1.00  0.00     0.166 HD
BRANCH   6  10
HETATM   10  N1  UNL     1      18.213  28.583  66.958  1.00  0.00    -0.385 N
ATOM     11  H12 UNL     1      18.379  28.823  67.935  1.00  0.00     0.157 HD
ATOM     12  H11 UNL     1      18.110  29.290  66.230  1.00  0.00     0.157 HD
ENDBRANCH   6  10
ENDBRANCH   1   3
BRANCH   2  13
HETATM   13  C7  UNL     1      18.026  21.544  63.773  1.00  0.00     0.175 C
BRANCH  13  14
HETATM   14  N2  UNL     1      16.602  21.263  63.798  1.00  0.00    -0.298 N
HETATM   15  C8  UNL     1      15.963  20.504  64.692  1.00  0.00     0.114 A
HETATM   16  C9  UNL     1      14.635  20.519  64.329  1.00  0.00     0.076 A
HETATM   17  C10 UNL     1      14.530  21.317  63.192  1.00  0.00     0.156 A
HETATM   18  N3  UNL     1      15.759  21.749  62.905  1.00  0.00    -0.278 N
ATOM     19  H3  UNL     1      16.008  22.356  62.124  1.00  0.00     0.189 HD
BRANCH  17  20
HETATM   20  O1  UNL     1      13.375  21.614  62.480  1.00  0.00    -0.345 OA
ATOM     21  H1  UNL     1      12.496  21.300  62.656  1.00  0.00     0.219 HD
ENDBRANCH  17  20
ENDBRANCH  13  14
ENDBRANCH   2  13
TORSDOF 5
ENDMDL