MODEL 1
REMARK VINA RESULT: -5.823391348      0.000      0.000
REMARK  5 active torsions:
REMARK  status: ('A' for Active; 'I' for Inactive)
REMARK    1  A    between atoms: C2_2  and  C3_3
REMARK    2  A    between atoms: C3_3  and  N1_4
REMARK    3  A    between atoms: C5_6  and  C6_7
REMARK    4  A    between atoms: C8_11  and  N3_12
REMARK    5  A    between atoms: C9_17  and  N5_18
ROOT
HETATM    1  C6  UNL     1      16.811  23.124  65.295  1.00  0.00     0.054 A
HETATM    2  C7  UNL     1      17.319  24.159  66.030  1.00  0.00     0.123 A
HETATM    3  N2  UNL     1      16.482  24.927  66.783  1.00  0.00    -0.201 N
ATOM      4  H2  UNL     1      16.881  25.695  67.324  1.00  0.00     0.183 HD
HETATM    5  C8  UNL     1      15.166  24.721  66.847  1.00  0.00     0.678 A
HETATM    6  N4  UNL     1      14.667  23.723  66.142  1.00  0.00    -0.164 N
ATOM      7  H4  UNL     1      13.660  23.566  66.192  1.00  0.00     0.187 HD
HETATM    8  C9  UNL     1      15.409  22.873  65.340  1.00  0.00     0.204 A
ENDROOT
BRANCH   1   9
HETATM    9  C5  UNL     1      17.603  22.257  64.469  1.00  0.00     0.102 C
HETATM   10  N1  UNL     1      18.183  21.158  64.696  1.00  0.00    -0.393 N
HETATM   11  C4  UNL     1      18.276  20.348  65.878  1.00  0.00     0.148 C
BRANCH  10  12
HETATM   12  C3  UNL     1      18.913  20.580  63.540  1.00  0.00     0.121 C
BRANCH  12  13
HETATM   13  C2  UNL     1      19.593  19.304  63.937  1.00  0.00     0.015 C
HETATM   14  C1  UNL     1      21.015  19.296  63.389  1.00  0.00     0.006 C
ENDBRANCH  12  13
ENDBRANCH  10  12
ENDBRANCH   1   9
BRANCH   8  15
HETATM   15  N5  UNL     1      14.890  21.992  64.728  1.00  0.00    -0.410 NA
HETATM   16  C10 UNL     1      14.114  21.037  64.211  1.00  0.00     0.231 C
ENDBRANCH   8  15
BRANCH   5  17
HETATM   17  N3  UNL     1      14.402  25.481  67.581  1.00  0.00    -0.234 N
ATOM     18  H32 UNL     1      14.113  26.406  67.265  1.00  0.00     0.174 HD
ATOM     19  H31 UNL     1      14.071  25.168  68.494  1.00  0.00     0.174 HD
ENDBRANCH   5  17
TORSDOF 5
ENDMDL