MODEL 2
REMARK VINA RESULT: -7.190840560      0.958      1.019
REMARK  5 active torsions:
REMARK  status: ('A' for Active; 'I' for Inactive)
REMARK    1  A    between atoms: N1_1  and  C1_5
REMARK    2  A    between atoms: C1_5  and  C2_6
REMARK    3  A    between atoms: C2_6  and  C3_7
REMARK    4  A    between atoms: N2_10  and  C6_11
REMARK    5  A    between atoms: C6_11  and  C7_12
ROOT
HETATM    1  C3  UNL     1      17.988  25.967  65.919  1.00  0.00    -0.054 A
HETATM    2  C4  UNL     1      16.905  25.418  66.580  1.00  0.00     0.024 A
HETATM    3  C5  UNL     1      16.653  24.068  66.458  1.00  0.00     0.091 A
HETATM    4  N2  UNL     1      17.430  23.260  65.713  1.00  0.00    -0.361 N
HETATM    5  C10 UNL     1      18.486  23.782  65.065  1.00  0.00     0.091 A
HETATM    6  C11 UNL     1      18.780  25.133  65.156  1.00  0.00     0.024 A
ENDROOT
BRANCH   4   7
HETATM    7  C6  UNL     1      17.174  21.852  65.581  1.00  0.00     0.186 C
BRANCH   7   8
HETATM    8  C7  UNL     1      16.255  21.532  64.477  1.00  0.00     0.049 A
HETATM    9  C8  UNL     1      14.973  22.016  64.376  1.00  0.00     0.104 A
HETATM   10  C9  UNL     1      14.406  21.521  63.234  1.00  0.00     0.261 A
HETATM   11  O1  UNL     1      13.254  21.721  62.781  1.00  0.00    -0.267 OA
HETATM   12  N3  UNL     1      15.332  20.747  62.648  1.00  0.00    -0.266 N
HETATM   13  N4  UNL     1      16.431  20.758  63.395  1.00  0.00    -0.300 N
ATOM     14  H3  UNL     1      15.212  20.235  61.774  1.00  0.00     0.190 HD
ATOM     15  H4  UNL     1      17.288  20.250  63.176  1.00  0.00     0.186 HD
ENDBRANCH   7   8
ENDBRANCH   4   7
BRANCH   1  16
HETATM   16  C2  UNL     1      18.305  27.407  66.012  1.00  0.00     0.066 C
BRANCH  16  17
HETATM   17  C1  UNL     1      19.474  27.755  65.090  1.00  0.00     0.234 C
BRANCH  17  18
HETATM   18  N1  UNL     1      20.109  28.960  65.579  1.00  0.00    -0.079 N
ATOM     19  H13 UNL     1      19.765  29.799  65.111  1.00  0.00     0.274 HD
ATOM     20  H12 UNL     1      19.817  29.198  66.527  1.00  0.00     0.274 HD
ATOM     21  H11 UNL     1      21.120  28.854  65.498  1.00  0.00     0.274 HD
ENDBRANCH  17  18
ENDBRANCH  16  17
ENDBRANCH   1  16
TORSDOF 5
ENDMDL