MODEL 1
REMARK VINA RESULT: -6.647688176      0.000      0.000
REMARK  4 active torsions:
REMARK  status: ('A' for Active; 'I' for Inactive)
REMARK    1  A    between atoms: N2_6  and  C3_7
REMARK    2  A    between atoms: C3_7  and  C4_8
REMARK    3  A    between atoms: C4_8  and  C5_9
REMARK    4  A    between atoms: C5_9  and  C6_10
ROOT
HETATM    1  N1  UNL     1      18.082  19.766  68.097  1.00  0.00    -0.384 N
ATOM      2  H11 UNL     1      18.385  19.521  69.040  1.00  0.00     0.157 HD
ATOM      3  H12 UNL     1      17.130  20.101  67.954  1.00  0.00     0.157 HD
HETATM    4  C1  UNL     1      18.852  19.672  67.066  1.00  0.00     0.117 A
HETATM    5  C2  UNL     1      18.420  20.022  65.721  1.00  0.00     0.163 A
HETATM    6  N2  UNL     1      19.230  19.914  64.690  1.00  0.00    -0.275 N
HETATM    7  N5  UNL     1      20.512  19.451  64.970  1.00  0.00    -0.290 N
ATOM      8  H5  UNL     1      21.143  19.367  64.172  1.00  0.00     0.188 HD
HETATM    9  C9  UNL     1      20.991  19.121  66.096  1.00  0.00     0.199 A
HETATM   10  N6  UNL     1      20.184  19.205  67.267  1.00  0.00    -0.337 N
ATOM     11  H6  UNL     1      20.536  18.948  68.188  1.00  0.00     0.168 HD
ENDROOT
BRANCH   6  12
HETATM   12  C3  UNL     1      18.761  20.272  63.396  1.00  0.00     0.112 C
BRANCH  12  13
HETATM   13  C4  UNL     1      18.349  21.623  63.028  1.00  0.00    -0.002 C
BRANCH  13  14
HETATM   14  C5  UNL     1      17.033  21.910  62.442  1.00  0.00     0.087 C
BRANCH  14  15
HETATM   15  C6  UNL     1      15.798  21.690  63.186  1.00  0.00     0.029 A
HETATM   16  C7  UNL     1      15.618  22.242  64.470  1.00  0.00     0.114 A
HETATM   17  N3  UNL     1      14.392  21.925  64.887  1.00  0.00    -0.360 N
HETATM   18  C8  UNL     1      13.759  21.189  63.931  1.00  0.00     0.180 A
ATOM     19  H3  UNL     1      13.989  22.194  65.784  1.00  0.00     0.166 HD
HETATM   20  N4  UNL     1      14.641  21.085  62.957  1.00  0.00    -0.354 N
ATOM     21  H4  UNL     1      14.449  20.578  62.093  1.00  0.00     0.166 HD
ENDBRANCH  14  15
ENDBRANCH  13  14
ENDBRANCH  12  13
ENDBRANCH   6  12
TORSDOF 4
ENDMDL