MODEL 5
REMARK VINA RESULT: -6.963467193      2.323      3.506
REMARK  6 active torsions:
REMARK  status: ('A' for Active; 'I' for Inactive)
REMARK    1  A    between atoms: N1_1  and  C1_5
REMARK    2  A    between atoms: C1_5  and  C2_6
REMARK    3  A    between atoms: N2_10  and  C6_11
REMARK    4  A    between atoms: C6_11  and  C7_12
REMARK    5  A    between atoms: C8_13  and  C9_14
REMARK    6  A    between atoms: N5_18  and  O1_19
ROOT
HETATM    1  C2  UNL     1      16.257  26.029  67.275  1.00  0.00    -0.017 A
HETATM    2  C3  UNL     1      16.901  27.243  67.288  1.00  0.00     0.011 A
HETATM    3  C4  UNL     1      18.042  27.391  66.552  1.00  0.00     0.018 A
HETATM    4  C5  UNL     1      18.525  26.330  65.816  1.00  0.00     0.090 A
HETATM    5  N2  UNL     1      17.902  25.133  65.795  1.00  0.00    -0.362 N
HETATM    6  C10 UNL     1      16.778  24.995  66.523  1.00  0.00     0.099 A
ENDROOT
BRANCH   5   7
HETATM    7  C6  UNL     1      18.416  24.009  65.014  1.00  0.00     0.155 C
BRANCH   7   8
HETATM    8  C7  UNL     1      17.715  22.763  65.415  1.00  0.00    -0.003 C
HETATM    9  C8  UNL     1      17.979  21.587  64.930  1.00  0.00     0.051 C
BRANCH   9  10
HETATM   10  C9  UNL     1      17.244  20.418  65.378  1.00  0.00     0.162 A
HETATM   11  N3  UNL     1      17.390  19.487  66.366  1.00  0.00    -0.264 N
HETATM   12  N4  UNL     1      16.282  18.894  65.960  1.00  0.00     0.010 NA
ATOM     13  H3  UNL     1      18.071  19.320  67.108  1.00  0.00     0.186 HD
HETATM   14  N5  UNL     1      16.116  19.781  64.995  1.00  0.00    -0.129 N
BRANCH  14  15
HETATM   15  O1  UNL     1      15.157  19.939  64.022  1.00  0.00    -0.268 OA
ATOM     16  H1  UNL     1      14.260  19.658  63.881  1.00  0.00     0.246 HD
ENDBRANCH  14  15
ENDBRANCH   9  10
ENDBRANCH   7   8
ENDBRANCH   5   7
BRANCH   1  17
HETATM   17  C1  UNL     1      15.018  25.799  68.048  1.00  0.00     0.269 C
BRANCH  17  18
HETATM   18  N1  UNL     1      14.109  25.020  67.235  1.00  0.00    -0.075 N
ATOM     19  H13 UNL     1      13.130  25.245  67.415  1.00  0.00     0.274 HD
ATOM     20  H12 UNL     1      14.135  25.289  66.251  1.00  0.00     0.274 HD
ATOM     21  H11 UNL     1      14.316  24.031  67.376  1.00  0.00     0.274 HD
ENDBRANCH  17  18
ENDBRANCH   1  17
TORSDOF 6
ENDMDL