MODEL 4
REMARK VINA RESULT: -6.342443087      2.039      3.018
REMARK  7 active torsions:
REMARK  status: ('A' for Active; 'I' for Inactive)
REMARK    1  A    between atoms: N1_1  and  C1_5
REMARK    2  A    between atoms: C1_5  and  N2_6
REMARK    3  A    between atoms: C1_5  and  C2_10
REMARK    4  A    between atoms: N3_13  and  C5_14
REMARK    5  A    between atoms: C5_14  and  C6_15
REMARK    6  A    between atoms: C6_15  and  C7_16
REMARK    7  A    between atoms: C7_16  and  N4_17
ROOT
HETATM    1  C2  UNL     1      17.807  26.610  66.558  1.00  0.00     0.001 A
HETATM    2  C3  UNL     1      16.583  26.132  66.991  1.00  0.00     0.028 A
HETATM    3  C4  UNL     1      16.175  24.862  66.625  1.00  0.00     0.091 A
HETATM    4  N3  UNL     1      16.924  24.057  65.858  1.00  0.00    -0.366 N
HETATM    5  C11 UNL     1      18.113  24.511  65.433  1.00  0.00     0.091 A
HETATM    6  C12 UNL     1      18.578  25.767  65.761  1.00  0.00     0.028 A
ENDROOT
BRANCH   1   7
HETATM    7  C1  UNL     1      18.291  27.965  66.922  1.00  0.00     0.411 C
BRANCH   7   8
HETATM    8  N1  UNL     1      18.803  27.963  68.279  1.00  0.00    -0.046 N
ATOM      9  H13 UNL     1      19.822  27.974  68.313  1.00  0.00     0.277 HD
ATOM     10  H12 UNL     1      18.637  28.846  68.762  1.00  0.00     0.277 HD
ATOM     11  H11 UNL     1      18.403  27.165  68.773  1.00  0.00     0.277 HD
ENDBRANCH   7   8
BRANCH   7  12
HETATM   12  N2  UNL     1      19.365  28.355  66.026  1.00  0.00    -0.046 N
ATOM     13  H23 UNL     1      20.217  28.612  66.526  1.00  0.00     0.277 HD
ATOM     14  H22 UNL     1      19.744  27.566  65.502  1.00  0.00     0.277 HD
ATOM     15  H21 UNL     1      19.026  29.101  65.421  1.00  0.00     0.277 HD
ENDBRANCH   7  12
ENDBRANCH   1   7
BRANCH   4  16
HETATM   16  C5  UNL     1      16.494  22.727  65.478  1.00  0.00     0.129 C
BRANCH  16  17
HETATM   17  C6  UNL     1      17.126  22.406  64.153  1.00  0.00     0.040 C
BRANCH  17  18
HETATM   18  C7  UNL     1      16.867  20.978  63.720  1.00  0.00     0.131 C
BRANCH  18  19
HETATM   19  N4  UNL     1      17.805  20.064  64.334  1.00  0.00    -0.352 N
HETATM   20  C8  UNL     1      19.068  19.862  63.949  1.00  0.00     0.108 A
HETATM   21  C9  UNL     1      19.641  18.924  64.773  1.00  0.00     0.106 A
HETATM   22  N5  UNL     1      18.714  18.563  65.657  1.00  0.00    -0.361 N
HETATM   23  C10 UNL     1      17.604  19.255  65.388  1.00  0.00     0.182 A
ATOM     24  H5  UNL     1      18.830  17.879  66.405  1.00  0.00     0.166 HD
ENDBRANCH  18  19
ENDBRANCH  17  18
ENDBRANCH  16  17
ENDBRANCH   4  16
TORSDOF 7
ENDMDL