MODEL 2
REMARK VINA RESULT: -6.802235943      0.610      1.175
REMARK  2 active torsions:
REMARK  status: ('A' for Active; 'I' for Inactive)
REMARK       I    between atoms: N1_1  and  C1_5
REMARK       I    between atoms: C1_5  and  N2_6
REMARK       I    between atoms: C1_5  and  N3_10
REMARK    1  A    between atoms: C5_14  and  C6_15
REMARK    2  A    between atoms: C6_15  and  N4_16
ROOT
HETATM    1  N1  UNL     1      19.391  28.237  64.571  1.00  0.00    -0.032 N
ATOM      2  H11 UNL     1      18.974  28.715  65.370  1.00  0.00     0.279 HD
ATOM      3  H12 UNL     1      18.781  28.222  63.753  1.00  0.00     0.279 HD
ATOM      4  H13 UNL     1      20.161  28.759  64.153  1.00  0.00     0.279 HD
HETATM    5  C1  UNL     1      19.780  26.905  65.016  1.00  0.00     0.486 C
HETATM    6  N2  UNL     1      20.369  26.230  63.889  1.00  0.00    -0.032 N
ATOM      7  H21 UNL     1      20.642  25.298  64.200  1.00  0.00     0.279 HD
ATOM      8  H22 UNL     1      21.139  26.752  63.471  1.00  0.00     0.279 HD
ATOM      9  H23 UNL     1      19.760  26.215  63.071  1.00  0.00     0.279 HD
HETATM   10  N3  UNL     1      18.670  26.164  65.531  1.00  0.00    -0.316 N
HETATM   11  C2  UNL     1      17.666  26.786  66.194  1.00  0.00     0.094 A
HETATM   12  C3  UNL     1      16.596  26.080  66.691  1.00  0.00     0.018 A
HETATM   13  C4  UNL     1      16.490  24.715  66.542  1.00  0.00     0.011 A
HETATM   14  C5  UNL     1      17.519  24.088  65.864  1.00  0.00    -0.024 A
HETATM   15  C10 UNL     1      18.577  24.832  65.378  1.00  0.00     0.103 A
ENDROOT
BRANCH  14  16
HETATM   16  C6  UNL     1      17.444  22.629  65.682  1.00  0.00     0.169 C
BRANCH  16  17
HETATM   17  N4  UNL     1      17.049  22.232  64.367  1.00  0.00    -0.347 N
HETATM   18  C7  UNL     1      17.849  22.000  63.312  1.00  0.00     0.109 A
HETATM   19  C8  UNL     1      17.061  21.637  62.229  1.00  0.00     0.106 A
HETATM   20  N5  UNL     1      15.778  21.661  62.672  1.00  0.00    -0.361 N
HETATM   21  C9  UNL     1      15.785  22.021  63.961  1.00  0.00     0.182 A
ATOM     22  H5  UNL     1      14.951  21.443  62.117  1.00  0.00     0.166 HD
ENDBRANCH  16  17
ENDBRANCH  14  16
TORSDOF 2
ENDMDL