MODEL 1
REMARK VINA RESULT: -10.655360165      0.000      0.000
REMARK  3 active torsions:
REMARK  status: ('A' for Active; 'I' for Inactive)
REMARK    1  A    between atoms: C4_4  and  N1_5
REMARK    2  A    between atoms: N1_5  and  C5_7
REMARK    3  A    between atoms: C13_17  and  C14_18
ROOT
HETATM    1  C5  UNL     1     -11.553   2.488 -18.299  1.00  0.00     0.117 A
HETATM    2  N2  UNL     1     -10.824   1.358 -18.216  1.00  0.00    -0.341 N
ATOM      3  H2  UNL     1     -10.344   1.155 -17.340  1.00  0.00     0.167 HD
HETATM    4  C6  UNL     1     -10.697   0.489 -19.227  1.00  0.00     0.044 A
HETATM    5  C7  UNL     1      -9.942  -0.669 -19.126  1.00  0.00     0.030 A
HETATM    6  C8  UNL     1      -9.816  -1.561 -20.172  1.00  0.00     0.002 A
HETATM    7  C9  UNL     1     -10.452  -1.318 -21.376  1.00  0.00     0.001 A
HETATM    8  C10 UNL     1     -11.204  -0.177 -21.495  1.00  0.00     0.014 A
HETATM    9  C11 UNL     1     -11.326   0.708 -20.449  1.00  0.00    -0.009 A
HETATM   10  C12 UNL     1     -12.075   1.851 -20.561  1.00  0.00     0.029 A
HETATM   11  C13 UNL     1     -12.192   2.744 -19.490  1.00  0.00     0.019 A
ENDROOT
BRANCH   1  12
HETATM   12  N1  UNL     1     -11.681   3.315 -17.338  1.00  0.00    -0.342 N
ATOM     13  H1  UNL     1     -10.862   3.854 -17.058  1.00  0.00     0.167 HD
BRANCH  12  14
HETATM   14  C4  UNL     1     -12.893   3.533 -16.630  1.00  0.00     0.033 A
HETATM   15  C3  UNL     1     -13.698   2.510 -16.195  1.00  0.00     0.029 A
HETATM   16  C2  UNL     1     -14.855   2.774 -15.518  1.00  0.00     0.002 A
HETATM   17  C1  UNL     1     -15.221   4.082 -15.266  1.00  0.00     0.000 A
HETATM   18  C21 UNL     1     -14.431   5.109 -15.692  1.00  0.00     0.002 A
HETATM   19  C20 UNL     1     -13.271   4.831 -16.372  1.00  0.00     0.029 A
ENDBRANCH  12  14
ENDBRANCH   1  12
BRANCH  11  20
HETATM   20  C14 UNL     1     -13.008   3.918 -19.741  1.00  0.00    -0.022 A
HETATM   21  C15 UNL     1     -12.428   5.154 -20.011  1.00  0.00     0.012 A
HETATM   22  C16 UNL     1     -13.207   6.266 -20.241  1.00  0.00     0.001 A
HETATM   23  C17 UNL     1     -14.572   6.110 -20.196  1.00  0.00     0.000 A
HETATM   24  C18 UNL     1     -15.151   4.907 -19.933  1.00  0.00     0.001 A
HETATM   25  C19 UNL     1     -14.375   3.779 -19.699  1.00  0.00     0.012 A
ENDBRANCH  11  20
TORSDOF 3
ENDMDL