MODEL 2
REMARK VINA RESULT: -11.053504398      2.526      8.012
REMARK  3 active torsions:
REMARK  status: ('A' for Active; 'I' for Inactive)
REMARK    1  A    between atoms: C4_4  and  C5_5
REMARK    2  A    between atoms: C8_8  and  N1_9
REMARK    3  A    between atoms: N1_9  and  C9_11
ROOT
HETATM    1  N1  UNL     1      -9.962   1.075 -19.290  1.00  0.00    -0.355 N
ATOM      2  H1  UNL     1      -9.199   1.392 -19.889  1.00  0.00     0.166 HD
ENDROOT
BRANCH   1   3
HETATM    3  C8  UNL     1     -10.802   2.010 -18.627  1.00  0.00     0.032 A
HETATM    4  C7  UNL     1     -10.843   3.298 -19.125  1.00  0.00     0.030 A
HETATM    5  C6  UNL     1     -11.650   4.213 -18.493  1.00  0.00     0.014 A
HETATM    6  C5  UNL     1     -12.407   3.878 -17.392  1.00  0.00    -0.026 A
HETATM    7  C19 UNL     1     -12.329   2.571 -16.935  1.00  0.00     0.014 A
HETATM    8  C18 UNL     1     -11.536   1.622 -17.533  1.00  0.00     0.030 A
BRANCH   6   9
HETATM    9  C4  UNL     1     -13.270   4.844 -16.714  1.00  0.00    -0.026 A
HETATM   10  C3  UNL     1     -13.286   6.155 -17.095  1.00  0.00     0.012 A
HETATM   11  C2  UNL     1     -14.114   7.028 -16.427  1.00  0.00     0.001 A
HETATM   12  C1  UNL     1     -14.916   6.608 -15.394  1.00  0.00     0.000 A
HETATM   13  C21 UNL     1     -14.893   5.282 -15.017  1.00  0.00     0.001 A
HETATM   14  C20 UNL     1     -14.066   4.399 -15.681  1.00  0.00     0.012 A
ENDBRANCH   6   9
ENDBRANCH   1   3
BRANCH   1  15
HETATM   15  C9  UNL     1     -10.181  -0.167 -19.121  1.00  0.00     0.046 A
HETATM   16  C10 UNL     1      -9.637  -0.896 -18.078  1.00  0.00     0.047 A
HETATM   17  C11 UNL     1      -9.907  -2.240 -17.940  1.00  0.00     0.090 A
HETATM   18  N2  UNL     1     -10.712  -2.822 -18.848  1.00  0.00    -0.365 N
HETATM   19  C12 UNL     1     -11.255  -2.133 -19.875  1.00  0.00     0.044 A
ATOM     20  H2  UNL     1     -10.919  -3.817 -18.757  1.00  0.00     0.165 HD
HETATM   21  C13 UNL     1     -12.075  -2.763 -20.785  1.00  0.00     0.030 A
HETATM   22  C17 UNL     1     -11.015  -0.787 -20.055  1.00  0.00     0.017 A
HETATM   23  C14 UNL     1     -12.623  -2.041 -21.832  1.00  0.00     0.002 A
HETATM   24  C15 UNL     1     -12.388  -0.694 -22.019  1.00  0.00     0.001 A
HETATM   25  C16 UNL     1     -11.556  -0.059 -21.095  1.00  0.00     0.016 A
ENDBRANCH   1  15
TORSDOF 3
ENDMDL