MODEL 4
REMARK VINA RESULT: -10.671004611      2.115      7.885
REMARK  3 active torsions:
REMARK  status: ('A' for Active; 'I' for Inactive)
REMARK    1  A    between atoms: C4_4  and  C5_5
REMARK    2  A    between atoms: C8_8  and  N1_9
REMARK    3  A    between atoms: N1_9  and  C9_11
ROOT
HETATM    1  N1  UNL     1     -10.111   1.475 -19.152  1.00  0.00    -0.342 N
ATOM      2  H1  UNL     1      -9.130   1.410 -18.883  1.00  0.00     0.167 HD
ENDROOT
BRANCH   1   3
HETATM    3  C8  UNL     1     -10.946   2.427 -18.525  1.00  0.00     0.033 A
HETATM    4  C7  UNL     1     -11.748   1.976 -17.482  1.00  0.00     0.030 A
HETATM    5  C6  UNL     1     -12.585   2.852 -16.829  1.00  0.00     0.014 A
HETATM    6  C5  UNL     1     -12.663   4.191 -17.172  1.00  0.00    -0.026 A
HETATM    7  C19 UNL     1     -11.854   4.603 -18.210  1.00  0.00     0.014 A
HETATM    8  C18 UNL     1     -11.009   3.745 -18.879  1.00  0.00     0.030 A
BRANCH   6   9
HETATM    9  C4  UNL     1     -13.556   5.115 -16.473  1.00  0.00    -0.026 A
HETATM   10  C3  UNL     1     -13.659   6.437 -16.813  1.00  0.00     0.012 A
HETATM   11  C2  UNL     1     -14.499   7.336 -16.168  1.00  0.00     0.001 A
HETATM   12  C1  UNL     1     -15.250   6.819 -15.131  1.00  0.00     0.000 A
HETATM   13  C21 UNL     1     -15.169   5.498 -14.767  1.00  0.00     0.001 A
HETATM   14  C20 UNL     1     -14.325   4.637 -15.432  1.00  0.00     0.012 A
ENDBRANCH   6   9
ENDBRANCH   1   3
BRANCH   1  15
HETATM   15  C9  UNL     1     -10.577   0.692 -20.056  1.00  0.00     0.116 A
HETATM   16  N2  UNL     1     -10.888   1.160 -21.279  1.00  0.00    -0.352 N
HETATM   17  C10 UNL     1     -11.376   0.309 -22.210  1.00  0.00     0.090 A
ATOM     18  H2  UNL     1     -10.758   2.147 -21.501  1.00  0.00     0.166 HD
HETATM   19  C11 UNL     1     -11.541  -1.021 -21.882  1.00  0.00     0.029 A
HETATM   20  C12 UNL     1     -11.230  -1.522 -20.645  1.00  0.00    -0.021 A
HETATM   21  C13 UNL     1     -11.400  -2.869 -20.324  1.00  0.00     0.012 A
HETATM   22  C17 UNL     1     -10.734  -0.642 -19.704  1.00  0.00     0.018 A
HETATM   23  C14 UNL     1     -11.075  -3.327 -19.066  1.00  0.00     0.001 A
HETATM   24  C15 UNL     1     -10.574  -2.456 -18.108  1.00  0.00     0.001 A
HETATM   25  C16 UNL     1     -10.417  -1.119 -18.461  1.00  0.00     0.016 A
ENDBRANCH   1  15
TORSDOF 3
ENDMDL