MODEL 1
REMARK VINA RESULT: -10.714491130      0.000      0.000
REMARK  3 active torsions:
REMARK  status: ('A' for Active; 'I' for Inactive)
REMARK    1  A    between atoms: C1_1  and  C15_21
REMARK    2  A    between atoms: N1_2  and  N2_4
REMARK    3  A    between atoms: N2_4  and  C2_6
ROOT
HETATM    1  C2  UNL     1     -11.984   0.671 -18.305  1.00  0.00     0.131 A
HETATM    2  N3  UNL     1     -13.160   0.089 -18.139  1.00  0.00    -0.340 N
ATOM      3  H3  UNL     1     -13.722   0.283 -17.310  1.00  0.00     0.167 HD
HETATM    4  C3  UNL     1     -13.603  -0.763 -19.077  1.00  0.00     0.044 A
HETATM    5  C4  UNL     1     -14.840  -1.391 -18.928  1.00  0.00     0.030 A
HETATM    6  C5  UNL     1     -15.297  -2.264 -19.887  1.00  0.00     0.002 A
HETATM    7  C6  UNL     1     -14.527  -2.514 -20.995  1.00  0.00     0.001 A
HETATM    8  C7  UNL     1     -13.294  -1.902 -21.166  1.00  0.00     0.014 A
HETATM    9  C8  UNL     1     -12.846  -1.034 -20.206  1.00  0.00     0.002 A
HETATM   10  C9  UNL     1     -11.600  -0.422 -20.389  1.00  0.00    -0.010 A
HETATM   11  C10 UNL     1     -10.819  -0.668 -21.501  1.00  0.00     0.013 A
HETATM   12  C11 UNL     1      -9.608  -0.016 -21.588  1.00  0.00     0.001 A
HETATM   13  C12 UNL     1      -9.174   0.858 -20.608  1.00  0.00     0.001 A
HETATM   14  C13 UNL     1      -9.952   1.093 -19.515  1.00  0.00     0.016 A
HETATM   15  C14 UNL     1     -11.178   0.450 -19.399  1.00  0.00     0.020 A
ENDROOT
BRANCH   1  16
HETATM   16  N2  UNL     1     -11.524   1.498 -17.421  1.00  0.00    -0.285 N
ATOM     17  H2  UNL     1     -10.563   1.420 -17.085  1.00  0.00     0.188 HD
BRANCH  16  18
HETATM   18  N1  UNL     1     -12.364   2.491 -16.941  1.00  0.00    -0.309 N
HETATM   19  C1  UNL     1     -12.244   3.730 -17.204  1.00  0.00     0.118 C
ATOM     20  H1  UNL     1     -13.133   2.207 -16.335  1.00  0.00     0.186 HD
BRANCH  19  21
HETATM   21  C15 UNL     1     -13.189   4.691 -16.643  1.00  0.00    -0.019 A
HETATM   22  C16 UNL     1     -14.049   4.307 -15.637  1.00  0.00     0.013 A
HETATM   23  C17 UNL     1     -14.927   5.244 -15.133  1.00  0.00     0.001 A
HETATM   24  C18 UNL     1     -14.941   6.532 -15.628  1.00  0.00     0.000 A
HETATM   25  C19 UNL     1     -14.088   6.918 -16.628  1.00  0.00     0.001 A
HETATM   26  C20 UNL     1     -13.207   5.998 -17.141  1.00  0.00     0.013 A
ENDBRANCH  19  21
ENDBRANCH  16  18
ENDBRANCH   1  16
TORSDOF 3
ENDMDL