MODEL 4
REMARK VINA RESULT: -10.673903432      0.783      2.436
REMARK  3 active torsions:
REMARK  status: ('A' for Active; 'I' for Inactive)
REMARK    1  A    between atoms: C4_4  and  C5_5
REMARK    2  A    between atoms: C9_9  and  N1_10
REMARK    3  A    between atoms: N1_10  and  C10_12
ROOT
HETATM    1  N1  UNL     1     -11.193   0.466 -17.755  1.00  0.00    -0.355 N
ATOM      2  H1  UNL     1     -11.349   0.100 -16.816  1.00  0.00     0.166 HD
ENDROOT
BRANCH   1   3
HETATM    3  C9  UNL     1     -11.324   1.875 -17.999  1.00  0.00     0.033 A
HETATM    4  C8  UNL     1     -10.559   2.449 -18.991  1.00  0.00     0.029 A
HETATM    5  C7  UNL     1     -10.700   3.803 -19.210  1.00  0.00     0.003 A
HETATM    6  C6  UNL     1     -11.587   4.540 -18.449  1.00  0.00     0.012 A
HETATM    7  C5  UNL     1     -12.361   3.985 -17.454  1.00  0.00    -0.024 A
HETATM    8  C19 UNL     1     -12.212   2.630 -17.243  1.00  0.00     0.041 A
BRANCH   7   9
HETATM    9  C4  UNL     1     -13.280   4.820 -16.683  1.00  0.00    -0.026 A
HETATM   10  C3  UNL     1     -13.433   6.162 -16.915  1.00  0.00     0.012 A
HETATM   11  C2  UNL     1     -14.322   6.877 -16.144  1.00  0.00     0.001 A
HETATM   12  C1  UNL     1     -15.066   6.290 -15.143  1.00  0.00     0.000 A
HETATM   13  C21 UNL     1     -14.919   4.941 -14.899  1.00  0.00     0.001 A
HETATM   14  C20 UNL     1     -14.027   4.241 -15.681  1.00  0.00     0.012 A
ENDBRANCH   7   9
ENDBRANCH   1   3
BRANCH   1  15
HETATM   15  C10 UNL     1     -10.879  -0.341 -18.709  1.00  0.00     0.046 A
HETATM   16  C11 UNL     1      -9.578  -0.673 -18.979  1.00  0.00     0.047 A
HETATM   17  C12 UNL     1      -9.275  -1.549 -20.019  1.00  0.00     0.090 A
HETATM   18  N2  UNL     1     -10.256  -2.081 -20.775  1.00  0.00    -0.365 N
HETATM   19  C13 UNL     1     -11.522  -1.745 -20.498  1.00  0.00     0.044 A
ATOM     20  H2  UNL     1     -10.039  -2.723 -21.539  1.00  0.00     0.165 HD
HETATM   21  C14 UNL     1     -12.537  -2.288 -21.269  1.00  0.00     0.030 A
HETATM   22  C18 UNL     1     -11.876  -0.885 -19.483  1.00  0.00     0.017 A
HETATM   23  C15 UNL     1     -13.856  -1.991 -21.047  1.00  0.00     0.002 A
HETATM   24  C16 UNL     1     -14.186  -1.137 -20.036  1.00  0.00     0.001 A
HETATM   25  C17 UNL     1     -13.222  -0.582 -19.254  1.00  0.00     0.016 A
ENDBRANCH   1  15
TORSDOF 3
ENDMDL