MODEL 1
REMARK VINA RESULT: -10.202010500      0.000      0.000
REMARK  3 active torsions:
REMARK  status: ('A' for Active; 'I' for Inactive)
REMARK    1  A    between atoms: C4_4  and  N1_5
REMARK    2  A    between atoms: N1_5  and  C5_7
REMARK    3  A    between atoms: C7_9  and  C8_10
ROOT
HETATM    1  C5  UNL     1     -12.804   3.894 -18.712  1.00  0.00     0.047 A
HETATM    2  C6  UNL     1     -12.664   2.764 -19.524  1.00  0.00     0.060 A
HETATM    3  C7  UNL     1     -13.148   1.522 -19.165  1.00  0.00     0.045 A
HETATM    4  N2  UNL     1     -13.775   1.434 -17.979  1.00  0.00    -0.355 N
ATOM      5  H2  UNL     1     -14.147   0.533 -17.680  1.00  0.00     0.166 HD
HETATM    6  C14 UNL     1     -13.927   2.519 -17.165  1.00  0.00     0.045 A
HETATM    7  C15 UNL     1     -14.576   2.379 -15.959  1.00  0.00     0.030 A
HETATM    8  C16 UNL     1     -14.752   3.467 -15.094  1.00  0.00     0.002 A
HETATM    9  C17 UNL     1     -14.276   4.710 -15.437  1.00  0.00     0.001 A
HETATM   10  C18 UNL     1     -13.627   4.835 -16.649  1.00  0.00     0.016 A
HETATM   11  C19 UNL     1     -13.449   3.770 -17.507  1.00  0.00     0.017 A
ENDROOT
BRANCH   1  12
HETATM   12  N1  UNL     1     -12.343   5.000 -19.089  1.00  0.00    -0.355 N
ATOM     13  H1  UNL     1     -11.452   5.280 -18.678  1.00  0.00     0.166 HD
BRANCH  12  14
HETATM   14  C4  UNL     1     -12.906   5.894 -20.007  1.00  0.00     0.032 A
HETATM   15  C3  UNL     1     -14.257   6.173 -20.007  1.00  0.00     0.029 A
HETATM   16  C2  UNL     1     -14.775   7.060 -20.928  1.00  0.00     0.002 A
HETATM   17  C1  UNL     1     -13.942   7.672 -21.855  1.00  0.00     0.000 A
HETATM   18  C21 UNL     1     -12.587   7.402 -21.868  1.00  0.00     0.002 A
HETATM   19  C20 UNL     1     -12.071   6.514 -20.944  1.00  0.00     0.029 A
ENDBRANCH  12  14
ENDBRANCH   1  12
BRANCH   3  20
HETATM   20  C8  UNL     1     -13.000   0.328 -20.024  1.00  0.00    -0.009 A
HETATM   21  C9  UNL     1     -11.966   0.283 -20.927  1.00  0.00     0.013 A
HETATM   22  C10 UNL     1     -11.807  -0.824 -21.741  1.00  0.00     0.001 A
HETATM   23  C11 UNL     1     -12.669  -1.868 -21.654  1.00  0.00     0.000 A
HETATM   24  C12 UNL     1     -13.710  -1.838 -20.754  1.00  0.00     0.001 A
HETATM   25  C13 UNL     1     -13.867  -0.729 -19.939  1.00  0.00     0.013 A
ENDBRANCH   3  20
TORSDOF 3
ENDMDL