MODEL 1
REMARK VINA RESULT: -11.325048034      0.000      0.000
REMARK  2 active torsions:
REMARK  status: ('A' for Active; 'I' for Inactive)
REMARK    1  A    between atoms: C6_6  and  C7_7
REMARK    2  A    between atoms: C7_7  and  C8_8
ROOT
HETATM    1  C8  UNL     1     -12.895   2.036 -17.364  1.00  0.00    -0.025 A
HETATM    2  C9  UNL     1     -14.093   1.562 -16.841  1.00  0.00     0.098 A
HETATM    3  N1  UNL     1     -14.335   0.333 -17.331  1.00  0.00    -0.351 N
ATOM      4  H1  UNL     1     -15.151  -0.235 -17.104  1.00  0.00     0.166 HD
HETATM    5  C10 UNL     1     -13.339  -0.042 -18.168  1.00  0.00     0.116 A
HETATM    6  N2  UNL     1     -13.116  -1.155 -18.899  1.00  0.00    -0.341 N
ATOM      7  H2  UNL     1     -13.798  -1.913 -18.856  1.00  0.00     0.167 HD
HETATM    8  C11 UNL     1     -12.032  -1.306 -19.682  1.00  0.00     0.044 A
HETATM    9  C12 UNL     1     -11.822  -2.460 -20.427  1.00  0.00     0.030 A
HETATM   10  C13 UNL     1     -10.713  -2.622 -21.233  1.00  0.00     0.002 A
HETATM   11  C14 UNL     1      -9.798  -1.585 -21.279  1.00  0.00     0.001 A
HETATM   12  C15 UNL     1     -10.013  -0.445 -20.538  1.00  0.00     0.014 A
HETATM   13  C16 UNL     1     -11.119  -0.276 -19.731  1.00  0.00    -0.009 A
HETATM   14  C17 UNL     1     -11.338   0.872 -18.983  1.00  0.00     0.029 A
HETATM   15  C18 UNL     1     -12.452   1.019 -18.182  1.00  0.00     0.017 A
ENDROOT
BRANCH   1  16
HETATM   16  C7  UNL     1     -12.278   3.349 -17.052  1.00  0.00     0.079 C
BRANCH  16  17
HETATM   17  C6  UNL     1     -12.316   4.320 -18.154  1.00  0.00    -0.053 A
HETATM   18  C5  UNL     1     -13.492   4.827 -18.633  1.00  0.00     0.019 A
HETATM   19  C4  UNL     1     -13.524   5.750 -19.681  1.00  0.00    -0.025 A
HETATM   20  C3  UNL     1     -14.698   6.275 -20.177  1.00  0.00     0.012 A
HETATM   21  C21 UNL     1     -12.331   6.159 -20.248  1.00  0.00    -0.026 A
HETATM   22  C2  UNL     1     -14.730   7.186 -21.211  1.00  0.00     0.001 A
HETATM   23  C1  UNL     1     -13.529   7.576 -21.756  1.00  0.00     0.001 A
HETATM   24  C22 UNL     1     -12.342   7.071 -21.283  1.00  0.00     0.012 A
HETATM   25  C20 UNL     1     -11.159   5.653 -19.771  1.00  0.00     0.013 A
HETATM   26  C19 UNL     1     -11.139   4.737 -18.728  1.00  0.00     0.008 A
ENDBRANCH  16  17
ENDBRANCH   1  16
TORSDOF 2
ENDMDL