MODEL 4
REMARK VINA RESULT: -10.216484135      1.551      6.852
REMARK  3 active torsions:
REMARK  status: ('A' for Active; 'I' for Inactive)
REMARK    1  A    between atoms: C4_4  and  N1_5
REMARK    2  A    between atoms: N1_5  and  C5_7
REMARK    3  A    between atoms: C7_11  and  C8_12
ROOT
HETATM    1  C5  UNL     1     -12.543   2.506 -19.687  1.00  0.00     0.116 A
HETATM    2  N2  UNL     1     -13.709   1.870 -19.500  1.00  0.00    -0.351 N
ATOM      3  H2  UNL     1     -13.877   0.968 -19.947  1.00  0.00     0.166 HD
HETATM    4  C6  UNL     1     -14.650   2.423 -18.726  1.00  0.00     0.102 A
HETATM    5  C7  UNL     1     -14.456   3.653 -18.099  1.00  0.00     0.001 A
HETATM    6  C14 UNL     1     -13.266   4.288 -18.297  1.00  0.00    -0.010 A
HETATM    7  C15 UNL     1     -12.997   5.480 -17.714  1.00  0.00     0.013 A
HETATM    8  C16 UNL     1     -11.784   6.107 -17.916  1.00  0.00     0.001 A
HETATM    9  C17 UNL     1     -10.802   5.534 -18.723  1.00  0.00     0.001 A
HETATM   10  C18 UNL     1     -11.053   4.320 -19.328  1.00  0.00     0.016 A
HETATM   11  C19 UNL     1     -12.269   3.723 -19.105  1.00  0.00     0.019 A
ENDROOT
BRANCH   1  12
HETATM   12  N1  UNL     1     -11.613   1.977 -20.442  1.00  0.00    -0.342 N
ATOM     13  H1  UNL     1     -11.378   2.429 -21.325  1.00  0.00     0.167 HD
BRANCH  12  14
HETATM   14  C4  UNL     1     -10.923   0.798 -20.074  1.00  0.00     0.033 A
HETATM   15  C3  UNL     1     -10.572   0.556 -18.758  1.00  0.00     0.029 A
HETATM   16  C2  UNL     1      -9.897  -0.618 -18.457  1.00  0.00     0.002 A
HETATM   17  C1  UNL     1      -9.562  -1.549 -19.413  1.00  0.00     0.000 A
HETATM   18  C21 UNL     1      -9.933  -1.270 -20.731  1.00  0.00     0.002 A
HETATM   19  C20 UNL     1     -10.603  -0.113 -21.052  1.00  0.00     0.029 A
ENDBRANCH  12  14
ENDBRANCH   1  12
BRANCH   5  20
HETATM   20  C8  UNL     1     -15.537   4.203 -17.307  1.00  0.00    -0.024 A
HETATM   21  C9  UNL     1     -16.640   4.750 -17.978  1.00  0.00     0.012 A
HETATM   22  C10 UNL     1     -17.695   5.323 -17.322  1.00  0.00     0.001 A
HETATM   23  C11 UNL     1     -17.691   5.375 -15.938  1.00  0.00     0.000 A
HETATM   24  C12 UNL     1     -16.603   4.835 -15.288  1.00  0.00     0.001 A
HETATM   25  C13 UNL     1     -15.547   4.260 -15.942  1.00  0.00     0.012 A
ENDBRANCH   5  20
TORSDOF 3
ENDMDL