MODEL 3
REMARK VINA RESULT: -10.612163918      1.322      1.741
REMARK  3 active torsions:
REMARK  status: ('A' for Active; 'I' for Inactive)
REMARK    1  A    between atoms: C4_4  and  C5_5
REMARK    2  A    between atoms: C7_7  and  N1_8
REMARK    3  A    between atoms: N1_8  and  C8_10
ROOT
HETATM    1  C5  UNL     1     -13.817   4.709 -18.917  1.00  0.00    -0.013 A
HETATM    2  C6  UNL     1     -13.724   3.353 -19.269  1.00  0.00     0.042 A
HETATM    3  C7  UNL     1     -13.943   2.334 -18.375  1.00  0.00     0.035 A
HETATM    4  C13 UNL     1     -14.269   2.622 -17.071  1.00  0.00     0.042 A
HETATM    5  C14 UNL     1     -14.371   3.940 -16.690  1.00  0.00    -0.023 A
HETATM    6  C15 UNL     1     -14.710   4.256 -15.381  1.00  0.00     0.012 A
HETATM    7  C16 UNL     1     -14.836   5.558 -14.946  1.00  0.00     0.001 A
HETATM    8  C17 UNL     1     -14.610   6.556 -15.876  1.00  0.00     0.001 A
HETATM    9  C18 UNL     1     -14.268   6.292 -17.201  1.00  0.00     0.013 A
HETATM   10  C19 UNL     1     -14.148   4.977 -17.602  1.00  0.00    -0.015 A
ENDROOT
BRANCH   3  11
HETATM   11  N1  UNL     1     -13.843   0.966 -18.746  1.00  0.00    -0.342 N
ATOM     12  H1  UNL     1     -14.681   0.487 -19.076  1.00  0.00     0.167 HD
BRANCH  11  13
HETATM   13  C8  UNL     1     -12.737   0.306 -18.683  1.00  0.00     0.105 A
HETATM   14  C9  UNL     1     -11.545   0.958 -18.535  1.00  0.00     0.048 A
HETATM   15  C10 UNL     1     -10.360   0.253 -18.468  1.00  0.00     0.005 A
HETATM   16  C11 UNL     1     -10.447  -1.137 -18.556  1.00  0.00     0.017 A
HETATM   17  C12 UNL     1     -11.667  -1.762 -18.703  1.00  0.00     0.089 A
HETATM   18  N2  UNL     1     -12.794  -1.025 -18.764  1.00  0.00    -0.352 N
ATOM     19  H2  UNL     1     -13.696  -1.488 -18.873  1.00  0.00     0.166 HD
ENDBRANCH  11  13
ENDBRANCH   3  11
BRANCH   1  20
HETATM   20  C4  UNL     1     -13.531   5.728 -19.921  1.00  0.00    -0.025 A
HETATM   21  C3  UNL     1     -14.629   6.409 -20.417  1.00  0.00     0.012 A
HETATM   22  C2  UNL     1     -14.556   7.372 -21.392  1.00  0.00     0.001 A
HETATM   23  C1  UNL     1     -13.294   7.648 -21.878  1.00  0.00     0.000 A
HETATM   24  C21 UNL     1     -12.179   6.986 -21.403  1.00  0.00     0.001 A
HETATM   25  C20 UNL     1     -12.294   6.027 -20.425  1.00  0.00     0.012 A
ENDBRANCH   1  20
TORSDOF 3
ENDMDL