MODEL 5
REMARK VINA RESULT: -9.446224638      1.760      2.505
REMARK  3 active torsions:
REMARK  status: ('A' for Active; 'I' for Inactive)
REMARK    1  A    between atoms: C4_4  and  N1_5
REMARK    2  A    between atoms: N1_5  and  C5_7
REMARK    3  A    between atoms: C9_13  and  C10_14
ROOT
HETATM    1  C5  UNL     1     -11.616   1.554 -18.477  1.00  0.00     0.116 A
HETATM    2  N2  UNL     1     -11.227   0.285 -18.409  1.00  0.00    -0.352 N
ATOM      3  H2  UNL     1     -10.852  -0.077 -17.532  1.00  0.00     0.166 HD
HETATM    4  C6  UNL     1     -11.320  -0.526 -19.468  1.00  0.00     0.090 A
HETATM    5  C7  UNL     1     -11.816  -0.076 -20.653  1.00  0.00     0.018 A
HETATM    6  C8  UNL     1     -12.218   1.231 -20.728  1.00  0.00     0.017 A
HETATM    7  C9  UNL     1     -12.135   2.086 -19.659  1.00  0.00     0.019 A
ENDROOT
BRANCH   7   8
HETATM    8  C10 UNL     1     -12.502   3.507 -19.719  1.00  0.00    -0.011 A
HETATM    9  C11 UNL     1     -11.511   4.450 -20.005  1.00  0.00     0.013 A
HETATM   10  C12 UNL     1     -11.787   5.786 -20.130  1.00  0.00     0.002 A
HETATM   11  C13 UNL     1     -13.086   6.194 -19.962  1.00  0.00     0.012 A
HETATM   12  C14 UNL     1     -14.120   5.315 -19.675  1.00  0.00    -0.025 A
HETATM   13  C15 UNL     1     -15.412   5.776 -19.502  1.00  0.00     0.012 A
HETATM   14  C19 UNL     1     -13.780   3.966 -19.560  1.00  0.00    -0.015 A
HETATM   15  C16 UNL     1     -16.438   4.913 -19.201  1.00  0.00     0.001 A
HETATM   16  C17 UNL     1     -16.132   3.582 -19.080  1.00  0.00     0.001 A
HETATM   17  C18 UNL     1     -14.824   3.122 -19.257  1.00  0.00     0.013 A
ENDBRANCH   7   8
BRANCH   1  18
HETATM   18  N1  UNL     1     -11.522   2.315 -17.455  1.00  0.00    -0.342 N
ATOM     19  H1  UNL     1     -10.601   2.638 -17.158  1.00  0.00     0.167 HD
BRANCH  18  20
HETATM   20  C4  UNL     1     -12.670   2.722 -16.723  1.00  0.00     0.033 A
HETATM   21  C3  UNL     1     -12.883   4.063 -16.387  1.00  0.00     0.029 A
HETATM   22  C2  UNL     1     -13.989   4.469 -15.680  1.00  0.00     0.002 A
HETATM   23  C1  UNL     1     -14.940   3.553 -15.275  1.00  0.00     0.000 A
HETATM   24  C21 UNL     1     -14.723   2.232 -15.612  1.00  0.00     0.002 A
HETATM   25  C20 UNL     1     -13.617   1.804 -16.322  1.00  0.00     0.029 A
ENDBRANCH  18  20
ENDBRANCH   1  18
TORSDOF 3
ENDMDL