MODEL 4
REMARK VINA RESULT: -7.226572560      3.516      7.495
REMARK  8 active torsions:
REMARK  status: ('A' for Active; 'I' for Inactive)
REMARK    1  A    between atoms: N1_2  and  C2_3
REMARK    2  A    between atoms: N1_2  and  S1_23
REMARK    3  A    between atoms: C2_3  and  C3_4
REMARK    4  A    between atoms: C5_6  and  C6_7
REMARK    5  A    between atoms: C6_7  and  O1_8
REMARK    6  A    between atoms: N2_10  and  O2_12
REMARK    7  A    between atoms: C7_14  and  N3_15
REMARK    8  A    between atoms: S1_23  and  C13_26
ROOT
HETATM    1  C3  UNL     1      16.499 -17.036  12.629  1.00  0.00     0.136 C
HETATM    2  C4  UNL     1      16.401 -17.461  11.172  1.00  0.00     0.048 C
HETATM    3  C5  UNL     1      17.176 -18.710  10.949  1.00  0.00     0.100 C
HETATM    4  C7  UNL     1      18.592 -18.519  11.403  1.00  0.00     0.258 C
HETATM    5  C12 UNL     1      18.433 -18.268  12.922  1.00  0.00     0.204 C
HETATM    6  O4  UNL     1      17.784 -17.067  13.081  1.00  0.00    -0.382 OA
ENDROOT
BRANCH   1   7
HETATM    7  C2  UNL     1      15.548 -17.808  13.512  1.00  0.00     0.139 C
BRANCH   7   8
HETATM    8  N1  UNL     1      14.169 -17.643  13.108  1.00  0.00    -0.208 NA
HETATM    9  C1  UNL     1      13.393 -18.611  13.902  1.00  0.00     0.129 C
BRANCH   8  10
HETATM   10  S1  UNL     1      13.556 -16.093  13.572  1.00  0.00     0.250 S
HETATM   11  O5  UNL     1      12.227 -16.169  14.226  1.00  0.00    -0.205 OA
HETATM   12  O6  UNL     1      14.518 -15.329  14.410  1.00  0.00    -0.205 OA
BRANCH  10  13
HETATM   13  C13 UNL     1      13.355 -15.181  12.064  1.00  0.00     0.116 A
HETATM   14  C14 UNL     1      12.284 -15.171  11.217  1.00  0.00     0.034 A
HETATM   15  C15 UNL     1      12.364 -14.397  10.127  1.00  0.00     0.033 A
HETATM   16  C16 UNL     1      13.513 -13.680   9.950  1.00  0.00     0.075 A
HETATM   17 CL1  UNL     1      13.914 -12.581   8.623  1.00  0.00    -0.076 Cl
HETATM   18  S2  UNL     1      14.447 -14.104  11.308  1.00  0.00    -0.065 SA
ENDBRANCH  10  13
ENDBRANCH   8  10
ENDBRANCH   7   8
ENDBRANCH   1   7
BRANCH   3  19
HETATM   19  C6  UNL     1      17.008 -19.390   9.684  1.00  0.00     0.141 C
HETATM   20  N2  UNL     1      17.671 -20.396   9.322  1.00  0.00    -0.251 N
ATOM     21  H2  UNL     1      17.413 -20.737   8.396  1.00  0.00     0.196 HD
BRANCH  19  22
HETATM   22  O1  UNL     1      16.053 -18.915   8.787  1.00  0.00    -0.348 OA
ATOM     23  H1  UNL     1      15.133 -19.048   8.983  1.00  0.00     0.219 HD
ENDBRANCH  19  22
BRANCH  20  24
HETATM   24  O2  UNL     1      18.639 -21.110   9.895  1.00  0.00    -0.288 OA
ATOM     25  H2  UNL     1      18.658 -21.715  10.626  1.00  0.00     0.244 HD
ENDBRANCH  20  24
ENDBRANCH   3  19
BRANCH   4  26
HETATM   26  N3  UNL     1      19.331 -17.446  10.914  1.00  0.00     0.100 N
HETATM   27  C8  UNL     1      19.574 -17.246   9.549  1.00  0.00     0.299 C
HETATM   28  C9  UNL     1      20.924 -17.796   9.099  1.00  0.00     0.198 C
HETATM   29  O3  UNL     1      21.886 -16.998   9.650  1.00  0.00    -0.388 OA
HETATM   30  C10 UNL     1      21.600 -16.493  10.890  1.00  0.00     0.198 C
HETATM   31  C11 UNL     1      20.564 -17.306  11.659  1.00  0.00     0.299 C
ENDBRANCH   4  26
TORSDOF 8
ENDMDL