MODEL 4
REMARK VINA RESULT: -7.403555765      3.632      6.566
REMARK  9 active torsions:
REMARK  status: ('A' for Active; 'I' for Inactive)
REMARK    1  A    between atoms: O1_2  and  C2_3
REMARK       I    between atoms: C2_3  and  N1_5
REMARK    2  A    between atoms: N1_5  and  C3_7
REMARK    3  A    between atoms: C3_7  and  C4_8
REMARK    4  A    between atoms: N2_13  and  C9_14
REMARK    5  A    between atoms: C9_14  and  C10_15
REMARK    6  A    between atoms: C9_14  and  C15_24
REMARK    7  A    between atoms: C10_15  and  N3_16
REMARK    8  A    between atoms: N3_16  and  C11_19
REMARK    9  A    between atoms: N7_28  and  C16_29
ROOT
HETATM    1  C11 UNL     1      13.542 -16.923  15.689  1.00  0.00     0.213 A
HETATM    2  C12 UNL     1      14.390 -18.054  16.089  1.00  0.00     0.099 C
HETATM    3  N4  UNL     1      15.070 -18.930  16.409  1.00  0.00    -0.195 NA
HETATM    4  C13 UNL     1      12.121 -17.216  15.562  1.00  0.00     0.058 A
HETATM    5  C14 UNL     1      12.619 -16.447  16.748  1.00  0.00     0.058 A
ENDROOT
BRANCH   1   6
HETATM    6  N3  UNL     1      14.239 -15.958  14.865  1.00  0.00    -0.051 N
ATOM      7  H32 UNL     1      14.611 -15.203  15.442  1.00  0.00     0.279 HD
ATOM      8  H31 UNL     1      13.574 -15.434  14.296  1.00  0.00     0.279 HD
BRANCH   6   9
HETATM    9  C10 UNL     1      15.240 -16.492  14.067  1.00  0.00     0.268 C
BRANCH   9  10
HETATM   10  C9  UNL     1      14.955 -16.771  12.600  1.00  0.00     0.190 C
BRANCH  10  11
HETATM   11  N2  UNL     1      15.963 -17.543  12.020  1.00  0.00    -0.281 N
HETATM   12  C8  UNL     1      16.804 -18.372  12.820  1.00  0.00     0.157 C
HETATM   13  C7  UNL     1      17.966 -18.659  11.881  1.00  0.00     0.037 C
HETATM   14  C6  UNL     1      19.216 -17.976  12.260  1.00  0.00     0.009 C
HETATM   15  C21 UNL     1      17.460 -18.055  10.587  1.00  0.00     0.163 C
HETATM   16  C5  UNL     1      19.730 -17.358  10.983  1.00  0.00     0.009 C
HETATM   17  C4  UNL     1      18.719 -17.665   9.899  1.00  0.00     0.035 C
HETATM   18  O3  UNL     1      16.691 -16.968  11.078  1.00  0.00    -0.276 OA
BRANCH  17  19
HETATM   19  C3  UNL     1      19.203 -18.911   9.149  1.00  0.00     0.132 C
BRANCH  19  20
HETATM   20  N1  UNL     1      19.654 -18.501   7.836  1.00  0.00    -0.336 N
HETATM   21  C2  UNL     1      20.983 -18.195   7.529  1.00  0.00     0.360 C
HETATM   22  O2  UNL     1      21.946 -18.264   8.374  1.00  0.00    -0.239 OA
ATOM     23  H1  UNL     1      18.961 -18.430   7.090  1.00  0.00     0.164 HD
BRANCH  21  24
HETATM   24  O1  UNL     1      21.360 -17.786   6.269  1.00  0.00    -0.309 OA
HETATM   25  C1  UNL     1      22.649 -18.053   5.743  1.00  0.00     0.215 C
ENDBRANCH  21  24
ENDBRANCH  19  20
ENDBRANCH  17  19
ENDBRANCH  10  11
BRANCH  10  26
HETATM   26  C15 UNL     1      14.647 -15.472  11.951  1.00  0.00     0.107 A
HETATM   27  N5  UNL     1      15.401 -14.393  11.691  1.00  0.00    -0.281 N
HETATM   28  N6  UNL     1      14.733 -13.457  11.038  1.00  0.00    -0.017 NA
ATOM     29  H5  UNL     1      16.379 -14.305  11.966  1.00  0.00     0.184 HD
HETATM   30  N7  UNL     1      13.484 -13.906  10.846  1.00  0.00    -0.240 N
HETATM   31  C20 UNL     1      13.400 -15.139  11.391  1.00  0.00     0.230 A
HETATM   32  F1  UNL     1      12.253 -15.876  11.374  1.00  0.00    -0.183 F
BRANCH  30  33
HETATM   33  C16 UNL     1      12.485 -13.100  10.201  1.00  0.00     0.044 C
HETATM   34  C17 UNL     1      11.324 -12.748  11.085  1.00  0.00     0.039 C
HETATM   35  C18 UNL     1      13.126 -11.776   9.770  1.00  0.00     0.039 C
HETATM   36  C19 UNL     1      11.941 -13.778   8.950  1.00  0.00     0.039 C
ENDBRANCH  30  33
ENDBRANCH  10  26
ENDBRANCH   9  10
ENDBRANCH   6   9
ENDBRANCH   1   6
TORSDOF 9
ENDMDL