MODEL 4
REMARK VINA RESULT: -7.794441379      2.645      8.725
REMARK  7 active torsions:
REMARK  status: ('A' for Active; 'I' for Inactive)
REMARK    1  A    between atoms: C2_2  and  N1_4
REMARK       I    between atoms: N1_4  and  C4_6
REMARK    2  A    between atoms: C4_6  and  C5_8
REMARK    3  A    between atoms: N4_14  and  C8_15
REMARK    4  A    between atoms: C8_15  and  C10_17
REMARK    5  A    between atoms: C10_17  and  O2_18
REMARK    6  A    between atoms: N5_24  and  C14_25
REMARK    7  A    between atoms: C14_25  and  C16_27
ROOT
HETATM    1  C5  UNL     1      14.341 -13.610  14.085  1.00  0.00     0.096 A
HETATM    2  C6  UNL     1      15.547 -13.330  13.383  1.00  0.00     0.130 A
HETATM    3  N2  UNL     1      15.993 -14.524  13.004  1.00  0.00    -0.288 N
ATOM      4  H2  UNL     1      16.852 -14.668  12.474  1.00  0.00     0.188 HD
HETATM    5  N3  UNL     1      15.197 -15.499  13.394  1.00  0.00    -0.181 N
HETATM    6  C7  UNL     1      14.145 -14.935  14.086  1.00  0.00     0.161 A
HETATM    7  N4  UNL     1      13.096 -15.632  14.764  1.00  0.00    -0.354 N
HETATM    8  C11 UNL     1      12.466 -16.850  14.226  1.00  0.00     0.164 C
HETATM    9  C12 UNL     1      13.000 -17.234  12.891  1.00  0.00     0.207 C
HETATM   10  F1  UNL     1      12.910 -16.191  11.972  1.00  0.00    -0.246 F
HETATM   11  C13 UNL     1      14.376 -17.850  12.891  1.00  0.00     0.184 C
HETATM   12  N5  UNL     1      15.409 -16.866  13.113  1.00  0.00    -0.298 N
ENDROOT
BRANCH  12  13
HETATM   13  C14 UNL     1      16.790 -17.262  13.041  1.00  0.00     0.106 C
HETATM   14  C15 UNL     1      17.048 -18.296  14.106  1.00  0.00     0.034 C
BRANCH  13  15
HETATM   15  C16 UNL     1      17.329 -17.614  11.723  1.00  0.00     0.039 C
HETATM   16  C17 UNL     1      17.473 -16.437  10.780  1.00  0.00     0.178 C
HETATM   17  O3  UNL     1      18.301 -16.874   9.750  1.00  0.00    -0.355 OA
HETATM   18  C18 UNL     1      19.079 -17.908  10.229  1.00  0.00     0.164 C
HETATM   19  C19 UNL     1      18.943 -19.159   9.388  1.00  0.00     0.071 C
HETATM   20  O4  UNL     1      20.402 -17.583  10.040  1.00  0.00    -0.355 OA
HETATM   21  C22 UNL     1      18.722 -18.174  11.666  1.00  0.00     0.077 C
HETATM   22  C20 UNL     1      19.717 -18.771   8.149  1.00  0.00     0.032 C
HETATM   23  C21 UNL     1      20.491 -17.547   8.628  1.00  0.00     0.171 C
ENDBRANCH  13  15
ENDBRANCH  12  13
BRANCH   1  24
HETATM   24  C4  UNL     1      13.447 -12.595  14.570  1.00  0.00     0.257 C
HETATM   25  N1  UNL     1      12.202 -12.375  13.951  1.00  0.00    -0.353 N
ATOM     26  H1  UNL     1      11.934 -12.966  13.165  1.00  0.00     0.163 HD
HETATM   27  O1  UNL     1      13.793 -11.904  15.533  1.00  0.00    -0.267 OA
BRANCH  25  28
HETATM   28  C2  UNL     1      11.276 -11.325  14.394  1.00  0.00     0.076 C
HETATM   29  C1  UNL     1       9.868 -11.768  14.543  1.00  0.00     0.032 C
HETATM   30  C3  UNL     1      11.409 -10.107  13.486  1.00  0.00     0.032 C
ENDBRANCH  25  28
ENDBRANCH   1  24
BRANCH   7  31
HETATM   31  C8  UNL     1      12.769 -15.127  16.037  1.00  0.00     0.105 C
HETATM   32  C9  UNL     1      12.997 -16.205  17.127  1.00  0.00     0.034 C
BRANCH  31  33
HETATM   33  C10 UNL     1      11.190 -15.182  15.992  1.00  0.00     0.189 C
BRANCH  33  34
HETATM   34  O2  UNL     1      10.678 -14.292  16.925  1.00  0.00    -0.399 OA
ATOM     35  H2  UNL     1      11.265 -14.253  17.671  1.00  0.00     0.209 HD
ENDBRANCH  33  34
ENDBRANCH  31  33
ENDBRANCH   7  31
TORSDOF 7
ENDMDL