MODEL 2
REMARK VINA RESULT: -6.669174090      2.965      5.554
REMARK  9 active torsions:
REMARK  status: ('A' for Active; 'I' for Inactive)
REMARK    1  A    between atoms: C2_2  and  O1_3
REMARK    2  A    between atoms: O1_3  and  C3_4
REMARK       I    between atoms: C3_4  and  N1_6
REMARK    3  A    between atoms: N1_6  and  C4_8
REMARK    4  A    between atoms: C4_8  and  C5_9
REMARK    5  A    between atoms: C8_12  and  O3_13
REMARK    6  A    between atoms: O3_13  and  C9_14
REMARK    7  A    between atoms: C11_18  and  O6_19
REMARK    8  A    between atoms: C12_21  and  O7_22
REMARK    9  A    between atoms: O7_22  and  C13_23
ROOT
HETATM    1  C5  UNL     1      13.981 -15.210  12.196  1.00  0.00     0.009 C
HETATM    2  C6  UNL     1      12.518 -15.453  12.211  1.00  0.00    -0.013 C
HETATM    3  C7  UNL     1      11.863 -15.911  13.282  1.00  0.00     0.039 C
HETATM    4  C8  UNL     1      12.655 -16.183  14.499  1.00  0.00     0.202 C
HETATM    5  O5  UNL     1      12.685 -17.577  14.628  1.00  0.00    -0.318 OA
HETATM    6  C11 UNL     1      13.775 -18.023  13.903  1.00  0.00     0.297 C
HETATM    7  C12 UNL     1      14.738 -16.892  13.742  1.00  0.00     0.134 C
HETATM    8  C15 UNL     1      14.809 -16.457  12.272  1.00  0.00     0.041 C
HETATM    9  C16 UNL     1      16.240 -16.070  12.025  1.00  0.00     0.010 C
HETATM   10  C17 UNL     1      16.759 -14.985  12.898  1.00  0.00     0.021 C
HETATM   11  C18 UNL     1      15.775 -14.190  13.644  1.00  0.00     0.092 C
HETATM   12 CL1  UNL     1      16.015 -12.439  13.287  1.00  0.00    -0.124 Cl
HETATM   13  C19 UNL     1      14.341 -14.569  13.514  1.00  0.00    -0.002 C
HETATM   14  C20 UNL     1      13.409 -13.451  13.884  1.00  0.00     0.018 C
HETATM   15  C21 UNL     1      14.076 -15.734  14.442  1.00  0.00     0.104 C
ENDROOT
BRANCH   1  16
HETATM   16  C4  UNL     1      14.282 -14.354  11.007  1.00  0.00     0.139 C
BRANCH  16  17
HETATM   17  N1  UNL     1      13.017 -13.970  10.409  1.00  0.00    -0.336 N
HETATM   18  C3  UNL     1      12.975 -13.250   9.164  1.00  0.00     0.360 C
HETATM   19  O2  UNL     1      14.051 -12.951   8.592  1.00  0.00    -0.239 OA
ATOM     20  H1  UNL     1      12.145 -14.214  10.879  1.00  0.00     0.164 HD
BRANCH  18  21
HETATM   21  O1  UNL     1      11.789 -12.875   8.577  1.00  0.00    -0.304 OA
BRANCH  21  22
HETATM   22  C2  UNL     1      11.117 -11.714   9.064  1.00  0.00     0.176 C
HETATM   23  C1  UNL     1      11.342 -10.609   8.058  1.00  0.00     0.034 C
ENDBRANCH  21  22
ENDBRANCH  18  21
ENDBRANCH  16  17
ENDBRANCH   1  16
BRANCH   7  24
HETATM   24  O7  UNL     1      15.995 -17.227  14.231  1.00  0.00    -0.304 OA
BRANCH  24  25
HETATM   25  C13 UNL     1      16.343 -18.498  14.574  1.00  0.00     0.255 C
HETATM   26  C14 UNL     1      15.889 -19.076  15.864  1.00  0.00     0.126 C
HETATM   27  O8  UNL     1      17.039 -19.195  13.825  1.00  0.00    -0.266 OA
ENDBRANCH  24  25
ENDBRANCH   7  24
BRANCH   4  28
HETATM   28  O3  UNL     1      11.962 -15.710  15.626  1.00  0.00    -0.279 OA
BRANCH  28  29
HETATM   29  C9  UNL     1      12.139 -16.314  16.853  1.00  0.00     0.257 C
HETATM   30  C10 UNL     1      10.992 -17.082  17.464  1.00  0.00     0.126 C
HETATM   31  O4  UNL     1      13.220 -16.258  17.498  1.00  0.00    -0.266 OA
ENDBRANCH  28  29
ENDBRANCH   4  28
BRANCH   6  32
HETATM   32  O6  UNL     1      13.416 -18.558  12.665  1.00  0.00    -0.368 OA
ATOM     33  H6  UNL     1      12.811 -19.288  12.742  1.00  0.00     0.212 HD
ENDBRANCH   6  32
TORSDOF 9
ENDMDL