MODEL 5
REMARK VINA RESULT: -6.139295660      4.426      8.315
REMARK  9 active torsions:
REMARK  status: ('A' for Active; 'I' for Inactive)
REMARK    1  A    between atoms: C2_2  and  O1_4
REMARK    2  A    between atoms: O1_4  and  C4_5
REMARK    3  A    between atoms: C6_9  and  N1_10
REMARK       I    between atoms: N1_10  and  C7_12
REMARK    4  A    between atoms: C7_12  and  C8_14
REMARK    5  A    between atoms: C8_14  and  O3_15
REMARK    6  A    between atoms: C8_14  and  N2_17
REMARK    7  A    between atoms: N2_17  and  C9_18
REMARK    8  A    between atoms: C16_26  and  O4_27
REMARK    9  A    between atoms: O4_27  and  S2_28
ROOT
HETATM    1  N1  UNL     1      15.919 -18.224  12.892  1.00  0.00    -0.311 N
ATOM      2  H1  UNL     1      14.942 -17.940  12.817  1.00  0.00     0.170 HD
HETATM    3  C7  UNL     1      16.458 -18.616  14.141  1.00  0.00     0.311 C
HETATM    4  O2  UNL     1      17.637 -18.981  14.218  1.00  0.00    -0.262 OA
ENDROOT
BRANCH   1   5
HETATM    5  C6  UNL     1      16.766 -18.229  11.733  1.00  0.00     0.116 A
HETATM    6  S1  UNL     1      17.114 -19.509  10.665  1.00  0.00    -0.054 SA
HETATM    7  C5  UNL     1      18.236 -18.718   9.651  1.00  0.00     0.113 A
HETATM    8  C4  UNL     1      18.310 -17.457  10.177  1.00  0.00     0.135 A
HETATM    9 CL1  UNL     1      19.099 -19.411   8.260  1.00  0.00    -0.073 Cl
HETATM   10  C16 UNL     1      17.539 -17.201  11.268  1.00  0.00     0.158 A
BRANCH   8  11
HETATM   11  O1  UNL     1      19.182 -16.502   9.557  1.00  0.00    -0.342 OA
BRANCH  11  12
HETATM   12  C2  UNL     1      20.563 -16.483   9.770  1.00  0.00     0.121 C
HETATM   13  C1  UNL     1      20.922 -16.721  11.231  1.00  0.00     0.040 C
HETATM   14  C3  UNL     1      21.321 -17.453   8.881  1.00  0.00     0.040 C
ENDBRANCH  11  12
ENDBRANCH   8  11
BRANCH  10  15
HETATM   15  O4  UNL     1      17.529 -15.921  11.915  1.00  0.00    -0.227 OA
BRANCH  15  16
HETATM   16  S2  UNL     1      16.277 -14.816  11.638  1.00  0.00     0.266 S
HETATM   17  C17 UNL     1      16.300 -14.155   9.984  1.00  0.00     0.194 C
HETATM   18  O5  UNL     1      16.311 -13.673  12.602  1.00  0.00    -0.199 OA
HETATM   19  O6  UNL     1      14.933 -15.477  11.800  1.00  0.00    -0.199 OA
ENDBRANCH  15  16
ENDBRANCH  10  15
ENDBRANCH   1   5
BRANCH   3  20
HETATM   20  C8  UNL     1      15.572 -18.563  15.354  1.00  0.00     0.279 C
BRANCH  20  21
HETATM   21  O3  UNL     1      16.046 -19.275  16.334  1.00  0.00    -0.332 OA
ATOM     22  H3  UNL     1      16.940 -19.553  16.172  1.00  0.00     0.220 HD
ENDBRANCH  20  21
BRANCH  20  23
HETATM   23  N2  UNL     1      14.407 -17.878  15.450  1.00  0.00    -0.413 NA
BRANCH  23  24
HETATM   24  C9  UNL     1      13.242 -17.193  15.547  1.00  0.00     0.198 C
HETATM   25  C10 UNL     1      13.060 -16.448  16.898  1.00  0.00     0.312 C
HETATM   26  N3  UNL     1      11.921 -15.534  16.747  1.00  0.00     0.091 N
HETATM   27  C11 UNL     1      12.483 -14.321  16.134  1.00  0.00     0.273 C
HETATM   28  C15 UNL     1      10.917 -16.094  15.843  1.00  0.00     0.273 C
HETATM   29  C12 UNL     1      13.320 -14.738  14.950  1.00  0.00     0.038 C
HETATM   30  C13 UNL     1      12.917 -16.143  14.499  1.00  0.00     0.026 C
HETATM   31  C14 UNL     1      11.385 -16.123  14.417  1.00  0.00     0.038 C
ENDBRANCH  23  24
ENDBRANCH  20  23
ENDBRANCH   3  20
TORSDOF 9
ENDMDL