MODEL 3
REMARK VINA RESULT: -7.038552575      1.571      1.841
REMARK  8 active torsions:
REMARK  status: ('A' for Active; 'I' for Inactive)
REMARK    1  A    between atoms: O1_2  and  C2_3
REMARK    2  A    between atoms: C2_3  and  C3_5
REMARK    3  A    between atoms: C7_10  and  N1_11
REMARK    4  A    between atoms: C8_12  and  C9_13
REMARK    5  A    between atoms: C9_13  and  C10_14
REMARK    6  A    between atoms: C10_14  and  N2_15
REMARK    7  A    between atoms: C18_25  and  C19_26
REMARK    8  A    between atoms: C21_30  and  N4_31
ROOT
HETATM    1  N1  UNL     1      13.371 -15.316  14.930  1.00  0.00    -0.350 N
HETATM    2  C8  UNL     1      14.151 -16.498  14.705  1.00  0.00    -0.009 C
HETATM    3  C16 UNL     1      13.120 -17.560  14.400  1.00  0.00     0.055 C
HETATM    4  C17 UNL     1      12.024 -17.198  15.339  1.00  0.00     0.037 C
HETATM    5  C18 UNL     1      12.512 -15.822  15.876  1.00  0.00     0.131 C
ENDROOT
BRANCH   1   6
HETATM    6  C7  UNL     1      13.118 -14.488  13.850  1.00  0.00     0.007 C
HETATM    7  C3  UNL     1      13.595 -13.073  13.926  1.00  0.00     0.155 C
HETATM    8  C4  UNL     1      12.804 -12.026  13.245  1.00  0.00     0.188 C
HETATM    9  O3  UNL     1      11.462 -12.335  13.205  1.00  0.00    -0.390 OA
HETATM   10  C5  UNL     1      11.395 -13.453  12.343  1.00  0.00     0.173 C
HETATM   11  C6  UNL     1      11.780 -14.676  13.168  1.00  0.00     0.079 C
BRANCH   7  12
HETATM   12  C2  UNL     1      14.993 -12.893  13.331  1.00  0.00     0.270 C
HETATM   13  O2  UNL     1      16.008 -12.925  14.035  1.00  0.00    -0.264 OA
BRANCH  12  14
HETATM   14  O1  UNL     1      15.128 -12.693  11.957  1.00  0.00    -0.326 OA
HETATM   15  C1  UNL     1      15.667 -13.692  11.116  1.00  0.00     0.213 C
ENDBRANCH  12  14
ENDBRANCH   7  12
ENDBRANCH   1   6
BRANCH   2  16
HETATM   16  C9  UNL     1      15.400 -16.531  14.004  1.00  0.00     0.083 C
BRANCH  16  17
HETATM   17  C10 UNL     1      15.257 -17.151  12.618  1.00  0.00     0.278 C
BRANCH  17  18
HETATM   18  N2  UNL     1      16.284 -18.122  12.346  1.00  0.00     0.093 N
HETATM   19  C11 UNL     1      16.451 -18.357  10.956  1.00  0.00     0.298 C
HETATM   20  C12 UNL     1      17.129 -17.248  10.186  1.00  0.00     0.198 C
HETATM   21  O4  UNL     1      18.515 -17.462  10.085  1.00  0.00    -0.387 OA
HETATM   22  C13 UNL     1      19.066 -17.034  11.291  1.00  0.00     0.206 C
HETATM   23  C14 UNL     1      18.756 -18.092  12.343  1.00  0.00     0.222 C
HETATM   24  F1  UNL     1      19.813 -18.151  13.261  1.00  0.00    -0.245 F
HETATM   25  C15 UNL     1      17.481 -17.708  13.026  1.00  0.00     0.311 C
ENDBRANCH  17  18
ENDBRANCH  16  17
ENDBRANCH   2  16
BRANCH   5  26
HETATM   26  C19 UNL     1      11.397 -15.089  16.465  1.00  0.00     0.025 A
HETATM   27  C20 UNL     1      11.329 -13.749  16.790  1.00  0.00     0.107 A
HETATM   28  N3  UNL     1      10.250 -13.303  17.347  1.00  0.00    -0.346 N
HETATM   29  C21 UNL     1       9.243 -14.132  17.591  1.00  0.00     0.142 A
ATOM     30  H3  UNL     1      10.173 -12.317  17.597  1.00  0.00     0.167 HD
HETATM   31  S1  UNL     1       9.839 -15.614  17.011  1.00  0.00    -0.056 SA
BRANCH  29  32
HETATM   32  N4  UNL     1       8.082 -13.878  18.140  1.00  0.00    -0.380 N
ATOM     33  H42 UNL     1       7.816 -13.088  18.729  1.00  0.00     0.158 HD
ATOM     34  H41 UNL     1       7.217 -14.416  18.089  1.00  0.00     0.158 HD
ENDBRANCH  29  32
ENDBRANCH   5  26
TORSDOF 8
ENDMDL