MODEL 1
REMARK VINA RESULT: -6.782890008      0.000      0.000
REMARK  9 active torsions:
REMARK  status: ('A' for Active; 'I' for Inactive)
REMARK    1  A    between atoms: O1_2  and  C2_3
REMARK    2  A    between atoms: C3_5  and  C4_6
REMARK    3  A    between atoms: C12_15  and  O3_16
REMARK    4  A    between atoms: C12_15  and  C13_18
REMARK    5  A    between atoms: C13_18  and  C15_20
REMARK    6  A    between atoms: C15_20  and  C16_22
REMARK    7  A    between atoms: C16_22  and  O5_24
REMARK    8  A    between atoms: C20_29  and  O7_30
REMARK    9  A    between atoms: O7_30  and  C21_31
ROOT
HETATM    1  C2  UNL     1      13.311 -15.038  11.628  1.00  0.00     0.275 C
HETATM    2  O2  UNL     1      14.018 -14.854  10.490  1.00  0.00    -0.345 OA
HETATM    3  C3  UNL     1      14.995 -13.892  10.512  1.00  0.00     0.110 C
HETATM    4  C5  UNL     1      16.327 -14.652  10.442  1.00  0.00     0.043 C
HETATM    5  C6  UNL     1      16.230 -16.077  10.773  1.00  0.00     0.020 C
HETATM    6  C7  UNL     1      16.428 -16.464  12.221  1.00  0.00     0.012 C
HETATM    7  C8  UNL     1      17.532 -15.686  12.883  1.00  0.00     0.023 C
HETATM    8  C9  UNL     1      15.181 -16.079  12.933  1.00  0.00    -0.056 C
HETATM    9  C10 UNL     1      14.988 -16.973  13.889  1.00  0.00    -0.019 C
HETATM   10  C11 UNL     1      16.062 -18.007  13.894  1.00  0.00     0.067 C
HETATM   11  C12 UNL     1      16.434 -17.915  12.399  1.00  0.00     0.082 C
HETATM   12  C18 UNL     1      14.138 -15.024  12.880  1.00  0.00     0.143 C
HETATM   13  C19 UNL     1      14.702 -13.642  12.970  1.00  0.00     0.172 C
HETATM   14  O6  UNL     1      14.900 -13.057  13.998  1.00  0.00    -0.294 OA
HETATM   15  C20 UNL     1      15.027 -12.985  11.673  1.00  0.00     0.237 C
ENDROOT
BRANCH  11  16
HETATM   16  O3  UNL     1      15.254 -18.398  11.769  1.00  0.00    -0.388 OA
ATOM     17  H3  UNL     1      15.161 -19.306  12.037  1.00  0.00     0.210 HD
ENDBRANCH  11  16
BRANCH  11  18
HETATM   18  C13 UNL     1      17.551 -18.787  12.150  1.00  0.00     0.089 C
HETATM   19  C14 UNL     1      18.603 -18.845  13.251  1.00  0.00     0.021 C
BRANCH  18  20
HETATM   20  C15 UNL     1      18.255 -18.756  10.871  1.00  0.00     0.161 C
HETATM   21  O4  UNL     1      19.124 -17.934  10.640  1.00  0.00    -0.295 OA
BRANCH  20  22
HETATM   22  C16 UNL     1      17.985 -19.699   9.752  1.00  0.00     0.184 C
HETATM   23  C17 UNL     1      18.979 -19.394   8.622  1.00  0.00     0.047 C
BRANCH  22  24
HETATM   24  O5  UNL     1      16.687 -19.597   9.293  1.00  0.00    -0.388 OA
ATOM     25  H5  UNL     1      16.352 -18.711   9.368  1.00  0.00     0.210 HD
ENDBRANCH  22  24
ENDBRANCH  20  22
ENDBRANCH  18  20
ENDBRANCH  11  18
BRANCH   3  26
HETATM   26  C4  UNL     1      14.795 -13.048   9.266  1.00  0.00     0.156 C
HETATM   27 CL1  UNL     1      16.354 -12.626   8.576  1.00  0.00    -0.127 Cl
ENDBRANCH   3  26
BRANCH   1  28
HETATM   28  O1  UNL     1      12.279 -14.117  11.802  1.00  0.00    -0.365 OA
HETATM   29  C1  UNL     1      11.422 -14.064  10.705  1.00  0.00     0.204 C
ENDBRANCH   1  28
BRANCH  15  30
HETATM   30  O7  UNL     1      14.287 -11.786  11.546  1.00  0.00    -0.305 OA
BRANCH  30  31
HETATM   31  C21 UNL     1      14.843 -10.528  11.760  1.00  0.00     0.255 C
HETATM   32  C22 UNL     1      15.688  -9.788  10.829  1.00  0.00     0.126 C
HETATM   33  O8  UNL     1      14.572  -9.991  12.888  1.00  0.00    -0.266 OA
ENDBRANCH  30  31
ENDBRANCH  15  30
TORSDOF 9
ENDMDL