MODEL 3
REMARK VINA RESULT: -6.632167192      3.314      6.249
REMARK  7 active torsions:
REMARK  status: ('A' for Active; 'I' for Inactive)
REMARK    1  A    between atoms: C2_2  and  O1_5
REMARK    2  A    between atoms: O1_5  and  C4_6
REMARK    3  A    between atoms: N1_9  and  C7_10
REMARK    4  A    between atoms: C8_14  and  C9_15
REMARK    5  A    between atoms: C10_18  and  C11_19
REMARK    6  A    between atoms: C11_19  and  N4_20
REMARK    7  A    between atoms: N4_20  and  C12_22
ROOT
HETATM    1  C7  UNL     1      15.126 -12.291  11.210  1.00  0.00     0.099 A
HETATM    2  S1  UNL     1      15.169 -10.590  10.872  1.00  0.00     0.005 SA
HETATM    3  N2  UNL     1      15.824 -10.655   9.369  1.00  0.00    -0.320 N
ATOM      4  H2  UNL     1      16.040  -9.866   8.760  1.00  0.00     0.174 HD
HETATM    5  C8  UNL     1      16.018 -11.939   9.105  1.00  0.00     0.115 A
HETATM    6  C10 UNL     1      15.641 -12.840  10.069  1.00  0.00     0.026 A
ENDROOT
BRANCH   1   7
HETATM    7  N1  UNL     1      14.750 -12.854  12.440  1.00  0.00    -0.373 N
HETATM    8  C6  UNL     1      13.327 -13.100  12.726  1.00  0.00     0.126 C
HETATM    9  C5  UNL     1      13.263 -14.634  12.456  1.00  0.00     0.052 C
HETATM   10  C4  UNL     1      13.974 -15.241  13.606  1.00  0.00     0.127 C
HETATM   11  C17 UNL     1      15.004 -14.376  14.299  1.00  0.00     0.052 C
HETATM   12  C16 UNL     1      15.675 -13.364  13.388  1.00  0.00     0.126 C
BRANCH  10  13
HETATM   13  O1  UNL     1      12.987 -15.519  14.563  1.00  0.00    -0.360 OA
BRANCH  13  14
HETATM   14  C2  UNL     1      12.914 -16.820  14.956  1.00  0.00     0.130 C
HETATM   15  C1  UNL     1      11.550 -17.076  15.625  1.00  0.00     0.064 C
HETATM   16  C3  UNL     1      14.017 -17.203  15.937  1.00  0.00     0.064 C
HETATM   17 CL1  UNL     1      13.023 -17.885  13.554  1.00  0.00    -0.089 Cl
ENDBRANCH  13  14
ENDBRANCH  10  13
ENDBRANCH   1   7
BRANCH   6  18
HETATM   18  C11 UNL     1      15.705 -14.338   9.746  1.00  0.00     0.158 C
BRANCH  18  19
HETATM   19  N4  UNL     1      16.869 -14.825  10.410  1.00  0.00    -0.412 N
ATOM     20  H4  UNL     1      17.713 -14.267  10.275  1.00  0.00     0.153 HD
BRANCH  19  21
HETATM   21  C12 UNL     1      17.021 -15.921  11.197  1.00  0.00     0.091 C
HETATM   22  C13 UNL     1      16.019 -17.030  11.336  1.00  0.00     0.040 C
HETATM   23  C14 UNL     1      16.653 -17.778  12.567  1.00  0.00     0.142 C
HETATM   24  S2  UNL     1      18.272 -18.066  11.823  1.00  0.00     0.146 S
HETATM   25  O3  UNL     1      18.351 -19.424  11.223  1.00  0.00    -0.228 OA
HETATM   26  O4  UNL     1      19.384 -17.821  12.779  1.00  0.00    -0.228 OA
HETATM   27  C15 UNL     1      18.210 -16.781  10.556  1.00  0.00     0.164 C
ENDBRANCH  19  21
ENDBRANCH  18  19
ENDBRANCH   6  18
BRANCH   5  28
HETATM   28  C9  UNL     1      16.899 -12.274   7.905  1.00  0.00     0.282 C
HETATM   29  N3  UNL     1      16.321 -12.636   6.667  1.00  0.00    -0.056 NA
HETATM   30  O2  UNL     1      18.142 -12.224   7.967  1.00  0.00    -0.269 OA
ENDBRANCH   5  28
TORSDOF 7
ENDMDL