MODEL 2
REMARK VINA RESULT: -8.036021967      4.474      9.777
REMARK  10 active torsions:
REMARK  status: ('A' for Active; 'I' for Inactive)
REMARK    1  A    between atoms: C2_4  and  S1_6
REMARK    2  A    between atoms: S1_6  and  C3_7
REMARK    3  A    between atoms: C3_7  and  C4_8
REMARK    4  A    between atoms: C5_10  and  O2_11
REMARK    5  A    between atoms: C7_13  and  N3_14
REMARK    6  A    between atoms: C9_19  and  N4_20
REMARK       I    between atoms: N4_20  and  C10_22
REMARK    7  A    between atoms: C10_22  and  C11_24
REMARK    8  A    between atoms: C12_26  and  O5_27
REMARK    9  A    between atoms: C13_29  and  N5_30
REMARK   10  A    between atoms: N5_30  and  O6_31
ROOT
HETATM    1  C4  UNL     1     -58.417  13.862  20.167  1.00  0.00     0.157 C
HETATM    2  O1  UNL     1     -59.078  14.822  20.800  1.00  0.00    -0.351 OA
HETATM    3  C5  UNL     1     -60.078  15.524  20.289  1.00  0.00     0.290 C
HETATM    4  C7  UNL     1     -60.585  15.204  18.936  1.00  0.00     0.240 C
HETATM    5  C8  UNL     1     -59.493  14.680  18.046  1.00  0.00     0.065 C
HETATM    6  C9  UNL     1     -58.641  13.639  18.721  1.00  0.00     0.116 C
ENDROOT
BRANCH   6   7
HETATM    7  N4  UNL     1     -57.401  13.560  17.975  1.00  0.00    -0.352 N
HETATM    8  C10 UNL     1     -56.345  14.494  18.140  1.00  0.00     0.248 C
HETATM    9  O3  UNL     1     -56.540  15.411  18.981  1.00  0.00    -0.271 OA
ATOM     10  H4  UNL     1     -57.283  12.803  17.303  1.00  0.00     0.163 HD
BRANCH   8  11
HETATM   11  C11 UNL     1     -55.083  14.451  17.411  1.00  0.00     0.231 C
HETATM   12  O4  UNL     1     -55.080  15.445  16.439  1.00  0.00    -0.344 OA
HETATM   13  C12 UNL     1     -54.708  16.650  17.033  1.00  0.00     0.279 C
HETATM   14  C13 UNL     1     -53.246  16.668  17.319  1.00  0.00     0.162 C
HETATM   15  C14 UNL     1     -52.766  15.234  17.481  1.00  0.00     0.047 C
HETATM   16  C15 UNL     1     -53.865  14.537  18.295  1.00  0.00     0.098 C
HETATM   17  S2  UNL     1     -53.304  12.895  18.828  1.00  0.00    -0.089 SA
BRANCH  13  18
HETATM   18  O5  UNL     1     -55.162  17.677  16.223  1.00  0.00    -0.369 OA
ATOM     19  H5  UNL     1     -55.227  18.460  16.757  1.00  0.00     0.212 HD
ENDBRANCH  13  18
BRANCH  14  20
HETATM   20  N5  UNL     1     -52.548  17.354  16.271  1.00  0.00    -0.094 NA
BRANCH  20  21
HETATM   21  O6  UNL     1     -52.848  16.770  15.095  1.00  0.00    -0.295 OA
ATOM     22  H6  UNL     1     -52.063  16.363  14.746  1.00  0.00     0.238 HD
ENDBRANCH  20  21
ENDBRANCH  14  20
ENDBRANCH   8  11
ENDBRANCH   6   7
BRANCH   1  23
HETATM   23  C3  UNL     1     -58.619  12.525  20.896  1.00  0.00     0.116 C
BRANCH  23  24
HETATM   24  S1  UNL     1     -59.279  12.745  22.539  1.00  0.00    -0.095 SA
BRANCH  24  25
HETATM   25  C2  UNL     1     -60.918  12.076  22.612  1.00  0.00     0.149 C
HETATM   26  N1  UNL     1     -61.355  11.578  23.705  1.00  0.00    -0.377 N
HETATM   27  C1  UNL     1     -62.682  11.011  23.849  1.00  0.00     0.148 C
ATOM     28  H1  UNL     1     -60.739  11.579  24.518  1.00  0.00     0.160 HD
HETATM   29  N2  UNL     1     -61.748  12.085  21.475  1.00  0.00    -0.075 NA
ENDBRANCH  24  25
ENDBRANCH  23  24
ENDBRANCH   1  23
BRANCH   4  30
HETATM   30  N3  UNL     1     -61.708  14.289  19.027  1.00  0.00    -0.070 N
ATOM     31  H33 UNL     1     -62.573  14.771  19.271  1.00  0.00     0.274 HD
ATOM     32  H32 UNL     1     -61.987  13.935  18.113  1.00  0.00     0.274 HD
ATOM     33  H31 UNL     1     -61.494  13.535  19.679  1.00  0.00     0.274 HD
ENDBRANCH   4  30
BRANCH   3  34
HETATM   34  O2  UNL     1     -61.178  15.451  21.172  1.00  0.00    -0.364 OA
HETATM   35  C6  UNL     1     -60.855  15.769  22.464  1.00  0.00     0.204 C
ENDBRANCH   3  34
TORSDOF 10
ENDMDL