MODEL 5
REMARK VINA RESULT: -9.960588973      1.649      2.399
REMARK  9 active torsions:
REMARK  status: ('A' for Active; 'I' for Inactive)
REMARK    1  A    between atoms: N1_1  and  C1_4
REMARK    2  A    between atoms: C1_4  and  N2_5
REMARK    3  A    between atoms: C1_4  and  C9_33
REMARK    4  A    between atoms: N2_5  and  C2_7
REMARK    5  A    between atoms: C4_10  and  N3_11
REMARK    6  A    between atoms: C4_10  and  N7_25
REMARK       I    between atoms: N3_11  and  C5_13
REMARK    7  A    between atoms: C5_13  and  C6_15
REMARK    8  A    between atoms: C11_35  and  C12_36
REMARK    9  A    between atoms: C15_41  and  O8_42
ROOT
HETATM    1  C2  UNL     1     -54.110  14.367  17.965  1.00  0.00     0.217 A
HETATM    2  C3  UNL     1     -52.854  14.651  18.667  1.00  0.00     0.207 A
HETATM    3  O1  UNL     1     -51.991  14.296  19.452  1.00  0.00    -0.291 OA
HETATM    4  C4  UNL     1     -53.441  15.673  17.705  1.00  0.00     0.225 A
ENDROOT
BRANCH   4   5
HETATM    5  N3  UNL     1     -52.802  15.886  16.433  1.00  0.00    -0.319 N
HETATM    6  C5  UNL     1     -51.432  16.168  16.272  1.00  0.00     0.276 C
HETATM    7  O2  UNL     1     -50.749  16.229  17.338  1.00  0.00    -0.266 OA
ATOM      8  H3  UNL     1     -53.379  15.828  15.594  1.00  0.00     0.166 HD
BRANCH   6   9
HETATM    9  C6  UNL     1     -50.743  16.391  15.023  1.00  0.00     0.169 A
HETATM   10  N4  UNL     1     -51.294  17.061  13.968  1.00  0.00    -0.233 N
HETATM   11  O3  UNL     1     -50.445  17.099  13.002  1.00  0.00    -0.155 OA
ATOM     12  H4  UNL     1     -52.230  17.466  13.950  1.00  0.00     0.197 HD
HETATM   13  N5  UNL     1     -49.353  16.512  13.301  1.00  0.00    -0.224 N
HETATM   14  C7  UNL     1     -49.496  16.045  14.575  1.00  0.00     0.155 A
ATOM     15  H5  UNL     1     -48.532  16.411  12.704  1.00  0.00     0.198 HD
HETATM   16  N6  UNL     1     -48.625  15.396  15.249  1.00  0.00    -0.382 N
ATOM     17  H62 UNL     1     -48.732  15.047  16.202  1.00  0.00     0.157 HD
ATOM     18  H61 UNL     1     -47.696  15.138  14.916  1.00  0.00     0.157 HD
ENDBRANCH   6   9
ENDBRANCH   4   5
BRANCH   4  19
HETATM   19  N7  UNL     1     -53.858  16.867  18.416  1.00  0.00    -0.179 N
HETATM   20  N8  UNL     1     -53.750  17.222  19.677  1.00  0.00    -0.173 N
HETATM   21  O4  UNL     1     -54.282  18.406  19.848  1.00  0.00    -0.137 OA
ATOM     22  H8  UNL     1     -53.318  16.660  20.411  1.00  0.00     0.219 HD
HETATM   23  N9  UNL     1     -54.745  18.845  18.718  1.00  0.00    -0.188 N
HETATM   24  C8  UNL     1     -54.488  17.894  17.808  1.00  0.00     0.367 A
ATOM     25  H9  UNL     1     -55.211  19.737  18.553  1.00  0.00     0.202 HD
HETATM   26  O5  UNL     1     -54.798  17.980  16.590  1.00  0.00    -0.243 OA
ENDBRANCH   4  19
BRANCH   1  27
HETATM   27  N2  UNL     1     -55.380  14.424  18.631  1.00  0.00    -0.360 N
ATOM     28  H2  UNL     1     -55.457  14.565  19.639  1.00  0.00     0.162 HD
BRANCH  27  29
HETATM   29  C1  UNL     1     -56.547  14.268  17.786  1.00  0.00     0.108 C
BRANCH  29  30
HETATM   30  N1  UNL     1     -56.438  14.486  16.542  1.00  0.00    -0.385 N
ATOM     31  H12 UNL     1     -55.703  14.061  15.977  1.00  0.00     0.157 HD
ATOM     32  H11 UNL     1     -57.108  15.108  16.089  1.00  0.00     0.157 HD
ENDBRANCH  29  30
BRANCH  29  33
HETATM   33  C9  UNL     1     -57.811  13.864  18.401  1.00  0.00     0.041 A
HETATM   34  C10 UNL     1     -58.956  14.592  18.211  1.00  0.00     0.036 A
HETATM   35  C11 UNL     1     -60.191  14.267  18.766  1.00  0.00     0.041 A
HETATM   36  C13 UNL     1     -60.229  13.135  19.547  1.00  0.00     0.021 A
HETATM   37  C14 UNL     1     -59.075  12.384  19.751  1.00  0.00     0.038 A
HETATM   38  C15 UNL     1     -57.873  12.728  19.192  1.00  0.00     0.079 A
BRANCH  35  39
HETATM   39  C12 UNL     1     -61.392  15.051  18.554  1.00  0.00     0.209 C
HETATM   40  O6  UNL     1     -61.695  15.431  17.386  1.00  0.00    -0.644 OA
HETATM   41  O7  UNL     1     -62.243  15.416  19.574  1.00  0.00    -0.644 OA
ENDBRANCH  35  39
BRANCH  38  42
HETATM   42  O8  UNL     1     -56.723  11.979  19.394  1.00  0.00    -0.360 OA
ATOM     43  H8  UNL     1     -56.786  11.031  19.426  1.00  0.00     0.217 HD
ENDBRANCH  38  42
ENDBRANCH  29  33
ENDBRANCH  27  29
ENDBRANCH   1  27
TORSDOF 9
ENDMDL