MODEL 2
REMARK VINA RESULT: -9.681419735      0.669      1.009
REMARK  8 active torsions:
REMARK  status: ('A' for Active; 'I' for Inactive)
REMARK    1  A    between atoms: N1_1  and  N2_4
REMARK       I    between atoms: N2_4  and  C1_6
REMARK    2  A    between atoms: C1_6  and  C2_8
REMARK       I    between atoms: N4_11  and  C3_12
REMARK    3  A    between atoms: C3_12  and  C4_14
REMARK    4  A    between atoms: C4_14  and  C5_15
REMARK    5  A    between atoms: C5_15  and  N5_16
REMARK    6  A    between atoms: C11_26  and  N7_27
REMARK    7  A    between atoms: N8_29  and  C12_31
REMARK    8  A    between atoms: C13_32  and  O4_33
ROOT
HETATM    1  C2  UNL     1     -54.300  16.499  17.180  1.00  0.00     0.152 A
HETATM    2  N3  UNL     1     -55.457  15.838  17.255  1.00  0.00    -0.281 N
ATOM      3  H3  UNL     1     -56.354  16.127  16.862  1.00  0.00     0.188 HD
HETATM    4  N4  UNL     1     -55.209  14.723  17.946  1.00  0.00    -0.184 N
HETATM    5  C3  UNL     1     -56.171  13.714  18.267  1.00  0.00     0.247 C
HETATM    6  O2  UNL     1     -55.788  12.721  18.925  1.00  0.00    -0.271 OA
HETATM    7  C10 UNL     1     -53.924  14.658  18.312  1.00  0.00     0.300 A
HETATM    8  O3  UNL     1     -53.333  13.758  18.971  1.00  0.00    -0.263 OA
HETATM    9  C11 UNL     1     -53.316  15.793  17.830  1.00  0.00     0.152 A
ENDROOT
BRANCH   9  10
HETATM   10  N7  UNL     1     -51.941  16.114  18.003  1.00  0.00    -0.293 N
HETATM   11  N8  UNL     1     -51.084  15.806  17.099  1.00  0.00    -0.291 N
ATOM     12  H8  UNL     1     -51.403  15.328  16.257  1.00  0.00     0.187 HD
ATOM     13  H7  UNL     1     -51.634  16.593  18.850  1.00  0.00     0.187 HD
BRANCH  11  14
HETATM   14  C12 UNL     1     -49.721  16.108  17.237  1.00  0.00     0.168 A
HETATM   15  C13 UNL     1     -49.019  15.884  18.406  1.00  0.00     0.178 A
HETATM   16  N9  UNL     1     -47.706  16.184  18.513  1.00  0.00    -0.287 N
HETATM   17  C14 UNL     1     -47.042  16.715  17.471  1.00  0.00     0.329 A
ATOM     18  H9  UNL     1     -47.215  16.006  19.389  1.00  0.00     0.172 HD
HETATM   19  O5  UNL     1     -45.816  17.001  17.557  1.00  0.00    -0.247 OA
HETATM   20  N10 UNL     1     -47.709  16.937  16.341  1.00  0.00    -0.273 N
HETATM   21  C15 UNL     1     -49.012  16.660  16.171  1.00  0.00     0.281 A
ATOM     22  H10 UNL     1     -47.199  17.341  15.556  1.00  0.00     0.173 HD
HETATM   23  O6  UNL     1     -49.634  16.869  15.108  1.00  0.00    -0.265 OA
BRANCH  15  24
HETATM   24  O4  UNL     1     -49.725  15.332  19.474  1.00  0.00    -0.344 OA
ATOM     25  H4  UNL     1     -49.251  14.738  20.044  1.00  0.00     0.219 HD
ENDBRANCH  15  24
ENDBRANCH  11  14
ENDBRANCH   9  10
BRANCH   1  26
HETATM   26  C1  UNL     1     -54.128  17.782  16.502  1.00  0.00     0.290 C
HETATM   27  N2  UNL     1     -53.294  17.920  15.363  1.00  0.00    -0.271 N
ATOM     28  H2  UNL     1     -52.810  17.088  15.023  1.00  0.00     0.189 HD
HETATM   29  O1  UNL     1     -54.744  18.773  16.960  1.00  0.00    -0.264 OA
BRANCH  27  30
HETATM   30  N1  UNL     1     -53.093  19.103  14.684  1.00  0.00    -0.342 N
ATOM     31  H12 UNL     1     -53.920  19.669  14.495  1.00  0.00     0.176 HD
ATOM     32  H11 UNL     1     -52.184  19.437  14.366  1.00  0.00     0.176 HD
ENDBRANCH  27  30
ENDBRANCH   1  26
BRANCH   5  33
HETATM   33  C4  UNL     1     -57.577  13.876  17.814  1.00  0.00     0.135 C
BRANCH  33  34
HETATM   34  C5  UNL     1     -58.533  13.047  18.609  1.00  0.00     0.282 C
BRANCH  34  35
HETATM   35  N5  UNL     1     -59.323  13.815  19.535  1.00  0.00     0.092 N
HETATM   36  C6  UNL     1     -59.607  15.101  18.916  1.00  0.00     0.300 C
HETATM   37  C7  UNL     1     -60.823  14.998  18.005  1.00  0.00     0.262 C
HETATM   38  N6  UNL     1     -62.014  14.701  18.766  1.00  0.00    -0.072 N
HETATM   39  C8  UNL     1     -61.710  14.092  20.047  1.00  0.00     0.262 C
ATOM     40  H62 UNL     1     -62.594  15.532  18.882  1.00  0.00     0.277 HD
ATOM     41  H61 UNL     1     -62.662  14.126  18.228  1.00  0.00     0.277 HD
HETATM   42  C9  UNL     1     -60.545  13.132  19.909  1.00  0.00     0.300 C
ENDBRANCH  34  35
ENDBRANCH  33  34
ENDBRANCH   5  33
TORSDOF 8
ENDMDL