MODEL 1
REMARK VINA RESULT: -8.973969744      0.000      0.000
REMARK  9 active torsions:
REMARK  status: ('A' for Active; 'I' for Inactive)
REMARK    1  A    between atoms: C3_6  and  C4_7
REMARK    2  A    between atoms: C5_8  and  O2_9
REMARK    3  A    between atoms: C6_13  and  N3_14
REMARK    4  A    between atoms: C7_19  and  C8_20
REMARK       I    between atoms: C8_20  and  N5_22
REMARK    5  A    between atoms: N5_22  and  N6_23
REMARK    6  A    between atoms: N5_22  and  N9_30
REMARK    7  A    between atoms: N6_23  and  N7_25
REMARK    8  A    between atoms: N7_25  and  N8_27
REMARK    9  A    between atoms: C10_32  and  C11_33
ROOT
HETATM    1  C8  UNL     1     -50.242  16.419  16.000  1.00  0.00     0.291 C
HETATM    2  O3  UNL     1     -50.462  15.252  15.684  1.00  0.00    -0.269 OA
HETATM    3  N5  UNL     1     -51.464  17.182  16.184  1.00  0.00    -0.025 NA
ENDROOT
BRANCH   1   4
HETATM    4  C7  UNL     1     -48.955  17.048  16.191  1.00  0.00     0.133 A
HETATM    5  C4  UNL     1     -48.015  16.555  17.040  1.00  0.00     0.101 A
HETATM    6  C5  UNL     1     -46.767  17.222  17.063  1.00  0.00     0.172 A
HETATM    7  N2  UNL     1     -46.532  18.289  16.282  1.00  0.00    -0.170 N
HETATM    8  C6  UNL     1     -47.478  18.761  15.451  1.00  0.00     0.678 A
ATOM      9  H2  UNL     1     -45.623  18.749  16.320  1.00  0.00     0.186 HD
HETATM   10  N4  UNL     1     -48.666  18.159  15.401  1.00  0.00    -0.186 N
ATOM     11  H4  UNL     1     -49.381  18.520  14.769  1.00  0.00     0.184 HD
BRANCH   5  12
HETATM   12  C3  UNL     1     -48.208  15.430  17.938  1.00  0.00     0.188 A
HETATM   13  O1  UNL     1     -49.097  15.144  18.811  1.00  0.00    -0.217 OA
HETATM   14  N1  UNL     1     -48.909  14.020  19.413  1.00  0.00    -0.247 N
HETATM   15  C2  UNL     1     -47.769  13.463  18.909  1.00  0.00     0.100 A
ATOM     16  H1  UNL     1     -49.505  13.619  20.137  1.00  0.00     0.196 HD
HETATM   17  C1  UNL     1     -47.165  12.166  19.307  1.00  0.00     0.091 C
HETATM   18  N13 UNL     1     -47.353  14.350  17.999  1.00  0.00    -0.323 N
ATOM     19  H13 UNL     1     -46.516  14.243  17.427  1.00  0.00     0.169 HD
ENDBRANCH   5  12
BRANCH   6  20
HETATM   20  O2  UNL     1     -45.806  16.719  17.927  1.00  0.00    -0.345 OA
ATOM     21  H2  UNL     1     -45.054  16.296  17.530  1.00  0.00     0.219 HD
ENDBRANCH   6  20
BRANCH   8  22
HETATM   22  N3  UNL     1     -47.226  19.785  14.716  1.00  0.00    -0.234 N
ATOM     23  H32 UNL     1     -46.519  20.467  14.993  1.00  0.00     0.174 HD
ATOM     24  H31 UNL     1     -47.738  19.919  13.844  1.00  0.00     0.174 HD
ENDBRANCH   8  22
ENDBRANCH   1   4
BRANCH   3  25
HETATM   25  N6  UNL     1     -52.087  17.353  14.926  1.00  0.00    -0.221 N
ATOM     26  H6  UNL     1     -53.031  17.737  14.900  1.00  0.00     0.206 HD
BRANCH  25  27
HETATM   27  N7  UNL     1     -51.471  17.021  13.716  1.00  0.00    -0.237 N
ATOM     28  H7  UNL     1     -50.746  17.643  13.356  1.00  0.00     0.209 HD
BRANCH  27  29
HETATM   29  N8  UNL     1     -51.765  15.987  13.042  1.00  0.00    -0.330 N
ATOM     30  H82 UNL     1     -51.780  15.095  13.537  1.00  0.00     0.178 HD
ATOM     31  H81 UNL     1     -51.983  16.008  12.046  1.00  0.00     0.178 HD
ENDBRANCH  27  29
ENDBRANCH  25  27
ENDBRANCH   3  25
BRANCH   3  32
HETATM   32  N9  UNL     1     -52.356  16.426  16.953  1.00  0.00    -0.200 N
HETATM   33  C9  UNL     1     -53.652  16.231  16.657  1.00  0.00     0.150 A
HETATM   34  C10 UNL     1     -54.218  15.432  17.649  1.00  0.00     0.052 A
HETATM   35  C13 UNL     1     -53.205  15.169  18.530  1.00  0.00     0.126 A
HETATM   36  N12 UNL     1     -52.104  15.788  18.070  1.00  0.00    -0.292 N
ATOM     37  H12 UNL     1     -51.194  15.764  18.529  1.00  0.00     0.187 HD
BRANCH  34  38
HETATM   38  C11 UNL     1     -55.592  14.965  17.744  1.00  0.00     0.178 A
HETATM   39  N10 UNL     1     -56.294  14.396  16.758  1.00  0.00    -0.276 N
HETATM   40  N11 UNL     1     -57.516  14.098  17.214  1.00  0.00    -0.268 N
ATOM     41  H10 UNL     1     -55.953  14.217  15.814  1.00  0.00     0.189 HD
HETATM   42  C12 UNL     1     -57.559  14.492  18.493  1.00  0.00     0.235 A
ATOM     43  H11 UNL     1     -58.270  13.655  16.688  1.00  0.00     0.190 HD
HETATM   44  S1  UNL     1     -58.839  14.344  19.483  1.00  0.00    -0.031 SA
HETATM   45  O4  UNL     1     -56.384  15.012  18.790  1.00  0.00    -0.264 OA
ENDBRANCH  34  38
ENDBRANCH   3  32
TORSDOF 9
ENDMDL