MODEL 5
REMARK VINA RESULT: -7.410975067      2.875      3.500
REMARK  6 active torsions:
REMARK  status: ('A' for Active; 'I' for Inactive)
REMARK    1  A    between atoms: C1_2  and  C2_4
REMARK    2  A    between atoms: C3_5  and  S1_6
REMARK    3  A    between atoms: S1_6  and  C4_7
REMARK    4  A    between atoms: C6_11  and  N3_12
REMARK       I    between atoms: N3_12  and  C7_14
REMARK       I    between atoms: C7_14  and  N4_15
REMARK       I    between atoms: C7_14  and  N5_19
REMARK    5  A    between atoms: C11_27  and  N6_28
REMARK       I    between atoms: N6_28  and  C12_30
REMARK       I    between atoms: C12_30  and  N7_32
REMARK    6  A    between atoms: N7_32  and  N8_34
ROOT
HETATM    1  C2  UNL     1     -54.788  15.765  17.902  1.00  0.00     0.127 C
HETATM    2  C3  UNL     1     -53.552  15.302  18.088  1.00  0.00     0.021 C
HETATM    3  C9  UNL     1     -53.205  13.941  18.557  1.00  0.00     0.124 C
HETATM    4  S2  UNL     1     -54.628  12.834  18.738  1.00  0.00    -0.135 SA
HETATM    5  C10 UNL     1     -55.992  13.974  19.196  1.00  0.00     0.190 C
HETATM    6  C11 UNL     1     -57.336  13.332  19.088  1.00  0.00     0.137 C
HETATM    7  C13 UNL     1     -57.748  13.689  17.675  1.00  0.00     0.163 C
HETATM    8  N9  UNL     1     -57.169  15.002  17.436  1.00  0.00    -0.135 NA
HETATM    9  N10 UNL     1     -55.946  14.984  18.129  1.00  0.00    -0.273 N
ENDROOT
BRANCH   2  10
HETATM   10  S1  UNL     1     -52.183  16.376  17.739  1.00  0.00    -0.124 SA
BRANCH  10  11
HETATM   11  C4  UNL     1     -51.780  16.350  15.995  1.00  0.00     0.077 C
HETATM   12  C5  UNL     1     -51.830  17.775  15.419  1.00  0.00     0.137 C
HETATM   13  N2  UNL     1     -50.948  17.695  14.284  1.00  0.00    -0.379 N
HETATM   14  C6  UNL     1     -50.148  16.718  14.380  1.00  0.00     0.076 C
ATOM     15  H2  UNL     1     -50.967  18.345  13.498  1.00  0.00     0.160 HD
HETATM   16  C8  UNL     1     -50.387  15.947  15.662  1.00  0.00     0.093 C
BRANCH  14  17
HETATM   17  N3  UNL     1     -49.142  16.329  13.457  1.00  0.00    -0.331 N
HETATM   18  C7  UNL     1     -48.120  15.373  13.858  1.00  0.00     0.481 C
HETATM   19  N4  UNL     1     -47.429  15.940  14.997  1.00  0.00    -0.033 N
HETATM   20  N5  UNL     1     -47.243  15.142  12.759  1.00  0.00    -0.033 N
ATOM     21  H43 UNL     1     -47.055  16.871  14.816  1.00  0.00     0.278 HD
ATOM     22  H42 UNL     1     -48.056  16.196  15.759  1.00  0.00     0.278 HD
ATOM     23  H41 UNL     1     -46.713  15.270  15.279  1.00  0.00     0.278 HD
ATOM     24  H53 UNL     1     -47.741  14.847  11.919  1.00  0.00     0.278 HD
ATOM     25  H52 UNL     1     -46.843  16.006  12.392  1.00  0.00     0.278 HD
ATOM     26  H51 UNL     1     -46.527  14.472  13.040  1.00  0.00     0.278 HD
ATOM     27  H3  UNL     1     -49.136  16.718  12.514  1.00  0.00     0.164 HD
ENDBRANCH  14  17
ENDBRANCH  10  11
ENDBRANCH   2  10
BRANCH   1  28
HETATM   28  C1  UNL     1     -54.998  17.114  17.431  1.00  0.00     0.283 C
HETATM   29  N1  UNL     1     -54.997  18.229  18.292  1.00  0.00    -0.056 NA
HETATM   30  O1  UNL     1     -55.192  17.349  16.205  1.00  0.00    -0.269 OA
ENDBRANCH   1  28
BRANCH   6  31
HETATM   31  N6  UNL     1     -58.252  14.073  19.964  1.00  0.00    -0.333 N
HETATM   32  C12 UNL     1     -59.336  13.488  20.633  1.00  0.00     0.340 C
HETATM   33  O2  UNL     1     -59.556  12.268  20.494  1.00  0.00    -0.245 OA
HETATM   34  N7  UNL     1     -60.177  14.261  21.457  1.00  0.00    -0.191 N
ATOM     35  H7  UNL     1     -59.994  15.259  21.565  1.00  0.00     0.198 HD
ATOM     36  H6  UNL     1     -58.089  15.071  20.093  1.00  0.00     0.164 HD
BRANCH  34  37
HETATM   37  N8  UNL     1     -61.252  13.688  22.127  1.00  0.00    -0.035 N
HETATM   38  O3  UNL     1     -61.168  13.374  23.353  1.00  0.00    -0.516 OA
HETATM   39  O4  UNL     1     -62.445  13.434  21.498  1.00  0.00    -0.516 OA
ENDBRANCH  34  37
ENDBRANCH   6  31
TORSDOF 6
ENDMDL