MODEL 1
REMARK VINA RESULT: -9.726086013      0.000      0.000
REMARK  9 active torsions:
REMARK  status: ('A' for Active; 'I' for Inactive)
REMARK    1  A    between atoms: N1_1  and  C1_4
REMARK    2  A    between atoms: C2_7  and  O1_8
REMARK    3  A    between atoms: C3_10  and  C4_11
REMARK    4  A    between atoms: N3_12  and  N4_14
REMARK    5  A    between atoms: N4_14  and  C5_16
REMARK    6  A    between atoms: C6_17  and  N5_18
REMARK    7  A    between atoms: C8_22  and  S1_23
REMARK    8  A    between atoms: C10_28  and  S2_29
REMARK    9  A    between atoms: S2_29  and  N6_30
ROOT
HETATM    1  C5  UNL     1     -51.971  16.138  16.497  1.00  0.00     0.104 A
HETATM    2  C6  UNL     1     -51.535  15.957  17.791  1.00  0.00     0.134 A
HETATM    3  C7  UNL     1     -50.146  15.921  18.013  1.00  0.00     0.065 A
HETATM    4  C8  UNL     1     -49.229  16.056  17.015  1.00  0.00     0.084 A
HETATM    5  C9  UNL     1     -49.704  16.235  15.734  1.00  0.00     0.054 A
HETATM    6  C10 UNL     1     -51.075  16.280  15.450  1.00  0.00     0.111 A
ENDROOT
BRANCH   1   7
HETATM    7  N4  UNL     1     -53.347  16.169  16.191  1.00  0.00    -0.297 N
ATOM      8  H4  UNL     1     -53.614  16.631  15.322  1.00  0.00     0.187 HD
BRANCH   7   9
HETATM    9  N3  UNL     1     -54.377  15.633  16.954  1.00  0.00    -0.310 N
HETATM   10  C4  UNL     1     -54.697  14.389  16.886  1.00  0.00     0.128 C
ATOM     11  H3  UNL     1     -54.893  16.243  17.587  1.00  0.00     0.186 HD
BRANCH  10  12
HETATM   12  C3  UNL     1     -55.771  13.806  17.673  1.00  0.00     0.100 A
HETATM   13  C2  UNL     1     -57.080  14.186  17.448  1.00  0.00     0.172 A
HETATM   14  N2  UNL     1     -58.058  13.629  18.192  1.00  0.00    -0.170 N
HETATM   15  C1  UNL     1     -57.814  12.717  19.149  1.00  0.00     0.680 A
ATOM     16  H2  UNL     1     -59.023  13.912  18.022  1.00  0.00     0.186 HD
HETATM   17  N7  UNL     1     -56.532  12.362  19.350  1.00  0.00    -0.155 N
HETATM   18  C11 UNL     1     -55.517  12.874  18.648  1.00  0.00     0.275 A
ATOM     19  H7  UNL     1     -56.326  11.672  20.073  1.00  0.00     0.187 HD
HETATM   20  O9  UNL     1     -54.303  12.533  18.848  1.00  0.00    -0.267 OA
BRANCH  13  21
HETATM   21  O1  UNL     1     -57.337  15.132  16.456  1.00  0.00    -0.345 OA
ATOM     22  H1  UNL     1     -57.383  16.064  16.637  1.00  0.00     0.219 HD
ENDBRANCH  13  21
BRANCH  15  23
HETATM   23  N1  UNL     1     -58.785  12.193  19.856  1.00  0.00    -0.234 N
ATOM     24  H12 UNL     1     -59.283  11.361  19.541  1.00  0.00     0.174 HD
ATOM     25  H11 UNL     1     -59.074  12.601  20.745  1.00  0.00     0.174 HD
ENDBRANCH  15  23
ENDBRANCH  10  12
ENDBRANCH   7   9
ENDBRANCH   1   7
BRANCH   2  26
HETATM   26  N5  UNL     1     -52.423  15.790  18.859  1.00  0.00    -0.113 N
HETATM   27  O2  UNL     1     -52.434  14.703  19.467  1.00  0.00    -0.532 OA
HETATM   28  O3  UNL     1     -53.267  16.768  19.254  1.00  0.00    -0.532 OA
ENDBRANCH   2  26
BRANCH   6  29
HETATM   29  S2  UNL     1     -51.571  16.521  13.800  1.00  0.00     0.259 S
HETATM   30  O7  UNL     1     -52.241  15.273  13.257  1.00  0.00    -0.201 OA
HETATM   31  O8  UNL     1     -52.494  17.702  13.712  1.00  0.00    -0.201 OA
BRANCH  29  32
HETATM   32  N6  UNL     1     -50.178  16.871  12.852  1.00  0.00    -0.324 N
ATOM     33  H62 UNL     1     -49.266  16.430  12.969  1.00  0.00     0.169 HD
ATOM     34  H61 UNL     1     -50.422  17.585  12.166  1.00  0.00     0.169 HD
ENDBRANCH  29  32
ENDBRANCH   6  29
BRANCH   4  35
HETATM   35  S1  UNL     1     -47.505  16.008  17.311  1.00  0.00     0.137 S
HETATM   36  O4  UNL     1     -46.836  16.355  15.992  1.00  0.00    -0.591 OA
HETATM   37  O5  UNL     1     -47.093  14.620  17.648  1.00  0.00    -0.591 OA
HETATM   38  O6  UNL     1     -47.010  17.131  18.422  1.00  0.00    -0.591 OA
ENDBRANCH   4  35
TORSDOF 9
ENDMDL