MODEL 3
REMARK VINA RESULT: -8.791699801      1.068      1.137
REMARK  9 active torsions:
REMARK  status: ('A' for Active; 'I' for Inactive)
REMARK    1  A    between atoms: O1_2  and  C2_3
REMARK    2  A    between atoms: C4_5  and  N1_6
REMARK    3  A    between atoms: C9_14  and  O2_15
REMARK    4  A    between atoms: C10_17  and  O3_18
REMARK    5  A    between atoms: C11_20  and  O4_21
REMARK    6  A    between atoms: O4_21  and  C12_22
REMARK    7  A    between atoms: C13_23  and  C14_24
REMARK    8  A    between atoms: C15_31  and  C16_32
REMARK       I    between atoms: C16_32  and  N6_34
REMARK    9  A    between atoms: N6_34  and  N7_36
ROOT
HETATM    1  C2  UNL     1     -54.666  16.351  18.747  1.00  0.00     0.107 A
HETATM    2  C3  UNL     1     -55.811  15.758  19.176  1.00  0.00     0.072 A
HETATM    3  C4  UNL     1     -56.522  14.845  18.411  1.00  0.00     0.069 A
HETATM    4  C9  UNL     1     -56.007  14.561  17.170  1.00  0.00     0.128 A
HETATM    5  C10 UNL     1     -54.865  15.131  16.700  1.00  0.00     0.138 A
HETATM    6  C11 UNL     1     -54.131  16.063  17.470  1.00  0.00     0.145 A
ENDROOT
BRANCH   6   7
HETATM    7  O4  UNL     1     -53.042  16.606  17.023  1.00  0.00    -0.306 OA
BRANCH   7   8
HETATM    8  C12 UNL     1     -51.836  16.436  16.474  1.00  0.00     0.095 A
HETATM    9  C13 UNL     1     -51.350  16.605  15.269  1.00  0.00     0.161 A
HETATM   10  N3  UNL     1     -49.963  16.253  15.204  1.00  0.00    -0.232 N
HETATM   11  N4  UNL     1     -48.850  16.180  14.307  1.00  0.00    -0.014 NA
HETATM   12  C17 UNL     1     -49.557  15.830  16.474  1.00  0.00     0.072 A
HETATM   13  N5  UNL     1     -47.831  15.676  15.082  1.00  0.00    -0.277 N
HETATM   14  C15 UNL     1     -48.269  15.477  16.419  1.00  0.00     0.140 A
ATOM     15  H5  UNL     1     -46.891  15.473  14.744  1.00  0.00     0.184 HD
HETATM   16  C18 UNL     1     -50.681  15.931  17.366  1.00  0.00     0.129 A
BRANCH   9  17
HETATM   17  C14 UNL     1     -52.060  17.079  14.054  1.00  0.00     0.231 C
HETATM   18  O5  UNL     1     -51.869  16.632  12.947  1.00  0.00    -0.643 OA
HETATM   19  O6  UNL     1     -53.016  18.107  14.176  1.00  0.00    -0.643 OA
ENDBRANCH   9  17
BRANCH  14  20
HETATM   20  C16 UNL     1     -47.487  14.983  17.537  1.00  0.00     0.289 C
HETATM   21  O7  UNL     1     -47.150  13.776  17.565  1.00  0.00    -0.264 OA
HETATM   22  N6  UNL     1     -47.080  15.810  18.617  1.00  0.00    -0.271 N
ATOM     23  H6  UNL     1     -47.351  16.793  18.600  1.00  0.00     0.189 HD
BRANCH  22  24
HETATM   24  N7  UNL     1     -46.337  15.359  19.687  1.00  0.00    -0.342 N
ATOM     25  H72 UNL     1     -46.674  14.524  20.168  1.00  0.00     0.176 HD
ATOM     26  H71 UNL     1     -45.483  15.812  20.013  1.00  0.00     0.176 HD
ENDBRANCH  22  24
ENDBRANCH  14  20
ENDBRANCH   7   8
ENDBRANCH   6   7
BRANCH   1  27
HETATM   27  O1  UNL     1     -53.994  17.253  19.546  1.00  0.00    -0.353 OA
HETATM   28  C1  UNL     1     -54.518  18.468  19.984  1.00  0.00     0.210 C
ENDBRANCH   1  27
BRANCH   5  29
HETATM   29  O3  UNL     1     -54.347  14.830  15.425  1.00  0.00    -0.356 OA
ATOM     30  H3  UNL     1     -54.882  14.865  14.641  1.00  0.00     0.218 HD
ENDBRANCH   5  29
BRANCH   4  31
HETATM   31  O2  UNL     1     -56.665  13.653  16.348  1.00  0.00    -0.356 OA
ATOM     32  H2  UNL     1     -57.614  13.663  16.307  1.00  0.00     0.218 HD
ENDBRANCH   4  31
BRANCH   3  33
HETATM   33  N1  UNL     1     -57.734  14.261  18.903  1.00  0.00    -0.375 N
HETATM   34  C5  UNL     1     -57.593  13.027  19.648  1.00  0.00     0.150 C
HETATM   35  C6  UNL     1     -58.836  12.252  19.866  1.00  0.00     0.252 C
HETATM   36  N2  UNL     1     -59.977  12.731  19.098  1.00  0.00    -0.072 N
HETATM   37  C7  UNL     1     -60.096  14.142  19.491  1.00  0.00     0.252 C
ATOM     38  H22 UNL     1     -59.900  12.580  18.092  1.00  0.00     0.277 HD
ATOM     39  H21 UNL     1     -60.828  12.185  19.225  1.00  0.00     0.277 HD
HETATM   40  C8  UNL     1     -59.007  14.865  18.683  1.00  0.00     0.150 C
ENDBRANCH   3  33
TORSDOF 9
ENDMDL