MODEL 1
REMARK VINA RESULT: -9.765360518      0.000      0.000
REMARK  9 active torsions:
REMARK  status: ('A' for Active; 'I' for Inactive)
REMARK    1  A    between atoms: O1_2  and  C2_3
REMARK    2  A    between atoms: C4_5  and  C5_6
REMARK       I    between atoms: C5_6  and  N1_8
REMARK    3  A    between atoms: N1_8  and  N2_10
REMARK    4  A    between atoms: N2_10  and  C6_12
REMARK    5  A    between atoms: C7_17  and  C8_18
REMARK    6  A    between atoms: C8_18  and  N5_19
REMARK    7  A    between atoms: N5_19  and  C9_21
REMARK    8  A    between atoms: C10_23  and  C11_24
REMARK    9  A    between atoms: N9_31  and  N10_32
ROOT
HETATM    1  C6  UNL     1     -54.981  15.707  16.551  1.00  0.00     0.734 A
HETATM    2  N3  UNL     1     -55.657  14.893  15.735  1.00  0.00    -0.127 N
ATOM      3  H3  UNL     1     -55.675  14.964  14.717  1.00  0.00     0.205 HD
HETATM    4  N4  UNL     1     -56.297  13.983  16.447  1.00  0.00    -0.271 N
ATOM      5  H4  UNL     1     -56.885  13.243  16.067  1.00  0.00     0.189 HD
HETATM    6  C7  UNL     1     -56.052  14.186  17.742  1.00  0.00     0.154 A
HETATM    7  N9  UNL     1     -55.233  15.259  17.807  1.00  0.00    -0.075 N
ENDROOT
BRANCH   1   8
HETATM    8  N2  UNL     1     -54.229  16.726  16.244  1.00  0.00    -0.126 N
ATOM      9  H2  UNL     1     -54.606  17.664  16.379  1.00  0.00     0.206 HD
BRANCH   8  10
HETATM   10  N1  UNL     1     -52.952  16.600  15.747  1.00  0.00    -0.251 N
HETATM   11  C5  UNL     1     -51.857  16.409  16.620  1.00  0.00     0.274 C
HETATM   12  O2  UNL     1     -52.024  16.351  17.847  1.00  0.00    -0.266 OA
ATOM     13  H1  UNL     1     -52.795  16.644  14.740  1.00  0.00     0.191 HD
BRANCH  11  14
HETATM   14  C4  UNL     1     -50.506  16.275  16.089  1.00  0.00     0.079 A
HETATM   15  C3  UNL     1     -49.323  16.444  16.771  1.00  0.00     0.076 A
HETATM   16  C2  UNL     1     -48.275  16.226  15.905  1.00  0.00     0.143 A
HETATM   17  N12 UNL     1     -48.803  15.928  14.719  1.00  0.00    -0.325 N
HETATM   18  C14 UNL     1     -50.133  15.952  14.806  1.00  0.00     0.134 A
ATOM     19  H12 UNL     1     -48.272  15.714  13.874  1.00  0.00     0.169 HD
HETATM   20  N11 UNL     1     -51.077  15.687  13.750  1.00  0.00    -0.082 NA
BRANCH  16  21
HETATM   21  O1  UNL     1     -46.904  16.306  16.230  1.00  0.00    -0.341 OA
HETATM   22  C1  UNL     1     -46.460  16.669  17.502  1.00  0.00     0.211 C
ENDBRANCH  16  21
ENDBRANCH  11  14
ENDBRANCH   8  10
ENDBRANCH   1   8
BRANCH   7  23
HETATM   23  N10 UNL     1     -54.748  15.788  18.997  1.00  0.00    -0.323 N
ATOM     24 2H10 UNL     1     -55.016  16.702  19.362  1.00  0.00     0.178 HD
ATOM     25 1H10 UNL     1     -54.085  15.351  19.638  1.00  0.00     0.178 HD
ENDBRANCH   7  23
BRANCH   6  26
HETATM   26  C8  UNL     1     -56.552  13.416  18.929  1.00  0.00     0.202 C
BRANCH  26  27
HETATM   27  N5  UNL     1     -57.951  13.045  18.737  1.00  0.00    -0.363 N
ATOM     28  H5  UNL     1     -58.228  12.411  17.986  1.00  0.00     0.162 HD
BRANCH  27  29
HETATM   29  C9  UNL     1     -58.841  13.549  19.556  1.00  0.00     0.148 A
HETATM   30  S1  UNL     1     -58.946  13.340  21.242  1.00  0.00    -0.045 SA
HETATM   31  C10 UNL     1     -60.333  14.295  21.522  1.00  0.00     0.114 A
HETATM   32  C12 UNL     1     -60.639  14.730  20.263  1.00  0.00     0.142 A
HETATM   33  N7  UNL     1     -61.798  15.594  20.103  1.00  0.00    -0.081 NA
HETATM   34  N8  UNL     1     -59.876  14.343  19.281  1.00  0.00    -0.319 N
HETATM   35  C13 UNL     1     -60.110  14.752  17.869  1.00  0.00     0.159 C
BRANCH  31  36
HETATM   36  C11 UNL     1     -61.007  14.564  22.809  1.00  0.00     0.275 C
HETATM   37  N6  UNL     1     -60.596  15.652  23.591  1.00  0.00    -0.057 NA
HETATM   38  O3  UNL     1     -61.939  13.805  23.174  1.00  0.00    -0.270 OA
ENDBRANCH  31  36
ENDBRANCH  27  29
ENDBRANCH  26  27
ENDBRANCH   6  26
TORSDOF 9
ENDMDL