MODEL 3
REMARK VINA RESULT: -9.014284942      1.098      1.232
REMARK  9 active torsions:
REMARK  status: ('A' for Active; 'I' for Inactive)
REMARK    1  A    between atoms: N1_2  and  C3_4
REMARK    2  A    between atoms: C4_7  and  S1_8
REMARK    3  A    between atoms: S1_8  and  C5_9
REMARK    4  A    between atoms: C6_12  and  N4_13
REMARK    5  A    between atoms: C7_18  and  N6_19
REMARK    6  A    between atoms: N7_22  and  C10_23
REMARK    7  A    between atoms: C10_23  and  C11_24
REMARK    8  A    between atoms: C15_33  and  N10_34
REMARK    9  A    between atoms: C16_37  and  N11_38
ROOT
HETATM    1  C5  UNL     1     -54.454  15.579  17.433  1.00  0.00     0.121 A
HETATM    2  N3  UNL     1     -54.382  14.964  16.246  1.00  0.00    -0.183 N
ATOM      3  H3  UNL     1     -53.582  15.144  15.641  1.00  0.00     0.185 HD
HETATM    4  C6  UNL     1     -55.345  14.107  15.825  1.00  0.00     0.678 A
HETATM    5  N5  UNL     1     -56.386  13.878  16.618  1.00  0.00    -0.175 N
ATOM      6  H5  UNL     1     -57.104  13.231  16.291  1.00  0.00     0.186 HD
HETATM    7  C7  UNL     1     -56.551  14.456  17.842  1.00  0.00     0.146 A
HETATM    8  C14 UNL     1     -55.568  15.317  18.256  1.00  0.00     0.125 A
HETATM    9  N8  UNL     1     -55.637  15.955  19.496  1.00  0.00    -0.095 NA
ENDROOT
BRANCH   1  10
HETATM   10  S1  UNL     1     -53.237  16.758  17.929  1.00  0.00    -0.033 SA
BRANCH  10  11
HETATM   11  C4  UNL     1     -51.638  16.271  17.350  1.00  0.00     0.167 C
HETATM   12  N2  UNL     1     -51.249  16.594  16.075  1.00  0.00    -0.170 N
HETATM   13  C3  UNL     1     -50.015  16.347  15.529  1.00  0.00     0.683 C
ATOM     14  H2  UNL     1     -51.937  17.058  15.481  1.00  0.00     0.186 HD
HETATM   15  N12 UNL     1     -48.865  16.496  16.248  1.00  0.00    -0.173 N
HETATM   16  C16 UNL     1     -48.651  16.277  17.584  1.00  0.00     0.158 C
ATOM     17  H12 UNL     1     -48.054  16.814  15.719  1.00  0.00     0.186 HD
HETATM   18  C15 UNL     1     -49.546  15.642  18.458  1.00  0.00     0.145 C
HETATM   19  N9  UNL     1     -50.895  15.581  18.267  1.00  0.00    -0.320 N
ATOM     20  H9  UNL     1     -51.408  14.947  18.879  1.00  0.00     0.169 HD
BRANCH  13  21
HETATM   21  N1  UNL     1     -49.925  15.920  14.185  1.00  0.00    -0.226 N
HETATM   22  C1  UNL     1     -48.695  15.587  13.527  1.00  0.00     0.168 C
HETATM   23  C2  UNL     1     -51.178  15.816  13.397  1.00  0.00     0.168 C
ENDBRANCH  13  21
BRANCH  16  24
HETATM   24  N11 UNL     1     -47.576  16.660  18.132  1.00  0.00    -0.382 N
ATOM     25 2H11 UNL     1     -47.601  17.296  18.930  1.00  0.00     0.157 HD
ATOM     26 1H11 UNL     1     -46.731  16.277  17.708  1.00  0.00     0.157 HD
ENDBRANCH  16  24
BRANCH  18  27
HETATM   27  N10 UNL     1     -49.052  15.087  19.507  1.00  0.00    -0.382 N
ATOM     28 2H10 UNL     1     -49.571  14.309  19.913  1.00  0.00     0.157 HD
ATOM     29 1H10 UNL     1     -48.171  15.447  19.876  1.00  0.00     0.157 HD
ENDBRANCH  18  27
ENDBRANCH  10  11
ENDBRANCH   1  10
BRANCH   4  30
HETATM   30  N4  UNL     1     -55.249  13.524  14.655  1.00  0.00    -0.234 N
ATOM     31  H42 UNL     1     -54.630  13.896  13.934  1.00  0.00     0.174 HD
ATOM     32  H41 UNL     1     -55.790  12.684  14.452  1.00  0.00     0.174 HD
ENDBRANCH   4  30
BRANCH   7  33
HETATM   33  N6  UNL     1     -57.723  14.194  18.588  1.00  0.00    -0.362 N
HETATM   34  C8  UNL     1     -59.029  14.739  18.366  1.00  0.00     0.144 C
HETATM   35  C9  UNL     1     -59.764  15.011  19.662  1.00  0.00     0.142 C
HETATM   36  N7  UNL     1     -59.794  13.875  20.498  1.00  0.00    -0.381 N
HETATM   37  C12 UNL     1     -58.899  12.810  20.230  1.00  0.00     0.142 C
HETATM   38  C13 UNL     1     -57.571  13.241  19.703  1.00  0.00     0.144 C
BRANCH  36  39
HETATM   39  C10 UNL     1     -60.290  14.037  21.808  1.00  0.00     0.170 C
BRANCH  39  40
HETATM   40  C11 UNL     1     -59.933  12.976  22.752  1.00  0.00     0.214 C
HETATM   41  O1  UNL     1     -60.766  12.042  22.917  1.00  0.00    -0.644 OA
HETATM   42  O2  UNL     1     -58.757  12.923  23.475  1.00  0.00    -0.644 OA
ENDBRANCH  39  40
ENDBRANCH  36  39
ENDBRANCH   7  33
TORSDOF 9
ENDMDL