MODEL 1
REMARK VINA RESULT: -8.221304406      0.000      0.000
REMARK  13 active torsions:
REMARK  status: ('A' for Active; 'I' for Inactive)
REMARK    1  A    between atoms: O1_2  and  C2_3
REMARK    2  A    between atoms: C3_4  and  N1_5
REMARK    3  A    between atoms: C4_10  and  O3_11
REMARK    4  A    between atoms: O3_11  and  C5_12
REMARK    5  A    between atoms: C6_13  and  N2_14
REMARK    6  A    between atoms: C8_19  and  N3_20
REMARK    7  A    between atoms: C9_24  and  O4_25
REMARK    8  A    between atoms: O4_25  and  C10_26
REMARK    9  A    between atoms: C14_30  and  N4_31
REMARK   10  A    between atoms: C16_36  and  N5_37
REMARK   11  A    between atoms: C17_41  and  O5_42
REMARK   12  A    between atoms: C18_44  and  N6_45
REMARK   13  A    between atoms: N6_45  and  C19_47
ROOT
HETATM    1  C5  UNL     1     -51.972  16.164  15.106  1.00  0.00     0.186 C
HETATM    2  C6  UNL     1     -51.298  15.775  13.821  1.00  0.00     0.217 C
HETATM    3  C7  UNL     1     -50.349  16.878  13.416  1.00  0.00     0.071 C
HETATM    4  C8  UNL     1     -49.259  17.099  14.411  1.00  0.00     0.217 C
HETATM    5  C9  UNL     1     -49.594  16.359  15.729  1.00  0.00     0.183 C
HETATM    6  C17 UNL     1     -51.000  16.770  16.063  1.00  0.00     0.180 C
ENDROOT
BRANCH   1   7
HETATM    7  O3  UNL     1     -53.131  16.894  14.898  1.00  0.00    -0.349 OA
BRANCH   7   8
HETATM    8  C4  UNL     1     -54.107  16.735  15.857  1.00  0.00     0.288 C
HETATM    9  O2  UNL     1     -53.558  17.211  17.081  1.00  0.00    -0.324 OA
HETATM   10  C3  UNL     1     -54.438  16.684  18.057  1.00  0.00     0.352 C
HETATM   11  C2  UNL     1     -54.852  15.347  17.563  1.00  0.00     0.204 C
HETATM   12  C18 UNL     1     -54.273  15.270  16.196  1.00  0.00     0.172 C
BRANCH  10  13
HETATM   13  N1  UNL     1     -53.699  16.636  19.303  1.00  0.00    -0.050 N
ATOM     14  H13 UNL     1     -54.080  17.302  19.974  1.00  0.00     0.277 HD
ATOM     15  H12 UNL     1     -53.888  15.766  19.801  1.00  0.00     0.277 HD
ATOM     16  H11 UNL     1     -52.696  16.775  19.186  1.00  0.00     0.277 HD
ENDBRANCH  10  13
BRANCH  11  17
HETATM   17  O1  UNL     1     -56.181  15.057  17.663  1.00  0.00    -0.384 OA
HETATM   18  C1  UNL     1     -56.542  14.371  18.804  1.00  0.00     0.202 C
ENDBRANCH  11  17
BRANCH  12  19
HETATM   19  N6  UNL     1     -55.177  14.703  15.217  1.00  0.00    -0.356 N
ATOM     20  H6  UNL     1     -56.126  15.069  15.152  1.00  0.00     0.162 HD
BRANCH  19  21
HETATM   21  C19 UNL     1     -54.823  13.754  14.427  1.00  0.00     0.349 C
HETATM   22  O6  UNL     1     -54.449  13.326  13.310  1.00  0.00    -0.284 OA
ENDBRANCH  19  21
ENDBRANCH  12  19
ENDBRANCH   7   8
ENDBRANCH   1   7
BRANCH   2  23
HETATM   23  N2  UNL     1     -52.227  15.447  12.772  1.00  0.00    -0.072 N
ATOM     24  H23 UNL     1     -53.184  15.432  13.124  1.00  0.00     0.274 HD
ATOM     25  H22 UNL     1     -52.306  16.215  12.105  1.00  0.00     0.274 HD
ATOM     26  H21 UNL     1     -52.002  14.574  12.295  1.00  0.00     0.274 HD
ENDBRANCH   2  23
BRANCH   6  27
HETATM   27  O5  UNL     1     -51.278  16.305  17.366  1.00  0.00    -0.390 OA
ATOM     28  H5  UNL     1     -51.636  17.016  17.883  1.00  0.00     0.210 HD
ENDBRANCH   6  27
BRANCH   5  29
HETATM   29  O4  UNL     1     -48.756  16.864  16.717  1.00  0.00    -0.374 OA
BRANCH  29  30
HETATM   30  C10 UNL     1     -48.404  15.962  17.685  1.00  0.00     0.152 C
HETATM   31  C11 UNL     1     -47.926  14.725  16.911  1.00  0.00     0.034 C
HETATM   32  C12 UNL     1     -47.281  13.701  17.770  1.00  0.00     0.004 C
HETATM   33  C13 UNL     1     -47.749  13.650  19.186  1.00  0.00     0.033 C
HETATM   34  C14 UNL     1     -46.814  14.538  20.010  1.00  0.00     0.185 C
HETATM   35  C15 UNL     1     -47.398  15.927  19.978  1.00  0.00     0.068 C
HETATM   36  C16 UNL     1     -47.347  16.500  18.573  1.00  0.00     0.214 C
BRANCH  34  37
HETATM   37  N4  UNL     1     -46.746  14.049  21.351  1.00  0.00    -0.075 N
ATOM     38  H43 UNL     1     -47.209  13.147  21.455  1.00  0.00     0.274 HD
ATOM     39  H42 UNL     1     -45.802  13.760  21.608  1.00  0.00     0.274 HD
ATOM     40  H41 UNL     1     -47.121  14.750  21.990  1.00  0.00     0.274 HD
ENDBRANCH  34  37
BRANCH  36  41
HETATM   41  N5  UNL     1     -46.003  16.333  18.006  1.00  0.00    -0.072 N
ATOM     42  H53 UNL     1     -45.801  17.060  17.320  1.00  0.00     0.274 HD
ATOM     43  H52 UNL     1     -45.283  16.554  18.695  1.00  0.00     0.274 HD
ATOM     44  H51 UNL     1     -45.862  15.403  17.611  1.00  0.00     0.274 HD
ENDBRANCH  36  41
ENDBRANCH  29  30
ENDBRANCH   5  29
BRANCH   4  45
HETATM   45  N3  UNL     1     -48.997  18.482  14.700  1.00  0.00    -0.072 N
ATOM     46  H33 UNL     1     -49.455  19.082  14.014  1.00  0.00     0.274 HD
ATOM     47  H32 UNL     1     -49.493  18.771  15.542  1.00  0.00     0.274 HD
ATOM     48  H31 UNL     1     -48.006  18.714  14.771  1.00  0.00     0.274 HD
ENDBRANCH   4  45
TORSDOF 13
ENDMDL