MODEL 2
REMARK VINA RESULT: -9.574270491      0.053      1.217
REMARK  3 active torsions:
REMARK  status: ('A' for Active; 'I' for Inactive)
REMARK    1  A    between atoms: C1_1  and  C2_2
REMARK    2  A    between atoms: C3_3  and  C4_4
REMARK    3  A    between atoms: C7_11  and  C8_12
ROOT
HETATM    1  C2  UNL     1      30.111  15.934  -1.576  1.00  0.00     0.002 C
HETATM    2  C3  UNL     1      29.055  15.193  -1.320  1.00  0.00     0.031 C
ENDROOT
BRANCH   1   3
HETATM    3  C1  UNL     1      30.396  17.103  -0.764  1.00  0.00     0.001 C
HETATM    4  C7  UNL     1      31.347  17.069   0.125  1.00  0.00     0.011 C
BRANCH   4   5
HETATM    5  C8  UNL     1      31.710  18.186   0.987  1.00  0.00    -0.036 A
HETATM    6  C9  UNL     1      32.155  17.959   2.294  1.00  0.00     0.011 A
HETATM    7  C10 UNL     1      32.511  18.976   3.152  1.00  0.00     0.001 A
HETATM    8  C11 UNL     1      32.440  20.291   2.745  1.00  0.00     0.000 A
HETATM    9  C12 UNL     1      32.003  20.532   1.461  1.00  0.00     0.001 A
HETATM   10  C13 UNL     1      31.640  19.499   0.585  1.00  0.00     0.011 A
ENDBRANCH   4   5
ENDBRANCH   1   3
BRANCH   2  11
HETATM   11  C4  UNL     1      28.742  14.010  -2.119  1.00  0.00     0.049 A
HETATM   12  C5  UNL     1      27.881  13.011  -1.727  1.00  0.00     0.049 A
HETATM   13  C6  UNL     1      27.866  12.084  -2.766  1.00  0.00     0.109 A
HETATM   14  N1  UNL     1      28.700  12.568  -3.702  1.00  0.00    -0.311 N
HETATM   15  N2  UNL     1      29.229  13.719  -3.326  1.00  0.00    -0.301 N
ATOM     16  H1  UNL     1      28.900  12.106  -4.590  1.00  0.00     0.186 HD
ATOM     17  H2  UNL     1      29.889  14.282  -3.860  1.00  0.00     0.187 HD
ENDBRANCH   2  11
TORSDOF 3
ENDMDL