MODEL 4
REMARK VINA RESULT: -7.029199630      1.158      5.976
REMARK  3 active torsions:
REMARK  status: ('A' for Active; 'I' for Inactive)
REMARK    1  A    between atoms: C4_6  and  C5_7
REMARK    2  A    between atoms: C6_8  and  C7_9
REMARK    3  A    between atoms: C7_9  and  N2_11
ROOT
HETATM    1  C1  UNL     1      27.905   8.562  -4.537  1.00  0.00     0.050 C
HETATM    2  C2  UNL     1      27.552   9.621  -3.536  1.00  0.00    -0.038 A
HETATM    3  C3  UNL     1      26.805   9.542  -2.414  1.00  0.00     0.095 A
HETATM    4  N1  UNL     1      26.770  10.735  -1.848  1.00  0.00    -0.365 N
ATOM      5  H1  UNL     1      26.270  10.945  -0.984  1.00  0.00     0.165 HD
HETATM    6  C4  UNL     1      27.491  11.659  -2.567  1.00  0.00     0.038 A
HETATM    7  C11 UNL     1      27.984  10.951  -3.633  1.00  0.00    -0.028 A
HETATM    8  C12 UNL     1      28.838  11.472  -4.732  1.00  0.00     0.051 C
ENDROOT
BRANCH   6   9
HETATM    9  C5  UNL     1      27.641  13.055  -2.205  1.00  0.00     0.028 C
HETATM   10  C6  UNL     1      28.711  13.745  -2.035  1.00  0.00    -0.000 C
BRANCH  10  11
HETATM   11  C7  UNL     1      28.563  15.196  -1.658  1.00  0.00     0.097 C
HETATM   12  C8  UNL     1      29.183  15.400  -0.286  1.00  0.00     0.036 C
BRANCH  11  13
HETATM   13  N2  UNL     1      29.243  16.046  -2.574  1.00  0.00    -0.414 N
HETATM   14  C9  UNL     1      30.144  15.339  -3.421  1.00  0.00     0.143 C
HETATM   15  C10 UNL     1      29.658  17.316  -2.099  1.00  0.00     0.143 C
ENDBRANCH  11  13
ENDBRANCH  10  11
ENDBRANCH   6   9
TORSDOF 3
ENDMDL