MODEL 2
REMARK VINA RESULT: -8.792186957      0.132      1.226
REMARK  4 active torsions:
REMARK  status: ('A' for Active; 'I' for Inactive)
REMARK    1  A    between atoms: C3_3  and  O1_4
REMARK    2  A    between atoms: C3_3  and  C4_6
REMARK    3  A    between atoms: C3_3  and  C13_15
REMARK    4  A    between atoms: C5_7  and  C6_8
ROOT
HETATM    1  C1  UNL     1      29.113   9.966  -5.582  1.00  0.00     0.015 C
HETATM    2  C2  UNL     1      28.581  10.609  -4.709  1.00  0.00    -0.075 C
HETATM    3  C3  UNL     1      27.913  11.393  -3.665  1.00  0.00     0.138 C
ENDROOT
BRANCH   3   4
HETATM    4  O1  UNL     1      26.734  11.916  -4.247  1.00  0.00    -0.374 OA
ATOM      5  H1  UNL     1      26.619  12.787  -3.885  1.00  0.00     0.212 HD
ENDBRANCH   3   4
BRANCH   3   6
HETATM    6  C4  UNL     1      28.727  12.584  -3.311  1.00  0.00     0.025 C
HETATM    7  C5  UNL     1      28.337  13.338  -2.303  1.00  0.00     0.011 C
BRANCH   7   8
HETATM    8  C6  UNL     1      29.075  14.534  -1.880  1.00  0.00    -0.036 A
HETATM    9  C7  UNL     1      29.909  15.201  -2.724  1.00  0.00     0.012 A
HETATM   10  C8  UNL     1      30.574  16.323  -2.257  1.00  0.00     0.007 A
HETATM   11  C9  UNL     1      30.423  16.785  -0.978  1.00  0.00    -0.062 A
HETATM   12  C10 UNL     1      31.147  17.978  -0.525  1.00  0.00     0.048 C
HETATM   13  C11 UNL     1      29.579  16.098  -0.142  1.00  0.00     0.007 A
HETATM   14  C12 UNL     1      28.912  14.989  -0.581  1.00  0.00     0.012 A
ENDBRANCH   7   8
ENDBRANCH   3   6
BRANCH   3  15
HETATM   15  C13 UNL     1      27.595  10.602  -2.454  1.00  0.00     0.051 C
HETATM   16  C14 UNL     1      26.625   9.463  -2.735  1.00  0.00     0.009 C
ENDBRANCH   3  15
TORSDOF 4
ENDMDL