MODEL 4
REMARK VINA RESULT: -8.148372828      0.092      1.744
REMARK  3 active torsions:
REMARK  status: ('A' for Active; 'I' for Inactive)
REMARK    1  A    between atoms: C2_2  and  N1_3
REMARK    2  A    between atoms: C2_2  and  C3_7
REMARK    3  A    between atoms: C2_2  and  C9_13
ROOT
HETATM    1  C1  UNL     1      32.346  17.685   2.641  1.00  0.00     0.057 C
HETATM    2  C2  UNL     1      31.639  18.497   1.595  1.00  0.00     0.174 C
ENDROOT
BRANCH   2   3
HETATM    3  N1  UNL     1      30.410  19.010   2.176  1.00  0.00    -0.062 N
ATOM      4  H13 UNL     1      30.047  19.821   1.675  1.00  0.00     0.276 HD
ATOM      5  H12 UNL     1      29.615  18.388   2.027  1.00  0.00     0.276 HD
ATOM      6  H11 UNL     1      30.581  19.201   3.163  1.00  0.00     0.276 HD
ENDBRANCH   2   3
BRANCH   2   7
HETATM    7  C3  UNL     1      31.242  17.692   0.401  1.00  0.00    -0.018 A
HETATM    8  C4  UNL     1      29.940  17.299   0.194  1.00  0.00     0.010 A
HETATM    9  C5  UNL     1      29.660  16.555  -0.929  1.00  0.00     0.001 A
HETATM   10  C6  UNL     1      30.666  16.207  -1.831  1.00  0.00     0.000 A
HETATM   11  C7  UNL     1      31.952  16.607  -1.607  1.00  0.00     0.001 A
HETATM   12  C8  UNL     1      32.270  17.357  -0.488  1.00  0.00     0.010 A
ENDBRANCH   2   7
BRANCH   2  13
HETATM   13  C9  UNL     1      32.421  19.671   1.131  1.00  0.00    -0.018 A
HETATM   14  C10 UNL     1      33.813  19.582   0.993  1.00  0.00     0.010 A
HETATM   15  C11 UNL     1      34.523  20.682   0.559  1.00  0.00     0.001 A
HETATM   16  C12 UNL     1      33.931  21.887   0.246  1.00  0.00     0.000 A
HETATM   17  C13 UNL     1      32.562  21.977   0.380  1.00  0.00     0.001 A
HETATM   18  C14 UNL     1      31.833  20.877   0.817  1.00  0.00     0.010 A
ENDBRANCH   2  13
TORSDOF 3
ENDMDL