MODEL 2
REMARK VINA RESULT: -6.275847668      2.303      4.311
REMARK  3 active torsions:
REMARK  status: ('A' for Active; 'I' for Inactive)
REMARK    1  A    between atoms: C2_2  and  C3_3
REMARK    2  A    between atoms: C3_3  and  C5_5
REMARK    3  A    between atoms: C3_3  and  C11_11
ROOT
HETATM    1  C3  UNL     1      31.820  18.614   1.550  1.00  0.00     0.044 C
HETATM    2  C4  UNL     1      30.648  19.187   2.323  1.00  0.00     0.031 C
ENDROOT
BRANCH   1   3
HETATM    3  C2  UNL     1      32.622  17.794   2.496  1.00  0.00    -0.017 C
HETATM    4  C1  UNL     1      32.114  16.689   2.999  1.00  0.00     0.008 C
ENDBRANCH   1   3
BRANCH   1   5
HETATM    5  C5  UNL     1      31.405  17.808   0.395  1.00  0.00    -0.040 A
HETATM    6  C6  UNL     1      30.084  17.492   0.194  1.00  0.00     0.008 A
HETATM    7  C7  UNL     1      29.653  16.724  -0.892  1.00  0.00     0.001 A
HETATM    8  C8  UNL     1      30.620  16.283  -1.777  1.00  0.00     0.000 A
HETATM    9  C9  UNL     1      31.952  16.581  -1.604  1.00  0.00     0.001 A
HETATM   10  C10 UNL     1      32.348  17.338  -0.527  1.00  0.00     0.008 A
ENDBRANCH   1   5
BRANCH   1  11
HETATM   11  C11 UNL     1      32.628  19.783   1.059  1.00  0.00     0.043 A
HETATM   12  C12 UNL     1      32.181  21.041   0.720  1.00  0.00     0.046 A
HETATM   13  C13 UNL     1      33.258  21.803   0.320  1.00  0.00     0.109 A
HETATM   14  N1  UNL     1      34.339  21.018   0.416  1.00  0.00    -0.312 N
HETATM   15  N2  UNL     1      33.956  19.829   0.852  1.00  0.00    -0.304 N
ATOM     16  H1  UNL     1      35.295  21.291   0.190  1.00  0.00     0.186 HD
ATOM     17  H2  UNL     1      34.589  19.045   1.011  1.00  0.00     0.186 HD
ENDBRANCH   1  11
TORSDOF 3
ENDMDL