MODEL 3
REMARK VINA RESULT: -8.750517969      0.049      1.244
REMARK  4 active torsions:
REMARK  status: ('A' for Active; 'I' for Inactive)
REMARK    1  A    between atoms: N1_1  and  C1_5
REMARK    2  A    between atoms: C1_5  and  C2_6
REMARK    3  A    between atoms: C1_5  and  C9_13
REMARK    4  A    between atoms: C2_6  and  C3_7
ROOT
HETATM    1  C1  UNL     1      32.018  17.782   1.127  1.00  0.00     0.220 C
ENDROOT
BRANCH   1   2
HETATM    2  N1  UNL     1      32.194  17.210   2.422  1.00  0.00    -0.071 N
ATOM      3  H13 UNL     1      31.629  17.696   3.119  1.00  0.00     0.275 HD
ATOM      4  H12 UNL     1      31.764  16.286   2.478  1.00  0.00     0.275 HD
ATOM      5  H11 UNL     1      33.175  17.178   2.701  1.00  0.00     0.275 HD
ENDBRANCH   1   2
BRANCH   1   6
HETATM    6  C2  UNL     1      30.562  17.783   0.689  1.00  0.00     0.076 C
BRANCH   6   7
HETATM    7  C3  UNL     1      30.298  16.874  -0.425  1.00  0.00    -0.056 A
HETATM    8  C4  UNL     1      29.344  15.895  -0.329  1.00  0.00     0.007 A
HETATM    9  C5  UNL     1      29.142  15.071  -1.416  1.00  0.00     0.001 A
HETATM   10  C6  UNL     1      29.898  15.238  -2.582  1.00  0.00     0.000 A
HETATM   11  C7  UNL     1      30.846  16.219  -2.662  1.00  0.00     0.001 A
HETATM   12  C8  UNL     1      31.051  17.037  -1.595  1.00  0.00     0.007 A
ENDBRANCH   6   7
ENDBRANCH   1   6
BRANCH   1  13
HETATM   13  C9  UNL     1      32.480  19.198   1.048  1.00  0.00    -0.028 A
HETATM   14  C10 UNL     1      33.773  19.532   0.694  1.00  0.00     0.009 A
HETATM   15  C11 UNL     1      34.201  20.849   0.622  1.00  0.00     0.001 A
HETATM   16  C12 UNL     1      33.340  21.885   0.903  1.00  0.00     0.000 A
HETATM   17  C13 UNL     1      32.046  21.569   1.257  1.00  0.00     0.001 A
HETATM   18  C14 UNL     1      31.632  20.253   1.325  1.00  0.00     0.009 A
ENDBRANCH   1  13
TORSDOF 4
ENDMDL