MODEL 3
REMARK VINA RESULT: -8.749330502      3.524      8.199
REMARK  6 active torsions:
REMARK  status: ('A' for Active; 'I' for Inactive)
REMARK    1  A    between atoms: C3_3  and  C4_4
REMARK    2  A    between atoms: C5_5  and  C6_6
REMARK    3  A    between atoms: C6_6  and  C7_7
REMARK    4  A    between atoms: C7_7  and  C8_8
REMARK    5  A    between atoms: C8_8  and  C9_9
REMARK    6  A    between atoms: C12_12  and  O1_13
ROOT
HETATM    1  C1  UNL     1      26.908   9.973  -2.359  1.00  0.00     0.113 C
HETATM    2  C2  UNL     1      27.450  11.339  -2.210  1.00  0.00    -0.097 C
HETATM    3  C3  UNL     1      27.910  12.454  -2.098  1.00  0.00    -0.015 C
ENDROOT
BRANCH   3   4
HETATM    4  C4  UNL     1      28.468  13.748  -1.980  1.00  0.00    -0.015 C
HETATM    5  C5  UNL     1      28.956  14.863  -1.899  1.00  0.00    -0.092 C
BRANCH   5   6
HETATM    6  C6  UNL     1      29.550  16.196  -1.825  1.00  0.00     0.095 C
BRANCH   6   7
HETATM    7  C7  UNL     1      30.102  16.378  -0.431  1.00  0.00     0.017 C
BRANCH   7   8
HETATM    8  C8  UNL     1      31.488  16.966  -0.564  1.00  0.00     0.039 C
BRANCH   8   9
HETATM    9  C9  UNL     1      31.740  17.865   0.566  1.00  0.00    -0.058 A
HETATM   10  C10 UNL     1      32.055  17.342   1.785  1.00  0.00     0.010 A
HETATM   11  C11 UNL     1      32.295  18.154   2.863  1.00  0.00     0.037 A
HETATM   12  C12 UNL     1      32.222  19.531   2.728  1.00  0.00     0.065 A
HETATM   13  C13 UNL     1      31.905  20.074   1.504  1.00  0.00     0.037 A
HETATM   14  C14 UNL     1      31.666  19.236   0.431  1.00  0.00     0.010 A
BRANCH  12  15
HETATM   15  O1  UNL     1      32.479  20.287   3.860  1.00  0.00    -0.361 OA
ATOM     16  H1  UNL     1      31.727  20.583   4.360  1.00  0.00     0.217 HD
ENDBRANCH  12  15
ENDBRANCH   8   9
ENDBRANCH   7   8
ENDBRANCH   6   7
ENDBRANCH   5   6
ENDBRANCH   3   4
TORSDOF 6
ENDMDL