MODEL 1
REMARK VINA RESULT: -8.596905508      0.000      0.000
REMARK  4 active torsions:
REMARK  status: ('A' for Active; 'I' for Inactive)
REMARK    1  A    between atoms: C2_2  and  C3_3
REMARK    2  A    between atoms: C3_3  and  C4_4
REMARK    3  A    between atoms: C4_4  and  N1_5
REMARK    4  A    between atoms: N1_5  and  C5_7
ROOT
HETATM    1  C5  UNL     1      29.061  13.579  -3.048  1.00  0.00     0.101 A
HETATM    2  C6  UNL     1      28.345  13.429  -1.882  1.00  0.00     0.049 A
HETATM    3  C7  UNL     1      27.634  12.278  -1.631  1.00  0.00     0.017 A
HETATM    4  C8  UNL     1      27.656  11.274  -2.577  1.00  0.00    -0.009 A
HETATM    5  C9  UNL     1      26.961  10.089  -2.386  1.00  0.00     0.013 A
HETATM    6  C10 UNL     1      26.955   9.063  -3.306  1.00  0.00     0.001 A
HETATM    7  C11 UNL     1      27.683   9.221  -4.486  1.00  0.00     0.002 A
HETATM    8  C12 UNL     1      28.375  10.398  -4.679  1.00  0.00     0.030 A
HETATM    9  C13 UNL     1      28.373  11.419  -3.751  1.00  0.00     0.043 A
HETATM   10  N2  UNL     1      29.051  12.573  -3.940  1.00  0.00    -0.342 N
ATOM     11  H2  UNL     1      29.582  12.687  -4.803  1.00  0.00     0.167 HD
ENDROOT
BRANCH   1  12
HETATM   12  N1  UNL     1      29.742  14.628  -3.338  1.00  0.00    -0.376 N
ATOM     13  H1  UNL     1      30.517  14.512  -3.992  1.00  0.00     0.161 HD
BRANCH  12  14
HETATM   14  C4  UNL     1      29.514  15.942  -2.827  1.00  0.00     0.125 C
BRANCH  14  15
HETATM   15  C3  UNL     1      30.868  16.514  -2.386  1.00  0.00     0.046 C
BRANCH  15  16
HETATM   16  C2  UNL     1      30.893  16.693  -0.908  1.00  0.00    -0.035 C
HETATM   17  C1  UNL     1      29.787  16.641  -0.198  1.00  0.00     0.007 C
ENDBRANCH  15  16
ENDBRANCH  14  15
ENDBRANCH  12  14
ENDBRANCH   1  12
TORSDOF 4
ENDMDL