MODEL 3
REMARK VINA RESULT: -8.901523640      1.359      5.911
REMARK  3 active torsions:
REMARK  status: ('A' for Active; 'I' for Inactive)
REMARK    1  A    between atoms: C2_2  and  C3_3
REMARK    2  A    between atoms: C5_5  and  C6_6
REMARK    3  A    between atoms: C6_6  and  C8_8
ROOT
HETATM    1  C3  UNL     1      31.830  18.597   1.417  1.00  0.00     0.049 A
HETATM    2  C4  UNL     1      32.425  19.529   0.576  1.00  0.00     0.062 A
HETATM    3  C5  UNL     1      32.335  20.788   1.123  1.00  0.00     0.060 A
HETATM    4  N1  UNL     1      31.676  20.588   2.303  1.00  0.00    -0.299 N
ATOM      5  H1  UNL     1      31.439  21.324   2.968  1.00  0.00     0.187 HD
HETATM    6  N2  UNL     1      31.390  19.318   2.460  1.00  0.00    -0.300 N
ATOM      7  H2  UNL     1      30.900  18.931   3.265  1.00  0.00     0.187 HD
ENDROOT
BRANCH   3   8
HETATM    8  C6  UNL     1      32.808  22.084   0.656  1.00  0.00    -0.007 C
HETATM    9  C7  UNL     1      32.024  23.146   0.926  1.00  0.00     0.026 C
BRANCH   8  10
HETATM   10  C8  UNL     1      34.043  22.296  -0.076  1.00  0.00    -0.025 A
HETATM   11  C9  UNL     1      34.116  23.204  -1.095  1.00  0.00     0.012 A
HETATM   12  C10 UNL     1      35.327  23.413  -1.773  1.00  0.00     0.001 A
HETATM   13  C11 UNL     1      36.460  22.719  -1.438  1.00  0.00     0.000 A
HETATM   14  C12 UNL     1      36.406  21.808  -0.424  1.00  0.00     0.001 A
HETATM   15  C13 UNL     1      35.197  21.604   0.248  1.00  0.00     0.012 A
ENDBRANCH   8  10
ENDBRANCH   3   8
BRANCH   1  16
HETATM   16  C2  UNL     1      31.718  17.163   1.199  1.00  0.00     0.021 C
HETATM   17  C1  UNL     1      31.189  16.691   0.091  1.00  0.00     0.013 C
ENDBRANCH   1  16
TORSDOF 3
ENDMDL