MODEL 1
REMARK VINA RESULT: -8.166191634      0.000      0.000
REMARK  3 active torsions:
REMARK  status: ('A' for Active; 'I' for Inactive)
REMARK    1  A    between atoms: O1_2  and  C2_3
REMARK    2  A    between atoms: C5_6  and  C6_7
REMARK    3  A    between atoms: C6_7  and  C7_8
ROOT
HETATM    1  C2  UNL     1      29.274  15.628  -1.605  1.00  0.00     0.068 A
HETATM    2  C3  UNL     1      29.298  16.020  -0.269  1.00  0.00     0.037 A
HETATM    3  C4  UNL     1      30.394  16.700   0.230  1.00  0.00     0.010 A
HETATM    4  C5  UNL     1      31.474  17.005  -0.561  1.00  0.00    -0.054 A
HETATM    5  C11 UNL     1      31.432  16.611  -1.877  1.00  0.00     0.010 A
HETATM    6  C12 UNL     1      30.351  15.928  -2.410  1.00  0.00     0.037 A
ENDROOT
BRANCH   4   7
HETATM    7  C6  UNL     1      32.632  17.721  -0.044  1.00  0.00     0.078 C
BRANCH   7   8
HETATM    8  C7  UNL     1      32.315  18.729   0.981  1.00  0.00    -0.037 A
HETATM    9  C8  UNL     1      32.456  18.612   2.343  1.00  0.00     0.025 A
HETATM   10  C9  UNL     1      32.041  19.799   2.950  1.00  0.00     0.088 A
HETATM   11  N1  UNL     1      31.656  20.607   1.947  1.00  0.00    -0.375 N
HETATM   12  C10 UNL     1      31.812  19.989   0.765  1.00  0.00     0.095 A
ATOM     13  H1  UNL     1      31.298  21.554   2.068  1.00  0.00     0.164 HD
ENDBRANCH   7   8
ENDBRANCH   4   7
BRANCH   1  14
HETATM   14  O1  UNL     1      28.174  14.947  -2.099  1.00  0.00    -0.356 OA
HETATM   15  C1  UNL     1      28.142  13.540  -1.970  1.00  0.00     0.210 C
ENDBRANCH   1  14
TORSDOF 3
ENDMDL