MODEL 5
REMARK VINA RESULT: -6.722723377      3.443      5.857
REMARK  16 active torsions:
REMARK  status: ('A' for Active; 'I' for Inactive)
REMARK    1  A    between atoms: C2_2  and  C3_3
REMARK    2  A    between atoms: C3_3  and  C4_4
REMARK    3  A    between atoms: C4_4  and  O2_6
REMARK    4  A    between atoms: O2_6  and  C5_7
REMARK    5  A    between atoms: C5_7  and  C6_8
REMARK    6  A    between atoms: C10_12  and  O3_13
REMARK    7  A    between atoms: C13_17  and  O4_18
REMARK    8  A    between atoms: C13_17  and  C14_20
REMARK    9  A    between atoms: C14_20  and  O5_22
REMARK   10  A    between atoms: C16_24  and  C17_25
REMARK   11  A    between atoms: C17_25  and  C18_26
REMARK   12  A    between atoms: C18_26  and  N1_27
REMARK   13  A    between atoms: C18_26  and  C19_31
REMARK   14  A    between atoms: C21_35  and  O8_36
REMARK   15  A    between atoms: C25_41  and  O9_42
REMARK   16  A    between atoms: N2_44  and  O10_46
ROOT
HETATM    1  C6  UNL     1     -33.565   8.551 -25.288  1.00  0.00    -0.030 C
HETATM    2  C7  UNL     1     -34.815   8.526 -25.634  1.00  0.00    -0.007 C
HETATM    3  C8  UNL     1     -35.971   9.050 -24.813  1.00  0.00     0.010 C
HETATM    4  C9  UNL     1     -36.962   9.443 -25.903  1.00  0.00     0.023 C
HETATM    5  C10 UNL     1     -36.536   7.882 -24.107  1.00  0.00     0.131 C
HETATM    6  C11 UNL     1     -36.973   8.103 -22.669  1.00  0.00     0.043 C
HETATM    7  C12 UNL     1     -37.507   9.450 -22.544  1.00  0.00     0.060 C
HETATM    8  C13 UNL     1     -37.999   9.857 -21.133  1.00  0.00     0.093 C
HETATM    9  C16 UNL     1     -36.773   9.975 -20.377  1.00  0.00     0.028 C
HETATM   10  C20 UNL     1     -35.690  10.329 -21.444  1.00  0.00     0.047 C
HETATM   11  C21 UNL     1     -36.378  10.430 -22.746  1.00  0.00     0.073 C
HETATM   12  C22 UNL     1     -35.551  10.214 -23.969  1.00  0.00     0.003 C
HETATM   13  C23 UNL     1     -35.849  11.434 -24.867  1.00  0.00     0.020 C
HETATM   14  C24 UNL     1     -34.082  10.315 -23.704  1.00  0.00     0.049 C
HETATM   15  C25 UNL     1     -33.249   9.137 -23.961  1.00  0.00     0.150 C
ENDROOT
BRANCH   1  16
HETATM   16  C5  UNL     1     -32.497   8.004 -26.183  1.00  0.00     0.215 C
BRANCH  16  17
HETATM   17  O2  UNL     1     -31.939   6.822 -25.638  1.00  0.00    -0.317 OA
BRANCH  17  18
HETATM   18  C4  UNL     1     -30.729   6.837 -24.966  1.00  0.00     0.264 C
HETATM   19  O1  UNL     1     -30.640   6.408 -23.774  1.00  0.00    -0.265 OA
BRANCH  18  20
HETATM   20  C3  UNL     1     -29.526   7.363 -25.666  1.00  0.00     0.165 C
BRANCH  20  21
HETATM   21  C2  UNL     1     -29.323   6.461 -26.839  1.00  0.00     0.015 C
HETATM   22  C1  UNL     1     -29.119   5.007 -26.621  1.00  0.00     0.066 C
HETATM   23  N2  UNL     1     -29.329   6.967 -28.011  1.00  0.00    -0.277 N
ATOM     24  H2  UNL     1     -29.191   6.351 -28.812  1.00  0.00     0.193 HD
BRANCH  23  25
HETATM   25  O10 UNL     1     -29.513   8.294 -28.229  1.00  0.00    -0.290 OA
ATOM     26  H10 UNL     1     -30.040   8.836 -27.654  1.00  0.00     0.244 HD
ENDBRANCH  23  25
ENDBRANCH  20  21
ENDBRANCH  18  20
ENDBRANCH  17  18
ENDBRANCH  16  17
ENDBRANCH   1  16
BRANCH  15  27
HETATM   27  O9  UNL     1     -33.269   8.105 -23.043  1.00  0.00    -0.391 OA
ATOM     28  H9  UNL     1     -32.804   8.406 -22.271  1.00  0.00     0.210 HD
ENDBRANCH  15  27
BRANCH   5  29
HETATM   29  O3  UNL     1     -37.692   7.373 -24.754  1.00  0.00    -0.394 OA
ATOM     30  H3  UNL     1     -37.941   6.518 -24.423  1.00  0.00     0.210 HD
ENDBRANCH   5  29
BRANCH  11  31
HETATM   31  O8  UNL     1     -37.026  11.699 -22.739  1.00  0.00    -0.389 OA
ATOM     32  H8  UNL     1     -36.466  12.236 -22.191  1.00  0.00     0.210 HD
ENDBRANCH  11  31
BRANCH   8  33
HETATM   33  O4  UNL     1     -38.837  10.930 -21.273  1.00  0.00    -0.386 OA
ATOM     34  H4  UNL     1     -39.499  10.875 -20.595  1.00  0.00     0.210 HD
ENDBRANCH   8  33
BRANCH   8  35
HETATM   35  C14 UNL     1     -38.915   8.730 -20.602  1.00  0.00     0.149 C
HETATM   36  C15 UNL     1     -40.251   9.246 -20.153  1.00  0.00     0.042 C
BRANCH  35  37
HETATM   37  O5  UNL     1     -38.288   7.917 -19.695  1.00  0.00    -0.393 OA
ATOM     38  H5  UNL     1     -38.866   7.258 -19.330  1.00  0.00     0.210 HD
ENDBRANCH  35  37
ENDBRANCH   8  35
BRANCH   9  39
HETATM   39  C17 UNL     1     -36.559  10.709 -19.156  1.00  0.00     0.052 C
BRANCH  39  40
HETATM   40  C18 UNL     1     -36.814  12.076 -18.807  1.00  0.00     0.283 C
BRANCH  40  41
HETATM   41  N1  UNL     1     -38.338  12.188 -18.680  1.00  0.00    -0.065 N
ATOM     42  H13 UNL     1     -38.830  12.129 -19.571  1.00  0.00     0.275 HD
ATOM     43  H12 UNL     1     -38.774  11.374 -18.248  1.00  0.00     0.275 HD
ATOM     44  H11 UNL     1     -38.505  13.059 -18.175  1.00  0.00     0.275 HD
ENDBRANCH  40  41
BRANCH  40  45
HETATM   45  C19 UNL     1     -36.514  13.159 -19.734  1.00  0.00     0.204 C
HETATM   46  O6  UNL     1     -35.383  13.766 -19.692  1.00  0.00    -0.646 OA
HETATM   47  O7  UNL     1     -37.359  13.642 -20.739  1.00  0.00    -0.646 OA
ENDBRANCH  40  45
ENDBRANCH  39  40
ENDBRANCH   9  39
TORSDOF 16
ENDMDL