MODEL 1
REMARK VINA RESULT: -7.425153514      0.000      0.000
REMARK  17 active torsions:
REMARK  status: ('A' for Active; 'I' for Inactive)
REMARK    1  A    between atoms: C2_2  and  C22_35
REMARK    2  A    between atoms: C3_3  and  C4_4
REMARK    3  A    between atoms: C4_4  and  C5_5
REMARK    4  A    between atoms: C6_6  and  O1_7
REMARK    5  A    between atoms: O1_7  and  C7_8
REMARK    6  A    between atoms: C8_9  and  O2_10
REMARK    7  A    between atoms: C9_12  and  O3_13
REMARK    8  A    between atoms: C10_15  and  O4_16
REMARK    9  A    between atoms: C11_18  and  O5_19
REMARK   10  A    between atoms: C12_21  and  O6_23
REMARK   11  A    between atoms: C20_31  and  O7_33
REMARK   12  A    between atoms: N1_37  and  O8_39
REMARK   13  A    between atoms: O8_39  and  C24_40
REMARK   14  A    between atoms: C24_40  and  C25_41
REMARK   15  A    between atoms: C25_41  and  O9_42
REMARK   16  A    between atoms: C25_41  and  C26_44
REMARK   17  A    between atoms: C26_44  and  O10_45
ROOT
HETATM    1  C5  UNL     1     -29.309   5.182 -29.414  1.00  0.00     0.053 C
HETATM    2  C6  UNL     1     -30.781   5.444 -29.605  1.00  0.00     0.137 C
HETATM    3  C14 UNL     1     -31.224   4.759 -30.881  1.00  0.00     0.044 C
HETATM    4  C15 UNL     1     -32.350   5.392 -31.616  1.00  0.00     0.015 C
HETATM    5  C16 UNL     1     -32.297   4.620 -32.934  1.00  0.00     0.028 C
HETATM    6  C17 UNL     1     -30.820   4.543 -33.101  1.00  0.00    -0.023 C
HETATM    7  C18 UNL     1     -30.194   4.626 -31.905  1.00  0.00    -0.074 C
HETATM    8  C19 UNL     1     -28.741   4.578 -31.704  1.00  0.00     0.072 C
HETATM    9  C20 UNL     1     -28.425   5.536 -30.551  1.00  0.00     0.064 C
HETATM   10  C21 UNL     1     -26.973   5.154 -30.212  1.00  0.00     0.046 C
ENDROOT
BRANCH   2  11
HETATM   11  O1  UNL     1     -31.244   6.698 -29.619  1.00  0.00    -0.374 OA
BRANCH  11  12
HETATM   12  C7  UNL     1     -31.925   7.295 -28.638  1.00  0.00     0.190 C
HETATM   13  C8  UNL     1     -31.101   8.458 -28.129  1.00  0.00     0.181 C
HETATM   14  C9  UNL     1     -31.839   9.775 -28.056  1.00  0.00     0.180 C
HETATM   15  C10 UNL     1     -33.111   9.700 -27.284  1.00  0.00     0.181 C
HETATM   16  C11 UNL     1     -33.698   8.346 -27.363  1.00  0.00     0.186 C
HETATM   17  C12 UNL     1     -33.376   7.582 -28.667  1.00  0.00     0.111 C
HETATM   18  C13 UNL     1     -34.027   8.283 -29.762  1.00  0.00     0.051 C
BRANCH  13  19
HETATM   19  O2  UNL     1     -29.975   8.714 -28.931  1.00  0.00    -0.390 OA
ATOM     20  H2  UNL     1     -29.711   9.625 -28.909  1.00  0.00     0.210 HD
ENDBRANCH  13  19
BRANCH  14  21
HETATM   21  O3  UNL     1     -31.909  10.456 -29.256  1.00  0.00    -0.390 OA
ATOM     22  H3  UNL     1     -32.761  10.430 -29.672  1.00  0.00     0.210 HD
ENDBRANCH  14  21
BRANCH  15  23
HETATM   23  O4  UNL     1     -33.978  10.747 -27.628  1.00  0.00    -0.390 OA
ATOM     24  H4  UNL     1     -34.397  11.116 -26.859  1.00  0.00     0.210 HD
ENDBRANCH  15  23
BRANCH  16  25
HETATM   25  O5  UNL     1     -35.078   8.442 -27.207  1.00  0.00    -0.390 OA
ATOM     26  H5  UNL     1     -35.265   8.912 -26.403  1.00  0.00     0.210 HD
ENDBRANCH  16  25
BRANCH  17  27
HETATM   27  O6  UNL     1     -34.130   6.382 -28.449  1.00  0.00    -0.385 OA
ATOM     28  H6  UNL     1     -35.056   6.540 -28.590  1.00  0.00     0.210 HD
ENDBRANCH  17  27
ENDBRANCH  11  12
ENDBRANCH   2  11
BRANCH   1  29
HETATM   29  C4  UNL     1     -28.687   5.321 -28.101  1.00  0.00     0.037 C
BRANCH  29  30
HETATM   30  C3  UNL     1     -29.617   4.979 -26.998  1.00  0.00    -0.018 C
HETATM   31  C2  UNL     1     -29.994   5.654 -25.977  1.00  0.00    -0.042 C
HETATM   32  C1  UNL     1     -29.527   7.025 -25.681  1.00  0.00     0.050 C
BRANCH  31  33
HETATM   33  C22 UNL     1     -30.951   5.102 -24.987  1.00  0.00     0.034 C
HETATM   34  C23 UNL     1     -31.395   5.944 -23.837  1.00  0.00     0.070 C
HETATM   35  N1  UNL     1     -31.421   3.914 -25.077  1.00  0.00    -0.271 N
ATOM     36  H1  UNL     1     -31.118   3.339 -25.862  1.00  0.00     0.194 HD
BRANCH  35  37
HETATM   37  O8  UNL     1     -32.297   3.374 -24.192  1.00  0.00    -0.278 OA
BRANCH  37  38
HETATM   38  C24 UNL     1     -32.063   2.073 -23.709  1.00  0.00     0.235 C
BRANCH  38  39
HETATM   39  C25 UNL     1     -31.284   2.143 -22.408  1.00  0.00     0.167 C
BRANCH  39  40
HETATM   40  O9  UNL     1     -30.164   2.934 -22.531  1.00  0.00    -0.391 OA
ATOM     41  H9  UNL     1     -29.788   3.141 -21.684  1.00  0.00     0.210 HD
ENDBRANCH  39  40
BRANCH  39  42
HETATM   42  C26 UNL     1     -30.924   0.733 -21.946  1.00  0.00     0.198 C
BRANCH  42  43
HETATM   43  O10 UNL     1     -29.741   0.804 -21.224  1.00  0.00    -0.398 OA
ATOM     44  H10 UNL     1     -29.087   0.285 -21.677  1.00  0.00     0.209 HD
ENDBRANCH  42  43
ENDBRANCH  39  42
ENDBRANCH  38  39
ENDBRANCH  37  38
ENDBRANCH  35  37
ENDBRANCH  31  33
ENDBRANCH  29  30
ENDBRANCH   1  29
BRANCH   9  45
HETATM   45  O7  UNL     1     -28.395   6.834 -30.957  1.00  0.00    -0.389 OA
ATOM     46  H7  UNL     1     -27.598   7.157 -31.360  1.00  0.00     0.210 HD
ENDBRANCH   9  45
TORSDOF 17
ENDMDL