MODEL 2
REMARK VINA RESULT: -7.875701654      1.591      2.344
REMARK  17 active torsions:
REMARK  status: ('A' for Active; 'I' for Inactive)
REMARK    1  A    between atoms: C2_2  and  C4_4
REMARK    2  A    between atoms: C6_6  and  C7_7
REMARK    3  A    between atoms: C7_7  and  O1_8
REMARK    4  A    between atoms: C7_7  and  C8_10
REMARK    5  A    between atoms: C8_10  and  O2_12
REMARK    6  A    between atoms: C10_15  and  O4_16
REMARK    7  A    between atoms: C11_18  and  C12_19
REMARK    8  A    between atoms: C12_19  and  C13_20
REMARK    9  A    between atoms: C14_21  and  C15_22
REMARK   10  A    between atoms: C14_21  and  C17_26
REMARK   11  A    between atoms: C15_22  and  C16_23
REMARK   12  A    between atoms: C16_23  and  O5_24
REMARK   13  A    between atoms: C17_26  and  O6_27
REMARK   14  A    between atoms: C17_26  and  C18_29
REMARK   15  A    between atoms: C20_32  and  O8_33
REMARK   16  A    between atoms: C21_35  and  O9_36
REMARK   17  A    between atoms: C24_40  and  O10_42
ROOT
HETATM    1  C13 UNL     1     -33.758   8.389 -23.655  1.00  0.00    -0.018 C
HETATM    2  C14 UNL     1     -34.717   9.227 -23.351  1.00  0.00    -0.051 C
ENDROOT
BRANCH   2   3
HETATM    3  C15 UNL     1     -34.763  10.554 -23.983  1.00  0.00     0.062 C
BRANCH   3   4
HETATM    4  C16 UNL     1     -35.417  10.419 -25.353  1.00  0.00     0.168 C
BRANCH   4   5
HETATM    5  O5  UNL     1     -36.799  10.366 -25.279  1.00  0.00    -0.401 OA
ATOM      6  H5  UNL     1     -37.187   9.920 -26.023  1.00  0.00     0.209 HD
ENDBRANCH   4   5
ENDBRANCH   3   4
ENDBRANCH   2   3
BRANCH   2   7
HETATM    7  C17 UNL     1     -35.734   8.781 -22.355  1.00  0.00     0.176 C
BRANCH   7   8
HETATM    8  O6  UNL     1     -36.209   7.545 -22.735  1.00  0.00    -0.389 OA
ATOM      9  H6  UNL     1     -36.060   7.436 -23.666  1.00  0.00     0.210 HD
ENDBRANCH   7   8
BRANCH   7  10
HETATM   10  C18 UNL     1     -36.785   9.771 -22.020  1.00  0.00     0.164 C
HETATM   11  O7  UNL     1     -38.034   9.490 -22.542  1.00  0.00    -0.379 OA
HETATM   12  C19 UNL     1     -38.961  10.179 -21.790  1.00  0.00     0.209 C
HETATM   13  C20 UNL     1     -38.451   9.900 -20.371  1.00  0.00     0.114 C
HETATM   14  C21 UNL     1     -39.055  10.823 -19.385  1.00  0.00     0.155 C
HETATM   15  C26 UNL     1     -36.981   9.919 -20.511  1.00  0.00     0.090 C
HETATM   16  C22 UNL     1     -38.294  12.085 -19.141  1.00  0.00     0.038 C
HETATM   17  C23 UNL     1     -36.899  11.674 -18.712  1.00  0.00     0.040 C
HETATM   18  C24 UNL     1     -36.238  11.025 -19.904  1.00  0.00     0.063 C
HETATM   19  C25 UNL     1     -35.880  12.160 -20.858  1.00  0.00     0.046 C
BRANCH  13  20
HETATM   20  O8  UNL     1     -38.926   8.603 -20.064  1.00  0.00    -0.384 OA
ATOM     21  H8  UNL     1     -38.144   8.094 -19.886  1.00  0.00     0.210 HD
ENDBRANCH  13  20
BRANCH  14  22
HETATM   22  O9  UNL     1     -40.355  11.166 -19.753  1.00  0.00    -0.392 OA
ATOM     23  H9  UNL     1     -40.456  12.109 -19.809  1.00  0.00     0.210 HD
ENDBRANCH  14  22
BRANCH  18  24
HETATM   24  O10 UNL     1     -34.990  10.556 -19.422  1.00  0.00    -0.390 OA
ATOM     25  H10 UNL     1     -34.841   9.736 -19.880  1.00  0.00     0.210 HD
ENDBRANCH  18  24
ENDBRANCH   7  10
ENDBRANCH   2   7
BRANCH   1  26
HETATM   26  C12 UNL     1     -32.632   8.528 -24.577  1.00  0.00     0.071 C
BRANCH  26  27
HETATM   27  C11 UNL     1     -31.570   7.491 -24.450  1.00  0.00     0.121 C
HETATM   28  C4  UNL     1     -30.441   7.562 -25.391  1.00  0.00     0.034 C
HETATM   29  C5  UNL     1     -30.041   6.093 -25.606  1.00  0.00     0.080 C
HETATM   30  C6  UNL     1     -30.895   5.479 -24.499  1.00  0.00     0.197 C
HETATM   31  O3  UNL     1     -30.425   5.955 -23.307  1.00  0.00    -0.320 OA
HETATM   32  O11 UNL     1     -32.095   6.193 -24.740  1.00  0.00    -0.336 OA
HETATM   33  C10 UNL     1     -31.067   7.203 -23.076  1.00  0.00     0.295 C
BRANCH  28  34
HETATM   34  C2  UNL     1     -30.587   8.295 -26.659  1.00  0.00    -0.015 C
HETATM   35  C1  UNL     1     -30.545   7.507 -27.917  1.00  0.00     0.010 C
HETATM   36  C3  UNL     1     -29.431   9.306 -26.731  1.00  0.00     0.010 C
ENDBRANCH  28  34
BRANCH  30  37
HETATM   37  C7  UNL     1     -31.077   4.018 -24.602  1.00  0.00     0.209 C
BRANCH  37  38
HETATM   38  O1  UNL     1     -30.054   3.451 -25.326  1.00  0.00    -0.388 OA
ATOM     39  H1  UNL     1     -29.304   3.278 -24.769  1.00  0.00     0.210 HD
ENDBRANCH  37  38
BRANCH  37  40
HETATM   40  C8  UNL     1     -31.305   3.360 -23.285  1.00  0.00     0.148 C
HETATM   41  C9  UNL     1     -31.967   2.000 -23.513  1.00  0.00     0.042 C
BRANCH  40  42
HETATM   42  O2  UNL     1     -30.073   3.114 -22.685  1.00  0.00    -0.393 OA
ATOM     43  H2  UNL     1     -29.591   3.930 -22.625  1.00  0.00     0.210 HD
ENDBRANCH  40  42
ENDBRANCH  37  40
ENDBRANCH  30  37
BRANCH  33  44
HETATM   44  O4  UNL     1     -32.087   6.869 -22.180  1.00  0.00    -0.368 OA
ATOM     45  H4  UNL     1     -32.488   7.710 -21.991  1.00  0.00     0.212 HD
ENDBRANCH  33  44
ENDBRANCH  26  27
ENDBRANCH   1  26
TORSDOF 17
ENDMDL