MODEL 2
REMARK VINA RESULT: -7.566881528      0.960      1.341
REMARK  17 active torsions:
REMARK  status: ('A' for Active; 'I' for Inactive)
REMARK    1  A    between atoms: C10_10  and  O1_11
REMARK    2  A    between atoms: C11_13  and  O2_14
REMARK    3  A    between atoms: C13_17  and  O3_18
REMARK    4  A    between atoms: C13_17  and  C14_20
REMARK    5  A    between atoms: C14_20  and  C15_22
REMARK    6  A    between atoms: C15_22  and  C16_23
REMARK    7  A    between atoms: C16_23  and  C17_24
REMARK    8  A    between atoms: C17_24  and  C18_25
REMARK    9  A    between atoms: C18_25  and  O5_27
REMARK   10  A    between atoms: C18_25  and  O6_29
REMARK   11  A    between atoms: C21_32  and  O7_33
REMARK   12  A    between atoms: O7_33  and  C22_34
REMARK   13  A    between atoms: C22_34  and  C23_36
REMARK   14  A    between atoms: C23_36  and  O9_37
REMARK   15  A    between atoms: C23_36  and  O10_39
REMARK   16  A    between atoms: C23_36  and  C24_41
REMARK   17  A    between atoms: C24_41  and  O11_42
ROOT
HETATM    1  C1  UNL     1     -30.968  10.938 -27.118  1.00  0.00     0.043 C
HETATM    2  C2  UNL     1     -30.846   9.468 -27.089  1.00  0.00    -0.081 C
HETATM    3  C3  UNL     1     -31.747   8.599 -27.519  1.00  0.00    -0.068 C
HETATM    4  C4  UNL     1     -32.849   9.456 -28.006  1.00  0.00     0.035 C
HETATM    5  C5  UNL     1     -33.841   8.698 -28.883  1.00  0.00     0.009 C
HETATM    6  C6  UNL     1     -33.233   8.571 -30.222  1.00  0.00    -0.014 C
HETATM    7  C7  UNL     1     -34.309   8.995 -31.244  1.00  0.00     0.010 C
HETATM    8  C8  UNL     1     -32.660   7.307 -30.628  1.00  0.00     0.002 C
HETATM    9  C9  UNL     1     -33.702   6.587 -31.516  1.00  0.00     0.039 C
HETATM   10  C10 UNL     1     -32.954   5.338 -31.805  1.00  0.00     0.147 C
HETATM   11  C11 UNL     1     -32.256   5.042 -30.496  1.00  0.00     0.154 C
HETATM   12  C12 UNL     1     -32.285   6.257 -29.636  1.00  0.00     0.064 C
HETATM   13  C13 UNL     1     -31.085   6.545 -28.798  1.00  0.00     0.134 C
HETATM   14  C20 UNL     1     -31.529   7.112 -27.451  1.00  0.00     0.087 C
HETATM   15  C21 UNL     1     -30.745   6.708 -26.265  1.00  0.00     0.144 C
HETATM   16  C25 UNL     1     -30.117   7.895 -25.495  1.00  0.00     0.037 C
HETATM   17  C26 UNL     1     -29.609   8.865 -26.504  1.00  0.00     0.036 C
ENDROOT
BRANCH  13  18
HETATM   18  O3  UNL     1     -30.291   7.442 -29.502  1.00  0.00    -0.381 OA
ATOM     19  H3  UNL     1     -29.668   7.814 -28.888  1.00  0.00     0.211 HD
ENDBRANCH  13  18
BRANCH  13  20
HETATM   20  C14 UNL     1     -30.235   5.363 -28.525  1.00  0.00     0.162 C
HETATM   21  O4  UNL     1     -30.843   4.402 -28.017  1.00  0.00    -0.295 OA
BRANCH  20  22
HETATM   22  C15 UNL     1     -28.822   5.142 -28.750  1.00  0.00     0.082 C
BRANCH  22  23
HETATM   23  C16 UNL     1     -28.167   5.793 -29.902  1.00  0.00     0.013 C
BRANCH  23  24
HETATM   24  C17 UNL     1     -27.510   4.664 -30.718  1.00  0.00     0.068 C
BRANCH  24  25
HETATM   25  C18 UNL     1     -27.749   4.848 -32.190  1.00  0.00     0.155 C
HETATM   26  C19 UNL     1     -27.879   3.468 -32.794  1.00  0.00     0.078 C
BRANCH  25  27
HETATM   27  O5  UNL     1     -26.663   5.463 -32.821  1.00  0.00    -0.366 OA
ATOM     28  H5  UNL     1     -26.929   6.226 -33.320  1.00  0.00     0.213 HD
ENDBRANCH  25  27
BRANCH  25  29
HETATM   29  O6  UNL     1     -28.894   5.575 -32.485  1.00  0.00    -0.366 OA
ATOM     30  H6  UNL     1     -29.480   5.138 -33.091  1.00  0.00     0.213 HD
ENDBRANCH  25  29
ENDBRANCH  24  25
ENDBRANCH  23  24
ENDBRANCH  22  23
ENDBRANCH  20  22
ENDBRANCH  13  20
BRANCH  11  31
HETATM   31  O2  UNL     1     -31.020   4.573 -30.860  1.00  0.00    -0.392 OA
ATOM     32  H2  UNL     1     -30.413   5.019 -30.280  1.00  0.00     0.210 HD
ENDBRANCH  11  31
BRANCH  15  33
HETATM   33  O7  UNL     1     -31.580   6.148 -25.225  1.00  0.00    -0.311 OA
BRANCH  33  34
HETATM   34  C22 UNL     1     -31.123   5.302 -24.273  1.00  0.00     0.324 C
HETATM   35  O8  UNL     1     -30.804   5.716 -23.124  1.00  0.00    -0.259 OA
BRANCH  34  36
HETATM   36  C23 UNL     1     -30.951   3.826 -24.474  1.00  0.00     0.272 C
BRANCH  36  37
HETATM   37  O9  UNL     1     -32.009   3.438 -25.320  1.00  0.00    -0.356 OA
ATOM     38  H9  UNL     1     -31.967   4.028 -26.063  1.00  0.00     0.213 HD
ENDBRANCH  36  37
BRANCH  36  39
HETATM   39  O10 UNL     1     -29.728   3.515 -25.037  1.00  0.00    -0.356 OA
ATOM     40  H10 UNL     1     -29.819   3.015 -25.840  1.00  0.00     0.213 HD
ENDBRANCH  36  39
BRANCH  36  41
HETATM   41  C24 UNL     1     -31.099   3.066 -23.189  1.00  0.00     0.243 C
BRANCH  41  42
HETATM   42  O11 UNL     1     -29.922   2.942 -22.467  1.00  0.00    -0.395 OA
ATOM     43  H11 UNL     1     -30.046   2.920 -21.526  1.00  0.00     0.209 HD
ENDBRANCH  41  42
ENDBRANCH  36  41
ENDBRANCH  34  36
ENDBRANCH  33  34
ENDBRANCH  15  33
BRANCH  10  44
HETATM   44  O1  UNL     1     -33.772   4.285 -32.210  1.00  0.00    -0.393 OA
ATOM     45  H1  UNL     1     -33.957   3.664 -31.516  1.00  0.00     0.210 HD
ENDBRANCH  10  44
TORSDOF 17
ENDMDL