MODEL 1
REMARK VINA RESULT: -6.237562206      0.000      0.000
REMARK  15 active torsions:
REMARK  status: ('A' for Active; 'I' for Inactive)
REMARK    1  A    between atoms: C2_2  and  O1_3
REMARK    2  A    between atoms: C2_2  and  C3_5
REMARK    3  A    between atoms: C4_6  and  O2_7
REMARK    4  A    between atoms: O2_7  and  C5_8
REMARK    5  A    between atoms: C8_11  and  O3_12
REMARK    6  A    between atoms: C9_14  and  C10_15
REMARK    7  A    between atoms: C10_15  and  O4_16
REMARK    8  A    between atoms: O4_16  and  C11_17
REMARK    9  A    between atoms: C12_19  and  C13_20
REMARK   10  A    between atoms: C13_20  and  O6_21
REMARK   11  A    between atoms: C17_26  and  O7_27
REMARK   12  A    between atoms: C18_29  and  O8_30
REMARK   13  A    between atoms: C20_33  and  C21_34
REMARK   14  A    between atoms: C21_34  and  O9_35
REMARK   15  A    between atoms: C25_40  and  O10_42
ROOT
HETATM    1  C5  UNL     1     -35.189   9.819 -24.454  1.00  0.00     0.062 C
HETATM    2  C6  UNL     1     -34.999  11.274 -24.918  1.00  0.00     0.046 C
HETATM    3  C7  UNL     1     -34.822   8.968 -25.658  1.00  0.00     0.070 C
HETATM    4  C8  UNL     1     -33.378   8.869 -25.953  1.00  0.00     0.129 C
HETATM    5  C9  UNL     1     -32.458   8.982 -24.749  1.00  0.00     0.067 C
HETATM    6  C18 UNL     1     -33.266   8.501 -23.554  1.00  0.00     0.129 C
HETATM    7  C19 UNL     1     -34.274   9.625 -23.297  1.00  0.00     0.070 C
ENDROOT
BRANCH   1   8
HETATM    8  O2  UNL     1     -36.527   9.551 -24.227  1.00  0.00    -0.374 OA
BRANCH   8   9
HETATM    9  C4  UNL     1     -37.034   9.950 -23.011  1.00  0.00     0.138 C
HETATM   10  C3  UNL     1     -37.828  11.205 -23.062  1.00  0.00     0.078 C
HETATM   11  C25 UNL     1     -38.373  11.463 -21.672  1.00  0.00     0.066 C
HETATM   12  C23 UNL     1     -39.229  10.377 -21.149  1.00  0.00     0.017 C
HETATM   13  C26 UNL     1     -37.183  11.646 -20.752  1.00  0.00     0.047 C
HETATM   14  C22 UNL     1     -38.892   8.999 -21.553  1.00  0.00     0.016 C
HETATM   15  C24 UNL     1     -39.298  10.550 -19.623  1.00  0.00     0.013 C
HETATM   16  C20 UNL     1     -37.600   8.801 -22.275  1.00  0.00     0.039 C
BRANCH  10  17
HETATM   17  C2  UNL     1     -38.865  11.404 -24.069  1.00  0.00     0.123 C
HETATM   18  C1  UNL     1     -38.639  12.496 -25.072  1.00  0.00     0.040 C
BRANCH  17  19
HETATM   19  O1  UNL     1     -39.346  10.287 -24.738  1.00  0.00    -0.395 OA
ATOM     20  H1  UNL     1     -38.805   9.541 -24.503  1.00  0.00     0.210 HD
ENDBRANCH  17  19
ENDBRANCH  10  17
BRANCH  11  21
HETATM   21  O10 UNL     1     -39.113  12.658 -21.650  1.00  0.00    -0.389 OA
ATOM     22  H10 UNL     1     -40.006  12.488 -21.377  1.00  0.00     0.210 HD
ENDBRANCH  11  21
BRANCH  16  23
HETATM   23  C21 UNL     1     -37.755   7.542 -23.130  1.00  0.00     0.171 C
BRANCH  23  24
HETATM   24  O9  UNL     1     -36.666   6.714 -23.118  1.00  0.00    -0.400 OA
ATOM     25  H9  UNL     1     -36.679   6.058 -22.430  1.00  0.00     0.209 HD
ENDBRANCH  23  24
ENDBRANCH  16  23
ENDBRANCH   8   9
ENDBRANCH   1   8
BRANCH   4  26
HETATM   26  O3  UNL     1     -33.120   7.607 -26.517  1.00  0.00    -0.395 OA
ATOM     27  H3  UNL     1     -33.662   6.962 -26.076  1.00  0.00     0.210 HD
ENDBRANCH   4  26
BRANCH   6  28
HETATM   28  O8  UNL     1     -33.898   7.286 -23.798  1.00  0.00    -0.395 OA
ATOM     29  H8  UNL     1     -34.139   6.837 -22.997  1.00  0.00     0.210 HD
ENDBRANCH   6  28
BRANCH   5  30
HETATM   30  C10 UNL     1     -31.257   8.113 -24.871  1.00  0.00     0.180 C
BRANCH  30  31
HETATM   31  O4  UNL     1     -31.192   7.186 -23.861  1.00  0.00    -0.358 OA
BRANCH  31  32
HETATM   32  C11 UNL     1     -30.752   5.931 -24.225  1.00  0.00     0.289 C
HETATM   33  O5  UNL     1     -31.214   5.632 -25.551  1.00  0.00    -0.351 OA
HETATM   34  C12 UNL     1     -30.532   4.506 -25.972  1.00  0.00     0.148 C
HETATM   35  C14 UNL     1     -30.886   3.285 -25.149  1.00  0.00     0.041 C
HETATM   36  C15 UNL     1     -30.787   3.536 -23.679  1.00  0.00     0.018 C
HETATM   37  C16 UNL     1     -31.568   2.490 -22.933  1.00  0.00     0.012 C
HETATM   38  C17 UNL     1     -31.401   4.888 -23.360  1.00  0.00     0.177 C
BRANCH  34  39
HETATM   39  C13 UNL     1     -30.937   4.212 -27.409  1.00  0.00     0.196 C
BRANCH  39  40
HETATM   40  O6  UNL     1     -31.721   5.264 -27.888  1.00  0.00    -0.398 OA
ATOM     41  H6  UNL     1     -32.242   4.955 -28.619  1.00  0.00     0.209 HD
ENDBRANCH  39  40
ENDBRANCH  34  39
BRANCH  38  42
HETATM   42  O7  UNL     1     -32.750   4.825 -23.763  1.00  0.00    -0.390 OA
ATOM     43  H7  UNL     1     -32.935   3.909 -23.931  1.00  0.00     0.210 HD
ENDBRANCH  38  42
ENDBRANCH  31  32
ENDBRANCH  30  31
ENDBRANCH   5  30
TORSDOF 15
ENDMDL