MODEL 5
REMARK VINA RESULT: -8.317911477      0.926      2.425
REMARK  11 active torsions:
REMARK  status: ('A' for Active; 'I' for Inactive)
REMARK    1  A    between atoms: O1_2  and  C2_3
REMARK    2  A    between atoms: C4_5  and  C5_6
REMARK    3  A    between atoms: C6_11  and  O4_12
REMARK    4  A    between atoms: C8_14  and  S1_15
REMARK    5  A    between atoms: S1_15  and  N2_18
REMARK    6  A    between atoms: N2_18  and  C9_20
REMARK    7  A    between atoms: C12_23  and  N3_24
REMARK    8  A    between atoms: N3_24  and  C13_26
REMARK    9  A    between atoms: C14_29  and  N5_30
REMARK   10  A    between atoms: C16_38  and  N8_39
REMARK   11  A    between atoms: C17_44  and  N10_45
ROOT
HETATM    1  C9  UNL     1     -31.756   8.226 -28.652  1.00  0.00     0.093 C
HETATM    2  C10 UNL     1     -31.709   8.731 -30.106  1.00  0.00     0.028 C
HETATM    3  C11 UNL     1     -31.301   7.630 -31.064  1.00  0.00     0.027 C
HETATM    4  C12 UNL     1     -32.386   6.634 -31.250  1.00  0.00     0.083 C
HETATM    5  C19 UNL     1     -33.116   6.522 -29.912  1.00  0.00     0.027 C
HETATM    6  C20 UNL     1     -32.163   6.765 -28.761  1.00  0.00     0.028 C
ENDROOT
BRANCH   4   7
HETATM    7  N3  UNL     1     -31.929   5.312 -31.666  1.00  0.00    -0.370 N
ATOM      8  H3  UNL     1     -32.533   4.501 -31.533  1.00  0.00     0.161 HD
BRANCH   7   9
HETATM    9  C13 UNL     1     -30.669   5.154 -32.247  1.00  0.00     0.135 A
HETATM   10  N4  UNL     1     -29.587   5.053 -31.413  1.00  0.00    -0.176 N
HETATM   11  C14 UNL     1     -28.334   4.945 -31.895  1.00  0.00     0.679 A
ATOM     12  H4  UNL     1     -29.734   5.061 -30.404  1.00  0.00     0.186 HD
HETATM   13  N6  UNL     1     -28.113   4.933 -33.210  1.00  0.00    -0.175 N
HETATM   14  C15 UNL     1     -29.137   5.030 -34.099  1.00  0.00     0.154 A
ATOM     15  H6  UNL     1     -27.156   4.851 -33.555  1.00  0.00     0.186 HD
HETATM   16  N7  UNL     1     -28.894   5.011 -35.424  1.00  0.00    -0.175 N
HETATM   17  C18 UNL     1     -30.425   5.141 -33.602  1.00  0.00     0.097 A
HETATM   18  C16 UNL     1     -29.887   5.099 -36.317  1.00  0.00     0.679 A
ATOM     19  H7  UNL     1     -27.933   4.929 -35.753  1.00  0.00     0.186 HD
HETATM   20  N9  UNL     1     -31.140   5.206 -35.850  1.00  0.00    -0.176 N
HETATM   21  C17 UNL     1     -31.434   5.229 -34.530  1.00  0.00     0.132 A
ATOM     22  H9  UNL     1     -31.905   5.274 -36.520  1.00  0.00     0.186 HD
BRANCH  11  23
HETATM   23  N5  UNL     1     -27.315   4.850 -31.098  1.00  0.00    -0.234 N
ATOM     24  H52 UNL     1     -27.485   4.613 -30.120  1.00  0.00     0.174 HD
ATOM     25  H51 UNL     1     -26.365   5.006 -31.437  1.00  0.00     0.174 HD
ENDBRANCH  11  23
BRANCH  18  26
HETATM   26  N8  UNL     1     -29.645   5.079 -37.608  1.00  0.00    -0.234 N
ATOM     27  H82 UNL     1     -28.723   4.830 -37.966  1.00  0.00     0.174 HD
ATOM     28  H81 UNL     1     -30.371   5.311 -38.285  1.00  0.00     0.174 HD
ENDBRANCH  18  26
BRANCH  21  29
HETATM   29  N10 UNL     1     -32.661   5.327 -34.209  1.00  0.00    -0.384 N
ATOM     30 2H10 UNL     1     -33.422   5.135 -34.862  1.00  0.00     0.157 HD
ATOM     31 1H10 UNL     1     -32.872   5.617 -33.255  1.00  0.00     0.157 HD
ENDBRANCH  21  29
ENDBRANCH   7   9
ENDBRANCH   4   7
BRANCH   1  32
HETATM   32  N2  UNL     1     -30.468   8.400 -28.100  1.00  0.00    -0.310 N
ATOM     33  H2  UNL     1     -29.639   8.351 -28.692  1.00  0.00     0.172 HD
BRANCH  32  34
HETATM   34  S1  UNL     1     -30.321   8.693 -26.446  1.00  0.00     0.266 S
HETATM   35  O5  UNL     1     -31.291   9.727 -25.933  1.00  0.00    -0.200 OA
HETATM   36  O6  UNL     1     -28.906   9.183 -26.151  1.00  0.00    -0.200 OA
BRANCH  34  37
HETATM   37  C8  UNL     1     -30.630   7.238 -25.537  1.00  0.00     0.163 A
HETATM   38  C2  UNL     1     -31.454   7.212 -24.438  1.00  0.00     0.098 A
HETATM   39  C3  UNL     1     -31.644   6.004 -23.806  1.00  0.00     0.075 A
HETATM   40  C4  UNL     1     -31.022   4.834 -24.262  1.00  0.00     0.114 A
HETATM   41  N1  UNL     1     -30.231   4.904 -25.330  1.00  0.00    -0.330 N
HETATM   42  C6  UNL     1     -30.021   6.045 -25.968  1.00  0.00     0.169 A
ATOM     43  H1  UNL     1     -29.775   4.056 -25.666  1.00  0.00     0.168 HD
BRANCH  38  44
HETATM   44  O1  UNL     1     -32.047   8.386 -24.018  1.00  0.00    -0.354 OA
HETATM   45  C1  UNL     1     -32.869   8.354 -22.868  1.00  0.00     0.210 C
ENDBRANCH  38  44
BRANCH  40  46
HETATM   46  C5  UNL     1     -31.217   3.564 -23.600  1.00  0.00     0.227 C
HETATM   47  O2  UNL     1     -30.493   3.230 -22.646  1.00  0.00    -0.643 OA
HETATM   48  O3  UNL     1     -32.213   2.716 -24.029  1.00  0.00    -0.643 OA
ENDBRANCH  40  46
BRANCH  42  49
HETATM   49  O4  UNL     1     -29.189   6.064 -27.074  1.00  0.00    -0.340 OA
HETATM   50  C7  UNL     1     -29.060   4.884 -27.841  1.00  0.00     0.211 C
ENDBRANCH  42  49
ENDBRANCH  34  37
ENDBRANCH  32  34
ENDBRANCH   1  32
TORSDOF 11
ENDMDL