MODEL 2
REMARK VINA RESULT: -7.588142852      1.395      2.093
REMARK  14 active torsions:
REMARK  status: ('A' for Active; 'I' for Inactive)
REMARK    1  A    between atoms: C2_2  and  S1_4
REMARK    2  A    between atoms: C2_2  and  C14_22
REMARK    3  A    between atoms: S1_4  and  C4_5
REMARK    4  A    between atoms: C6_8  and  C7_9
REMARK    5  A    between atoms: C7_9  and  O2_10
REMARK    6  A    between atoms: C7_9  and  C8_12
REMARK    7  A    between atoms: C10_14  and  O3_15
REMARK    8  A    between atoms: C12_18  and  O4_19
REMARK    9  A    between atoms: C14_22  and  C15_24
REMARK       I    between atoms: C15_24  and  N1_26
REMARK   10  A    between atoms: N1_26  and  N2_28
REMARK       I    between atoms: N2_28  and  C16_30
REMARK       I    between atoms: C16_30  and  N3_32
REMARK   11  A    between atoms: N3_32  and  N4_34
REMARK   12  A    between atoms: N4_34  and  S2_36
REMARK   13  A    between atoms: S2_36  and  O10_39
REMARK   14  A    between atoms: O10_39  and  C17_40
ROOT
HETATM    1  C1  UNL     1     -32.942   7.621 -28.026  1.00  0.00     0.035 C
HETATM    2  C2  UNL     1     -31.899   8.523 -28.663  1.00  0.00     0.071 C
HETATM    3  C3  UNL     1     -32.551   9.728 -29.277  1.00  0.00     0.035 C
ENDROOT
BRANCH   2   4
HETATM    4  S1  UNL     1     -30.845   7.627 -29.789  1.00  0.00    -0.142 SA
BRANCH   4   5
HETATM    5  C4  UNL     1     -29.594   6.597 -28.977  1.00  0.00     0.104 C
HETATM    6  C5  UNL     1     -28.956   5.552 -29.827  1.00  0.00     0.186 C
HETATM    7  O1  UNL     1     -29.961   4.678 -29.411  1.00  0.00    -0.380 OA
HETATM    8  C6  UNL     1     -30.217   5.467 -28.255  1.00  0.00     0.170 C
BRANCH   8   9
HETATM    9  C7  UNL     1     -29.549   4.817 -27.106  1.00  0.00     0.181 C
BRANCH   9  10
HETATM   10  O2  UNL     1     -28.318   5.364 -26.743  1.00  0.00    -0.388 OA
ATOM     11  H2  UNL     1     -27.558   4.960 -27.147  1.00  0.00     0.210 HD
ENDBRANCH   9  10
BRANCH   9  12
HETATM   12  C8  UNL     1     -30.334   4.561 -25.904  1.00  0.00    -0.022 A
HETATM   13  C9  UNL     1     -30.535   5.533 -24.956  1.00  0.00     0.046 A
HETATM   14  C10 UNL     1     -31.261   5.301 -23.802  1.00  0.00     0.069 A
HETATM   15  C11 UNL     1     -31.788   4.040 -23.626  1.00  0.00     0.073 A
HETATM   16  C12 UNL     1     -31.621   3.024 -24.541  1.00  0.00     0.069 A
HETATM   17  C13 UNL     1     -30.882   3.319 -25.680  1.00  0.00     0.046 A
BRANCH  14  18
HETATM   18  O3  UNL     1     -31.454   6.311 -22.845  1.00  0.00    -0.361 OA
ATOM     19  H3  UNL     1     -31.407   6.125 -21.914  1.00  0.00     0.217 HD
ENDBRANCH  14  18
BRANCH  16  20
HETATM   20  O4  UNL     1     -32.163   1.746 -24.351  1.00  0.00    -0.361 OA
ATOM     21  H4  UNL     1     -32.025   1.037 -24.969  1.00  0.00     0.217 HD
ENDBRANCH  16  20
ENDBRANCH   9  12
ENDBRANCH   8   9
ENDBRANCH   4   5
ENDBRANCH   2   4
BRANCH   2  22
HETATM   22  C14 UNL     1     -31.077   9.024 -27.499  1.00  0.00     0.235 C
HETATM   23  O5  UNL     1     -29.835   9.105 -27.546  1.00  0.00    -0.285 OA
BRANCH  22  24
HETATM   24  C15 UNL     1     -31.765   9.417 -26.289  1.00  0.00     0.307 C
HETATM   25  O6  UNL     1     -32.258  10.566 -26.086  1.00  0.00    -0.263 OA
HETATM   26  N1  UNL     1     -31.932   8.476 -25.218  1.00  0.00    -0.259 N
ATOM     27  H1  UNL     1     -31.548   7.538 -25.336  1.00  0.00     0.190 HD
BRANCH  26  28
HETATM   28  N2  UNL     1     -32.586   8.773 -24.031  1.00  0.00    -0.247 N
HETATM   29  C16 UNL     1     -33.900   8.350 -23.754  1.00  0.00     0.354 C
HETATM   30  O7  UNL     1     -34.501   7.667 -24.634  1.00  0.00    -0.244 OA
HETATM   31  N3  UNL     1     -34.601   8.638 -22.558  1.00  0.00    -0.239 N
ATOM     32  H3  UNL     1     -34.144   9.178 -21.823  1.00  0.00     0.192 HD
ATOM     33  H2  UNL     1     -32.093   9.322 -23.327  1.00  0.00     0.192 HD
BRANCH  31  34
HETATM   34  N4  UNL     1     -35.887   8.196 -22.375  1.00  0.00    -0.200 N
ATOM     35  H4  UNL     1     -36.169   7.225 -22.511  1.00  0.00     0.202 HD
BRANCH  34  36
HETATM   36  S2  UNL     1     -36.968   9.423 -21.898  1.00  0.00     0.384 S
HETATM   37  O8  UNL     1     -36.635  10.669 -22.693  1.00  0.00    -0.174 OA
HETATM   38  O9  UNL     1     -38.417   9.075 -22.195  1.00  0.00    -0.174 OA
BRANCH  36  39
HETATM   39  O10 UNL     1     -36.749   9.762 -20.252  1.00  0.00    -0.163 OA
BRANCH  39  40
HETATM   40  C17 UNL     1     -35.568  10.415 -19.873  1.00  0.00     0.388 C
HETATM   41  N5  UNL     1     -34.412   9.596 -19.696  1.00  0.00    -0.031 NA
HETATM   42  O11 UNL     1     -35.513  11.657 -19.693  1.00  0.00    -0.241 OA
ENDBRANCH  39  40
ENDBRANCH  36  39
ENDBRANCH  34  36
ENDBRANCH  31  34
ENDBRANCH  26  28
ENDBRANCH  22  24
ENDBRANCH   2  22
TORSDOF 14
ENDMDL