MODEL 1
REMARK VINA RESULT: -8.548695111      0.000      0.000
REMARK  15 active torsions:
REMARK  status: ('A' for Active; 'I' for Inactive)
REMARK    1  A    between atoms: C2_2  and  C3_3
REMARK    2  A    between atoms: C8_8  and  O1_9
REMARK    3  A    between atoms: O1_9  and  C9_10
REMARK    4  A    between atoms: C10_11  and  N1_12
REMARK    5  A    between atoms: C11_16  and  O2_17
REMARK    6  A    between atoms: O2_17  and  C12_18
REMARK    7  A    between atoms: C12_18  and  C13_19
REMARK    8  A    between atoms: C13_19  and  N2_20
REMARK    9  A    between atoms: C13_19  and  C14_24
REMARK       I    between atoms: C14_24  and  N3_26
REMARK   10  A    between atoms: N3_26  and  C15_28
REMARK   11  A    between atoms: C21_34  and  O4_35
REMARK   12  A    between atoms: C22_37  and  O5_38
REMARK   13  A    between atoms: C23_40  and  O6_41
REMARK   14  A    between atoms: C24_43  and  O7_44
REMARK   15  A    between atoms: C25_46  and  O8_47
ROOT
HETATM    1  C9  UNL     1     -29.655   6.041 -26.671  1.00  0.00     0.186 C
HETATM    2  C10 UNL     1     -30.663   6.978 -26.121  1.00  0.00     0.246 C
HETATM    3  C11 UNL     1     -30.707   6.804 -24.568  1.00  0.00     0.185 C
HETATM    4  C21 UNL     1     -31.462   5.476 -24.416  1.00  0.00     0.180 C
HETATM    5  C22 UNL     1     -30.597   4.407 -24.999  1.00  0.00     0.180 C
HETATM    6  C23 UNL     1     -29.374   4.895 -25.718  1.00  0.00     0.180 C
ENDROOT
BRANCH   3   7
HETATM    7  O2  UNL     1     -31.321   7.838 -23.984  1.00  0.00    -0.378 OA
BRANCH   7   8
HETATM    8  C12 UNL     1     -32.288   7.698 -23.053  1.00  0.00     0.211 C
BRANCH   8   9
HETATM    9  C13 UNL     1     -33.526   8.516 -23.139  1.00  0.00     0.298 C
BRANCH   9  10
HETATM   10  N2  UNL     1     -34.655   7.850 -23.728  1.00  0.00    -0.064 N
ATOM     11  H23 UNL     1     -35.370   8.530 -23.986  1.00  0.00     0.275 HD
ATOM     12  H22 UNL     1     -34.410   7.490 -24.650  1.00  0.00     0.275 HD
ATOM     13  H21 UNL     1     -35.064   7.109 -23.158  1.00  0.00     0.275 HD
ENDBRANCH   9  10
BRANCH   9  14
HETATM   14  C14 UNL     1     -33.958   9.006 -21.783  1.00  0.00     0.250 C
HETATM   15  O3  UNL     1     -33.367   8.639 -20.768  1.00  0.00    -0.271 OA
HETATM   16  N3  UNL     1     -35.059   9.896 -21.724  1.00  0.00    -0.355 N
ATOM     17  H3  UNL     1     -35.519  10.174 -22.591  1.00  0.00     0.162 HD
BRANCH  16  18
HETATM   18  C15 UNL     1     -35.549  10.421 -20.465  1.00  0.00     0.084 C
HETATM   19  C16 UNL     1     -35.760  11.897 -20.644  1.00  0.00     0.025 C
HETATM   20  C17 UNL     1     -36.372  12.570 -19.455  1.00  0.00     0.002 C
HETATM   21  C18 UNL     1     -37.377  11.703 -18.746  1.00  0.00     0.000 C
HETATM   22  C19 UNL     1     -37.923  10.651 -19.682  1.00  0.00     0.002 C
HETATM   23  C20 UNL     1     -36.823   9.702 -20.094  1.00  0.00     0.025 C
ENDBRANCH  16  18
ENDBRANCH   9  14
ENDBRANCH   8   9
ENDBRANCH   7   8
ENDBRANCH   3   7
BRANCH   2  24
HETATM   24  N1  UNL     1     -32.004   6.844 -26.566  1.00  0.00    -0.070 N
ATOM     25  H13 UNL     1     -32.163   5.883 -26.869  1.00  0.00     0.274 HD
ATOM     26  H12 UNL     1     -32.631   6.899 -25.764  1.00  0.00     0.274 HD
ATOM     27  H11 UNL     1     -32.330   7.484 -27.292  1.00  0.00     0.274 HD
ENDBRANCH   2  24
BRANCH   4  28
HETATM   28  O4  UNL     1     -31.850   5.214 -23.126  1.00  0.00    -0.390 OA
ATOM     29  H4  UNL     1     -31.643   4.331 -22.841  1.00  0.00     0.210 HD
ENDBRANCH   4  28
BRANCH   1  30
HETATM   30  O1  UNL     1     -29.913   5.495 -27.904  1.00  0.00    -0.373 OA
BRANCH  30  31
HETATM   31  C8  UNL     1     -29.127   5.956 -28.949  1.00  0.00     0.153 C
HETATM   32  C7  UNL     1     -28.317   4.930 -29.635  1.00  0.00     0.034 C
HETATM   33  C6  UNL     1     -27.994   5.275 -31.051  1.00  0.00     0.002 C
HETATM   34  C5  UNL     1     -29.066   5.056 -32.050  1.00  0.00     0.001 C
HETATM   35  C4  UNL     1     -30.195   4.192 -31.633  1.00  0.00     0.007 C
HETATM   36  C3  UNL     1     -31.179   4.797 -30.705  1.00  0.00     0.017 C
HETATM   37  C25 UNL     1     -31.089   6.273 -30.524  1.00  0.00     0.153 C
HETATM   38  C24 UNL     1     -29.952   6.835 -29.827  1.00  0.00     0.176 C
BRANCH  36  39
HETATM   39  C2  UNL     1     -32.575   4.540 -31.261  1.00  0.00     0.002 C
HETATM   40  C1  UNL     1     -32.616   4.541 -32.754  1.00  0.00     0.005 C
ENDBRANCH  36  39
BRANCH  37  41
HETATM   41  O8  UNL     1     -32.295   6.669 -29.937  1.00  0.00    -0.393 OA
ATOM     42  H8  UNL     1     -32.175   7.573 -29.668  1.00  0.00     0.210 HD
ENDBRANCH  37  41
BRANCH  38  43
HETATM   43  O7  UNL     1     -30.380   7.905 -29.011  1.00  0.00    -0.390 OA
ATOM     44  H7  UNL     1     -30.768   8.541 -29.599  1.00  0.00     0.210 HD
ENDBRANCH  38  43
ENDBRANCH  30  31
ENDBRANCH   1  30
BRANCH   5  45
HETATM   45  O5  UNL     1     -30.211   3.565 -23.960  1.00  0.00    -0.390 OA
ATOM     46  H5  UNL     1     -29.756   2.824 -24.343  1.00  0.00     0.210 HD
ENDBRANCH   5  45
BRANCH   6  47
HETATM   47  O6  UNL     1     -28.905   3.803 -26.460  1.00  0.00    -0.390 OA
ATOM     48  H6  UNL     1     -29.523   3.087 -26.367  1.00  0.00     0.210 HD
ENDBRANCH   6  47
TORSDOF 15
ENDMDL