MODEL 4
REMARK VINA RESULT: -7.873610362      2.878     10.190
REMARK  16 active torsions:
REMARK  status: ('A' for Active; 'I' for Inactive)
REMARK    1  A    between atoms: C3_4  and  C4_5
REMARK    2  A    between atoms: C5_6  and  C6_7
REMARK    3  A    between atoms: C6_7  and  O2_8
REMARK    4  A    between atoms: C6_7  and  C7_10
REMARK    5  A    between atoms: C9_12  and  O3_13
REMARK    6  A    between atoms: C11_16  and  C12_17
REMARK    7  A    between atoms: C12_17  and  O4_18
REMARK    8  A    between atoms: C14_23  and  O7_25
REMARK    9  A    between atoms: C16_27  and  O8_28
REMARK   10  A    between atoms: C17_30  and  O9_31
REMARK   11  A    between atoms: C18_33  and  C19_34
REMARK   12  A    between atoms: C19_34  and  O10_35
REMARK   13  A    between atoms: C19_34  and  C20_37
REMARK   14  A    between atoms: C20_37  and  C21_38
REMARK   15  A    between atoms: C21_38  and  C22_39
REMARK   16  A    between atoms: C26_43  and  O11_44
ROOT
HETATM    1  C1  UNL     1     -32.131   8.845 -29.391  1.00  0.00     0.049 C
HETATM    2  C2  UNL     1     -31.618   8.704 -28.208  1.00  0.00     0.084 C
HETATM    3  O1  UNL     1     -32.384   8.676 -27.020  1.00  0.00    -0.309 OA
HETATM    4  C3  UNL     1     -31.661   7.965 -25.976  1.00  0.00     0.226 C
HETATM    5  O6  UNL     1     -30.678   8.890 -25.586  1.00  0.00    -0.309 OA
HETATM    6  C14 UNL     1     -30.065   9.517 -26.684  1.00  0.00     0.202 C
HETATM    7  C15 UNL     1     -28.675   9.950 -26.400  1.00  0.00     0.083 C
HETATM    8  C16 UNL     1     -30.165   8.549 -27.894  1.00  0.00     0.196 C
HETATM    9  C17 UNL     1     -29.898   7.227 -27.372  1.00  0.00     0.143 C
HETATM   10  C18 UNL     1     -29.464   6.061 -28.052  1.00  0.00     0.056 C
HETATM   11  C24 UNL     1     -29.901   4.928 -27.125  1.00  0.00     0.014 C
HETATM   12  C25 UNL     1     -30.591   5.632 -25.931  1.00  0.00     0.048 C
HETATM   13  C26 UNL     1     -31.184   6.766 -26.644  1.00  0.00     0.153 C
ENDROOT
BRANCH   4  14
HETATM   14  C4  UNL     1     -32.594   7.824 -24.866  1.00  0.00     0.043 C
HETATM   15  C5  UNL     1     -33.112   8.795 -24.144  1.00  0.00     0.007 C
BRANCH  15  16
HETATM   16  C6  UNL     1     -34.047   8.633 -23.035  1.00  0.00     0.152 C
BRANCH  16  17
HETATM   17  O2  UNL     1     -35.103   7.827 -23.456  1.00  0.00    -0.391 OA
ATOM     18  H2  UNL     1     -35.303   7.204 -22.767  1.00  0.00     0.210 HD
ENDBRANCH  16  17
BRANCH  16  19
HETATM   19  C7  UNL     1     -34.629   9.907 -22.507  1.00  0.00     0.090 C
HETATM   20  C8  UNL     1     -34.931  10.903 -23.614  1.00  0.00     0.046 C
HETATM   21  C9  UNL     1     -35.290  12.214 -22.901  1.00  0.00     0.119 C
HETATM   22  C10 UNL     1     -36.610  12.001 -22.236  1.00  0.00     0.046 C
HETATM   23  C11 UNL     1     -36.608  10.881 -21.228  1.00  0.00     0.082 C
HETATM   24  C13 UNL     1     -35.793   9.732 -21.637  1.00  0.00     0.140 C
HETATM   25  O5  UNL     1     -36.091   8.625 -21.245  1.00  0.00    -0.297 OA
BRANCH  21  26
HETATM   26  O3  UNL     1     -35.431  13.197 -23.862  1.00  0.00    -0.396 OA
ATOM     27  H3  UNL     1     -35.628  12.773 -24.688  1.00  0.00     0.210 HD
ENDBRANCH  21  26
BRANCH  23  28
HETATM   28  C12 UNL     1     -36.199  11.446 -19.886  1.00  0.00     0.176 C
BRANCH  28  29
HETATM   29  O4  UNL     1     -36.388  10.530 -18.857  1.00  0.00    -0.400 OA
ATOM     30  H4  UNL     1     -35.598  10.039 -18.669  1.00  0.00     0.209 HD
ENDBRANCH  28  29
ENDBRANCH  23  28
ENDBRANCH  16  19
ENDBRANCH  15  16
ENDBRANCH   4  14
BRANCH  13  31
HETATM   31  O11 UNL     1     -32.124   6.296 -27.547  1.00  0.00    -0.381 OA
ATOM     32  H11 UNL     1     -31.783   6.316 -28.433  1.00  0.00     0.211 HD
ENDBRANCH  13  31
BRANCH   6  33
HETATM   33  O7  UNL     1     -30.833  10.666 -26.933  1.00  0.00    -0.363 OA
ATOM     34  H7  UNL     1     -31.484  10.689 -26.242  1.00  0.00     0.213 HD
ENDBRANCH   6  33
BRANCH   9  35
HETATM   35  O9  UNL     1     -28.997   7.363 -26.262  1.00  0.00    -0.382 OA
ATOM     36  H9  UNL     1     -28.143   7.055 -26.540  1.00  0.00     0.210 HD
ENDBRANCH   9  35
BRANCH   8  37
HETATM   37  O8  UNL     1     -29.351   9.046 -28.874  1.00  0.00    -0.375 OA
ATOM     38  H8  UNL     1     -29.744   9.768 -29.351  1.00  0.00     0.211 HD
ENDBRANCH   8  37
BRANCH  10  39
HETATM   39  C19 UNL     1     -29.842   5.710 -29.442  1.00  0.00     0.125 C
BRANCH  39  40
HETATM   40  O10 UNL     1     -29.940   6.752 -30.327  1.00  0.00    -0.395 OA
ATOM     41  H10 UNL     1     -29.842   6.534 -31.246  1.00  0.00     0.210 HD
ENDBRANCH  39  40
BRANCH  39  42
HETATM   42  C20 UNL     1     -28.734   4.818 -29.973  1.00  0.00     0.032 C
BRANCH  42  43
HETATM   43  C21 UNL     1     -27.566   5.555 -30.529  1.00  0.00     0.002 C
BRANCH  43  44
HETATM   44  C22 UNL     1     -27.097   4.955 -31.833  1.00  0.00    -0.004 C
HETATM   45  C23 UNL     1     -28.178   4.080 -32.451  1.00  0.00     0.005 C
ENDBRANCH  43  44
ENDBRANCH  42  43
ENDBRANCH  39  42
ENDBRANCH  10  39
TORSDOF 16
ENDMDL