MODEL 2
REMARK VINA RESULT: -8.473805862      1.104      1.190
REMARK  5 active torsions:
REMARK  status: ('A' for Active; 'I' for Inactive)
REMARK    1  A    between atoms: C3_3  and  C4_4
REMARK    2  A    between atoms: C6_7  and  O1_8
REMARK    3  A    between atoms: C6_7  and  C7_10
REMARK    4  A    between atoms: C9_13  and  N2_14
REMARK       I    between atoms: N2_14  and  C10_16
REMARK    5  A    between atoms: C13_25  and  N6_26
ROOT
HETATM    1  C1  UNL     1     -21.773 -30.718  -1.278  1.00  0.00     0.096 C
HETATM    2  C2  UNL     1     -22.217 -31.300  -2.370  1.00  0.00    -0.187 C
HETATM    3  C3  UNL     1     -22.692 -31.930  -3.403  1.00  0.00     0.087 C
ENDROOT
BRANCH   3   4
HETATM    4  C4  UNL     1     -23.016 -33.349  -3.234  1.00  0.00     0.037 C
HETATM    5  C5  UNL     1     -23.695 -33.755  -4.538  1.00  0.00     0.132 C
HETATM    6  N1  UNL     1     -22.817 -33.384  -5.660  1.00  0.00    -0.360 N
HETATM    7  C6  UNL     1     -23.352 -32.604  -6.625  1.00  0.00     0.166 C
HETATM    8  C11 UNL     1     -21.485 -33.882  -5.579  1.00  0.00     0.127 C
HETATM    9  C12 UNL     1     -21.383 -34.810  -4.388  1.00  0.00     0.046 C
HETATM   10  C13 UNL     1     -21.745 -34.191  -3.061  1.00  0.00     0.096 C
BRANCH   7  11
HETATM   11  O1  UNL     1     -24.638 -32.262  -6.409  1.00  0.00    -0.344 OA
ATOM     12  H1  UNL     1     -25.103 -32.849  -5.824  1.00  0.00     0.219 HD
ENDBRANCH   7  11
BRANCH   7  13
HETATM   13  C7  UNL     1     -22.836 -32.024  -7.885  1.00  0.00     0.092 A
HETATM   14  C8  UNL     1     -22.730 -32.776  -9.023  1.00  0.00     0.087 A
HETATM   15  S1  UNL     1     -22.128 -31.641 -10.161  1.00  0.00    -0.063 SA
HETATM   16  C9  UNL     1     -22.039 -30.286  -9.149  1.00  0.00     0.151 A
HETATM   17  N5  UNL     1     -22.480 -30.768  -7.966  1.00  0.00    -0.333 N
ATOM     18  H5  UNL     1     -22.535 -30.161  -7.149  1.00  0.00     0.168 HD
BRANCH  16  19
HETATM   19  N2  UNL     1     -21.694 -29.057  -9.354  1.00  0.00    -0.311 N
HETATM   20  C10 UNL     1     -20.766 -28.405  -8.552  1.00  0.00     0.187 C
HETATM   21  N3  UNL     1     -19.571 -28.898  -8.437  1.00  0.00    -0.373 N
HETATM   22  N4  UNL     1     -21.162 -27.222  -7.894  1.00  0.00    -0.064 NA
ATOM     23  H32 UNL     1     -19.285 -29.753  -8.914  1.00  0.00     0.158 HD
ATOM     24  H31 UNL     1     -18.889 -28.420  -7.848  1.00  0.00     0.158 HD
ATOM     25  H2  UNL     1     -22.117 -28.549 -10.129  1.00  0.00     0.170 HD
ENDBRANCH  16  19
ENDBRANCH   7  13
BRANCH  10  26
HETATM   26  N6  UNL     1     -21.891 -35.177  -2.083  1.00  0.00    -0.369 N
HETATM   27  C14 UNL     1     -22.107 -34.868  -0.736  1.00  0.00     0.063 C
HETATM   28  C15 UNL     1     -23.266 -35.655  -0.122  1.00  0.00     0.045 C
HETATM   29  C16 UNL     1     -22.911 -37.122  -0.266  1.00  0.00     0.010 C
HETATM   30  C17 UNL     1     -22.840 -37.415  -1.751  1.00  0.00     0.045 C
HETATM   31  C18 UNL     1     -21.792 -36.535  -2.391  1.00  0.00     0.063 C
ENDBRANCH  10  26
ENDBRANCH   3   4
TORSDOF 5
ENDMDL