MODEL 5
REMARK VINA RESULT: -8.244299385      4.067      6.131
REMARK  2 active torsions:
REMARK  status: ('A' for Active; 'I' for Inactive)
REMARK       I    between atoms: C1_4  and  N2_5
REMARK       I    between atoms: C1_4  and  N5_24
REMARK       I    between atoms: N2_5  and  C2_7
REMARK       I    between atoms: C2_7  and  N3_9
REMARK    1  A    between atoms: N3_9  and  C3_11
REMARK    2  A    between atoms: N5_24  and  C14_26
ROOT
HETATM    1  N1  UNL     1     -23.743 -35.569   1.493  1.00  0.00    -0.235 N
ATOM      2  H11 UNL     1     -23.443 -34.833   2.133  1.00  0.00     0.174 HD
ATOM      3  H12 UNL     1     -24.509 -36.216   1.684  1.00  0.00     0.174 HD
HETATM    4  C1  UNL     1     -23.133 -35.710   0.370  1.00  0.00     0.676 C
HETATM    5  N2  UNL     1     -23.547 -36.729  -0.515  1.00  0.00    -0.142 N
ATOM      6  H2  UNL     1     -24.325 -37.325  -0.233  1.00  0.00     0.189 HD
HETATM    7  C2  UNL     1     -22.943 -36.966  -1.771  1.00  0.00     0.335 C
HETATM    8  O1  UNL     1     -21.993 -36.241  -2.124  1.00  0.00    -0.246 OA
HETATM    9  N3  UNL     1     -23.398 -37.988  -2.598  1.00  0.00    -0.329 N
ATOM     10  H3  UNL     1     -24.178 -38.558  -2.270  1.00  0.00     0.165 HD
HETATM   11  N5  UNL     1     -22.072 -34.814   0.107  1.00  0.00    -0.222 N
ATOM     12  H5  UNL     1     -21.138 -35.175  -0.084  1.00  0.00     0.178 HD
ENDROOT
BRANCH   9  13
HETATM   13  C3  UNL     1     -22.829 -38.295  -3.908  1.00  0.00     0.179 C
HETATM   14  C4  UNL     1     -22.912 -39.744  -4.149  1.00  0.00     0.039 C
HETATM   15  C5  UNL     1     -23.630 -40.223  -5.369  1.00  0.00    -0.010 C
HETATM   16  C6  UNL     1     -22.992 -39.893  -6.641  1.00  0.00     0.009 C
HETATM   17  C13 UNL     1     -25.078 -39.842  -5.214  1.00  0.00     0.030 C
HETATM   18  C7  UNL     1     -23.785 -39.336  -7.757  1.00  0.00    -0.011 C
HETATM   19  C8  UNL     1     -23.318 -37.923  -8.146  1.00  0.00     0.024 C
HETATM   20  C12 UNL     1     -25.274 -39.207  -7.505  1.00  0.00     0.030 C
HETATM   21  C9  UNL     1     -23.988 -36.906  -7.193  1.00  0.00     0.127 C
HETATM   22  N4  UNL     1     -24.281 -37.680  -6.018  1.00  0.00    -0.346 N
HETATM   23  C10 UNL     1     -23.428 -37.425  -4.938  1.00  0.00     0.243 C
HETATM   24  C11 UNL     1     -25.353 -38.631  -6.077  1.00  0.00     0.088 C
HETATM   25  O2  UNL     1     -23.103 -36.221  -4.816  1.00  0.00    -0.271 OA
ENDBRANCH   9  13
BRANCH  11  26
HETATM   26  C14 UNL     1     -22.308 -33.365   0.106  1.00  0.00     0.099 C
HETATM   27  C15 UNL     1     -21.699 -32.802  -1.127  1.00  0.00     0.026 C
HETATM   28  C16 UNL     1     -21.556 -31.294  -1.085  1.00  0.00     0.002 C
HETATM   29  C17 UNL     1     -20.628 -30.997   0.090  1.00  0.00     0.000 C
HETATM   30  C18 UNL     1     -21.345 -31.396   1.335  1.00  0.00     0.002 C
HETATM   31  C19 UNL     1     -21.785 -32.820   1.384  1.00  0.00     0.026 C
ENDBRANCH  11  26
TORSDOF 2
ENDMDL