MODEL 5
REMARK VINA RESULT: -7.372325412      1.217      1.541
REMARK  3 active torsions:
REMARK  status: ('A' for Active; 'I' for Inactive)
REMARK       I    between atoms: N1_2  and  C2_4
REMARK       I    between atoms: C2_4  and  N2_6
REMARK    1  A    between atoms: C9_13  and  N3_14
REMARK       I    between atoms: N3_14  and  C10_16
REMARK       I    between atoms: C10_16  and  N4_18
REMARK    2  A    between atoms: N4_18  and  C11_20
REMARK    3  A    between atoms: C18_27  and  O3_28
ROOT
HETATM    1  C1  UNL     1     -22.478 -36.158 -10.768  1.00  0.00     0.151 C
HETATM    2  N1  UNL     1     -22.817 -37.102  -9.702  1.00  0.00    -0.347 N
ATOM      3  H1  UNL     1     -23.737 -37.067  -9.262  1.00  0.00     0.163 HD
HETATM    4  C2  UNL     1     -21.875 -38.057  -9.289  1.00  0.00     0.317 C
HETATM    5  O1  UNL     1     -20.736 -38.088  -9.849  1.00  0.00    -0.247 OA
HETATM    6  N2  UNL     1     -22.157 -39.000  -8.253  1.00  0.00    -0.333 N
HETATM    7  C3  UNL     1     -21.057 -39.900  -8.015  1.00  0.00     0.127 C
HETATM    8  C4  UNL     1     -21.449 -41.346  -8.102  1.00  0.00     0.020 C
HETATM    9  C5  UNL     1     -22.754 -41.620  -7.384  1.00  0.00     0.002 C
HETATM   10  C6  UNL     1     -22.879 -40.796  -6.147  1.00  0.00     0.014 C
HETATM   11  C7  UNL     1     -23.599 -39.484  -6.316  1.00  0.00     0.004 C
HETATM   12  C8  UNL     1     -22.968 -38.526  -5.328  1.00  0.00     0.039 C
HETATM   13  C9  UNL     1     -23.715 -37.260  -5.101  1.00  0.00     0.087 C
HETATM   14  C16 UNL     1     -25.206 -37.414  -5.152  1.00  0.00     0.028 C
HETATM   15  C17 UNL     1     -25.594 -38.866  -4.891  1.00  0.00     0.034 C
HETATM   16  C18 UNL     1     -25.090 -39.653  -6.051  1.00  0.00     0.128 C
HETATM   17  C19 UNL     1     -23.457 -38.861  -7.678  1.00  0.00     0.139 C
ENDROOT
BRANCH  16  18
HETATM   18  O3  UNL     1     -25.341 -41.019  -5.935  1.00  0.00    -0.395 OA
ATOM     19  H3  UNL     1     -24.966 -41.308  -5.111  1.00  0.00     0.210 HD
ENDBRANCH  16  18
BRANCH  13  20
HETATM   20  N3  UNL     1     -23.366 -36.633  -3.834  1.00  0.00    -0.338 N
HETATM   21  C10 UNL     1     -22.763 -35.348  -3.790  1.00  0.00     0.316 C
HETATM   22  O2  UNL     1     -22.526 -34.739  -4.862  1.00  0.00    -0.247 OA
HETATM   23  N4  UNL     1     -22.422 -34.735  -2.563  1.00  0.00    -0.339 N
ATOM     24  H4  UNL     1     -22.614 -35.228  -1.692  1.00  0.00     0.164 HD
ATOM     25  H3  UNL     1     -23.558 -37.126  -2.963  1.00  0.00     0.164 HD
BRANCH  23  26
HETATM   26  C11 UNL     1     -21.817 -33.448  -2.514  1.00  0.00     0.086 C
HETATM   27  C12 UNL     1     -21.707 -32.912  -1.087  1.00  0.00     0.025 C
HETATM   28  C13 UNL     1     -21.320 -31.474  -1.358  1.00  0.00     0.002 C
HETATM   29  C14 UNL     1     -22.262 -31.086  -2.463  1.00  0.00     0.002 C
HETATM   30  C15 UNL     1     -22.722 -32.368  -3.125  1.00  0.00     0.025 C
ENDBRANCH  23  26
ENDBRANCH  13  20
TORSDOF 3
ENDMDL