MODEL 4
REMARK VINA RESULT: -7.369731384      1.020      1.032
REMARK  5 active torsions:
REMARK  status: ('A' for Active; 'I' for Inactive)
REMARK    1  A    between atoms: C11_11  and  O1_12
REMARK    2  A    between atoms: C12_14  and  C13_15
REMARK    3  A    between atoms: C18_22  and  C19_23
REMARK    4  A    between atoms: C19_23  and  C20_24
REMARK    5  A    between atoms: C20_24  and  N2_25
ROOT
HETATM    1  C1  UNL     1     -21.772 -38.548  -5.378  1.00  0.00     0.025 C
HETATM    2  C2  UNL     1     -23.144 -37.873  -5.591  1.00  0.00     0.011 C
HETATM    3  C3  UNL     1     -22.916 -36.594  -6.258  1.00  0.00    -0.016 C
HETATM    4  C4  UNL     1     -23.362 -35.304  -5.732  1.00  0.00    -0.024 C
HETATM    5  C5  UNL     1     -23.122 -34.834  -4.400  1.00  0.00     0.024 C
HETATM    6  C6  UNL     1     -22.407 -35.837  -3.454  1.00  0.00     0.017 C
HETATM    7  C7  UNL     1     -23.404 -36.918  -3.296  1.00  0.00    -0.018 C
HETATM    8  C8  UNL     1     -23.718 -37.794  -4.222  1.00  0.00    -0.070 C
HETATM    9  C9  UNL     1     -24.757 -38.760  -3.814  1.00  0.00     0.037 C
HETATM   10  C10 UNL     1     -25.899 -38.622  -4.814  1.00  0.00     0.037 C
HETATM   11  C11 UNL     1     -25.440 -38.658  -6.245  1.00  0.00     0.132 C
HETATM   12  C12 UNL     1     -23.962 -38.899  -6.332  1.00  0.00     0.119 C
HETATM   13  C14 UNL     1     -22.116 -35.051  -2.213  1.00  0.00     0.014 C
HETATM   14  C15 UNL     1     -22.529 -33.706  -2.541  1.00  0.00    -0.005 C
HETATM   15  C16 UNL     1     -21.763 -32.534  -2.132  1.00  0.00     0.006 C
HETATM   16  C17 UNL     1     -22.300 -31.504  -3.119  1.00  0.00     0.006 C
HETATM   17  C18 UNL     1     -22.903 -32.304  -4.273  1.00  0.00    -0.004 C
HETATM   18  C21 UNL     1     -22.331 -33.640  -4.087  1.00  0.00    -0.029 C
HETATM   19  C22 UNL     1     -20.882 -33.809  -4.414  1.00  0.00     0.016 C
ENDROOT
BRANCH  17  20
HETATM   20  C19 UNL     1     -22.850 -31.624  -5.562  1.00  0.00     0.032 C
BRANCH  20  21
HETATM   21  C20 UNL     1     -23.962 -31.743  -6.519  1.00  0.00     0.230 C
BRANCH  21  22
HETATM   22  N2  UNL     1     -23.594 -30.967  -7.721  1.00  0.00    -0.079 N
ATOM     23  H23 UNL     1     -23.451 -29.976  -7.527  1.00  0.00     0.274 HD
ATOM     24  H22 UNL     1     -22.654 -31.173  -8.056  1.00  0.00     0.274 HD
ATOM     25  H21 UNL     1     -24.313 -31.136  -8.424  1.00  0.00     0.274 HD
ENDBRANCH  21  22
ENDBRANCH  20  21
ENDBRANCH  17  20
BRANCH  12  26
HETATM   26  C13 UNL     1     -23.465 -39.227  -7.667  1.00  0.00     0.239 C
HETATM   27  N1  UNL     1     -23.617 -38.445  -8.815  1.00  0.00    -0.062 NA
HETATM   28  O2  UNL     1     -22.835 -40.324  -7.810  1.00  0.00    -0.276 OA
ENDBRANCH  12  26
BRANCH  11  29
HETATM   29  O1  UNL     1     -25.857 -37.551  -6.975  1.00  0.00    -0.395 OA
ATOM     30  H1  UNL     1     -26.594 -37.103  -6.578  1.00  0.00     0.210 HD
ENDBRANCH  11  29
TORSDOF 5
ENDMDL