MODEL 4
REMARK VINA RESULT: -7.233415928      5.149      7.661
REMARK  5 active torsions:
REMARK  status: ('A' for Active; 'I' for Inactive)
REMARK       I    between atoms: C1_2  and  N1_3
REMARK       I    between atoms: C1_2  and  N4_21
REMARK    1  A    between atoms: N1_3  and  N2_5
REMARK    2  A    between atoms: N2_5  and  C2_7
REMARK    3  A    between atoms: C2_7  and  N3_9
REMARK    4  A    between atoms: N3_9  and  C3_11
REMARK    5  A    between atoms: N4_21  and  C13_23
ROOT
HETATM    1  N2  UNL     1     -23.294 -37.703   0.095  1.00  0.00    -0.272 N
ATOM      2  H2  UNL     1     -23.789 -37.523   0.968  1.00  0.00     0.189 HD
ENDROOT
BRANCH   1   3
HETATM    3  N1  UNL     1     -22.313 -36.841  -0.327  1.00  0.00    -0.249 N
HETATM    4  C1  UNL     1     -22.584 -35.694  -1.070  1.00  0.00     0.335 C
HETATM    5  O1  UNL     1     -23.780 -35.357  -1.394  1.00  0.00    -0.246 OA
HETATM    6  N4  UNL     1     -21.522 -34.854  -1.500  1.00  0.00    -0.337 N
ATOM      7  H4  UNL     1     -20.556 -35.081  -1.266  1.00  0.00     0.164 HD
ATOM      8  H1  UNL     1     -21.344 -37.049  -0.086  1.00  0.00     0.192 HD
BRANCH   6   9
HETATM    9  C13 UNL     1     -21.828 -33.681  -2.269  1.00  0.00     0.087 C
HETATM   10  C14 UNL     1     -21.512 -32.403  -1.556  1.00  0.00     0.035 C
HETATM   11  C15 UNL     1     -22.035 -31.255  -2.384  1.00  0.00     0.076 C
HETATM   12  S2  UNL     1     -22.985 -31.821  -3.817  1.00  0.00    -0.169 SA
HETATM   13  C16 UNL     1     -22.059 -33.158  -4.635  1.00  0.00     0.076 C
HETATM   14  C17 UNL     1     -21.044 -33.672  -3.605  1.00  0.00     0.035 C
ENDBRANCH   6   9
ENDBRANCH   1   3
BRANCH   1  15
HETATM   15  C2  UNL     1     -23.621 -38.854  -0.687  1.00  0.00     0.187 C
HETATM   16  S1  UNL     1     -24.783 -39.887  -0.231  1.00  0.00    -0.040 SA
BRANCH  15  17
HETATM   17  N3  UNL     1     -22.910 -39.053  -1.883  1.00  0.00    -0.357 N
ATOM     18  H3  UNL     1     -21.931 -39.332  -1.802  1.00  0.00     0.162 HD
BRANCH  17  19
HETATM   19  C3  UNL     1     -23.437 -38.901  -3.199  1.00  0.00     0.033 C
HETATM   20  C4  UNL     1     -22.516 -37.887  -3.962  1.00  0.00     0.035 C
HETATM   21  C5  UNL     1     -23.022 -37.759  -5.354  1.00  0.00    -0.012 C
HETATM   22  C6  UNL     1     -24.413 -37.195  -5.403  1.00  0.00     0.009 C
HETATM   23  C10 UNL     1     -23.025 -39.061  -6.089  1.00  0.00     0.009 C
HETATM   24  C7  UNL     1     -25.306 -38.151  -4.655  1.00  0.00    -0.012 C
HETATM   25  C8  UNL     1     -25.317 -39.521  -5.255  1.00  0.00     0.009 C
HETATM   26  C12 UNL     1     -24.781 -38.269  -3.238  1.00  0.00     0.035 C
HETATM   27  C9  UNL     1     -23.921 -40.057  -5.340  1.00  0.00    -0.012 C
HETATM   28  C11 UNL     1     -23.293 -40.182  -3.965  1.00  0.00     0.035 C
ENDBRANCH  17  19
ENDBRANCH  15  17
ENDBRANCH   1  15
TORSDOF 5
ENDMDL