MODEL 4
REMARK VINA RESULT: -7.589857097      3.251      4.723
REMARK  4 active torsions:
REMARK  status: ('A' for Active; 'I' for Inactive)
REMARK    1  A    between atoms: C2_2  and  C4_4
REMARK    2  A    between atoms: C14_14  and  C15_15
REMARK    3  A    between atoms: C16_18  and  O3_19
REMARK    4  A    between atoms: C17_21  and  O4_22
ROOT
HETATM    1  C4  UNL     1     -22.465 -31.705  -4.529  1.00  0.00     0.017 C
HETATM    2  C5  UNL     1     -23.554 -32.312  -5.314  1.00  0.00     0.036 C
HETATM    3  C6  UNL     1     -23.886 -33.715  -5.018  1.00  0.00    -0.022 C
HETATM    4  C7  UNL     1     -23.148 -34.554  -4.313  1.00  0.00    -0.070 C
HETATM    5  C8  UNL     1     -21.875 -34.017  -3.782  1.00  0.00     0.016 C
HETATM    6  C9  UNL     1     -21.403 -34.752  -2.550  1.00  0.00     0.009 C
HETATM    7  C10 UNL     1     -21.357 -36.196  -2.919  1.00  0.00     0.006 C
HETATM    8  C11 UNL     1     -22.773 -36.697  -3.092  1.00  0.00    -0.002 C
HETATM    9  C12 UNL     1     -22.627 -38.179  -3.336  1.00  0.00     0.007 C
HETATM   10  C13 UNL     1     -23.715 -38.804  -4.120  1.00  0.00     0.024 C
HETATM   11  C14 UNL     1     -24.015 -38.088  -5.403  1.00  0.00     0.081 C
HETATM   12  C16 UNL     1     -23.097 -38.626  -6.509  1.00  0.00     0.166 C
HETATM   13  C17 UNL     1     -22.906 -37.413  -7.432  1.00  0.00     0.148 C
HETATM   14  C18 UNL     1     -22.686 -36.339  -6.384  1.00  0.00     0.041 C
HETATM   15  C19 UNL     1     -23.791 -36.630  -5.406  1.00  0.00     0.022 C
HETATM   16  C20 UNL     1     -23.603 -35.974  -4.072  1.00  0.00    -0.012 C
HETATM   17  C21 UNL     1     -25.018 -35.839  -3.473  1.00  0.00     0.021 C
HETATM   18  C22 UNL     1     -21.999 -32.564  -3.379  1.00  0.00     0.018 C
ENDROOT
BRANCH   1  19
HETATM   19  C2  UNL     1     -22.919 -30.419  -3.927  1.00  0.00    -0.089 C
HETATM   20  C1  UNL     1     -23.439 -29.433  -4.614  1.00  0.00     0.014 C
HETATM   21  C3  UNL     1     -22.767 -30.256  -2.447  1.00  0.00     0.043 C
ENDBRANCH   1  19
BRANCH  11  22
HETATM   22  C15 UNL     1     -25.397 -38.479  -5.803  1.00  0.00     0.185 C
HETATM   23  O1  UNL     1     -26.132 -39.207  -5.092  1.00  0.00    -0.647 OA
HETATM   24  O2  UNL     1     -25.910 -38.027  -7.010  1.00  0.00    -0.647 OA
ENDBRANCH  11  22
BRANCH  12  25
HETATM   25  O3  UNL     1     -23.630 -39.703  -7.174  1.00  0.00    -0.392 OA
ATOM     26  H3  UNL     1     -24.128 -39.455  -7.944  1.00  0.00     0.210 HD
ENDBRANCH  12  25
BRANCH  13  27
HETATM   27  O4  UNL     1     -21.743 -37.578  -8.152  1.00  0.00    -0.393 OA
ATOM     28  H4  UNL     1     -21.353 -36.726  -8.308  1.00  0.00     0.210 HD
ENDBRANCH  13  27
TORSDOF 4
ENDMDL