MODEL 1
REMARK VINA RESULT: -9.585344931      0.000      0.000
REMARK  2 active torsions:
REMARK  status: ('A' for Active; 'I' for Inactive)
REMARK    1  A    between atoms: C10_16  and  N4_17
REMARK       I    between atoms: N4_17  and  C11_18
REMARK       I    between atoms: C11_18  and  N5_20
REMARK    2  A    between atoms: N5_20  and  C12_22
ROOT
HETATM    1  C1  UNL     1     -20.574 -33.964  -3.292  1.00  0.00     0.035 C
HETATM    2  C2  UNL     1     -21.763 -33.247  -2.733  1.00  0.00     0.082 C
HETATM    3  C3  UNL     1     -22.567 -32.610  -3.764  1.00  0.00     0.072 C
HETATM    4  N1  UNL     1     -23.232 -32.111  -4.601  1.00  0.00    -0.196 NA
HETATM    5  C4  UNL     1     -21.185 -32.113  -1.852  1.00  0.00     0.062 C
HETATM    6  C5  UNL     1     -21.726 -32.439  -0.485  1.00  0.00    -0.066 C
HETATM    7  C6  UNL     1     -22.207 -31.893   0.572  1.00  0.00    -0.004 C
HETATM    8  C7  UNL     1     -22.686 -32.552   1.818  1.00  0.00     0.148 C
HETATM    9  N2  UNL     1     -22.835 -33.978   1.631  1.00  0.00    -0.376 N
ATOM     10  H2  UNL     1     -23.518 -34.512   2.170  1.00  0.00     0.161 HD
HETATM   11  C8  UNL     1     -21.987 -34.618   0.660  1.00  0.00     0.082 C
HETATM   12  N3  UNL     1     -21.545 -35.807   0.906  1.00  0.00    -0.388 N
ATOM     13  H31 UNL     1     -20.945 -36.260   0.218  1.00  0.00     0.157 HD
ATOM     14  H32 UNL     1     -21.825 -36.266   1.773  1.00  0.00     0.157 HD
HETATM   15  C9  UNL     1     -21.593 -33.972  -0.561  1.00  0.00     0.119 C
HETATM   16  C10 UNL     1     -22.556 -34.057  -1.756  1.00  0.00     0.206 C
ENDROOT
BRANCH  16  17
HETATM   17  N4  UNL     1     -22.993 -35.299  -2.076  1.00  0.00    -0.388 NA
HETATM   18  C11 UNL     1     -23.437 -36.560  -2.400  1.00  0.00     0.389 C
HETATM   19  O1  UNL     1     -23.883 -37.396  -1.579  1.00  0.00    -0.231 OA
HETATM   20  N5  UNL     1     -23.420 -37.060  -3.751  1.00  0.00    -0.322 N
ATOM     21  H5  UNL     1     -23.103 -36.408  -4.469  1.00  0.00     0.166 HD
BRANCH  20  22
HETATM   22  C12 UNL     1     -23.792 -38.350  -4.197  1.00  0.00     0.040 C
HETATM   23  C13 UNL     1     -25.306 -38.487  -4.279  1.00  0.00     0.036 C
HETATM   24  C14 UNL     1     -25.780 -39.050  -5.556  1.00  0.00    -0.007 C
HETATM   25  C15 UNL     1     -25.225 -38.180  -6.702  1.00  0.00     0.010 C
HETATM   26  C17 UNL     1     -24.952 -40.161  -6.124  1.00  0.00    -0.005 C
HETATM   27  C16 UNL     1     -24.024 -39.062  -6.620  1.00  0.00    -0.003 C
HETATM   28  C21 UNL     1     -23.123 -38.834  -5.465  1.00  0.00     0.022 C
HETATM   29  C19 UNL     1     -22.954 -40.174  -4.816  1.00  0.00    -0.005 C
HETATM   30  C18 UNL     1     -24.142 -41.011  -5.223  1.00  0.00     0.010 C
HETATM   31  C20 UNL     1     -23.240 -39.521  -3.469  1.00  0.00     0.036 C
ENDBRANCH  20  22
ENDBRANCH  16  17
TORSDOF 2
ENDMDL