MODEL 2
REMARK VINA RESULT: -7.737272178      2.027      2.856
REMARK  4 active torsions:
REMARK  status: ('A' for Active; 'I' for Inactive)
REMARK    1  A    between atoms: C8_8  and  N1_9
REMARK       I    between atoms: N1_9  and  C9_11
REMARK    2  A    between atoms: C13_17  and  O2_18
REMARK    3  A    between atoms: C15_21  and  C16_22
REMARK    4  A    between atoms: C21_27  and  O3_28
ROOT
HETATM    1  C1  UNL     1     -23.220 -39.055  -3.628  1.00  0.00     0.018 C
HETATM    2  C2  UNL     1     -24.049 -37.822  -3.529  1.00  0.00    -0.010 C
HETATM    3  C3  UNL     1     -25.131 -38.296  -4.391  1.00  0.00     0.012 C
HETATM    4  C4  UNL     1     -24.608 -38.262  -5.835  1.00  0.00     0.001 C
HETATM    5  C5  UNL     1     -23.361 -37.560  -6.228  1.00  0.00     0.005 C
HETATM    6  C6  UNL     1     -22.655 -36.906  -5.075  1.00  0.00    -0.003 C
HETATM    7  C7  UNL     1     -21.679 -35.854  -5.135  1.00  0.00     0.021 C
HETATM    8  C8  UNL     1     -21.914 -34.668  -5.974  1.00  0.00     0.091 C
HETATM    9  C10 UNL     1     -22.036 -33.347  -5.311  1.00  0.00     0.037 C
HETATM   10  C11 UNL     1     -22.445 -33.306  -3.901  1.00  0.00    -0.011 C
HETATM   11  C12 UNL     1     -21.643 -32.287  -3.088  1.00  0.00     0.018 C
HETATM   12  C13 UNL     1     -23.910 -32.855  -3.762  1.00  0.00     0.127 C
HETATM   13  C14 UNL     1     -24.587 -34.124  -4.139  1.00  0.00     0.038 C
HETATM   14  C15 UNL     1     -23.816 -35.270  -3.442  1.00  0.00    -0.001 C
HETATM   15  C16 UNL     1     -23.774 -36.534  -4.216  1.00  0.00     0.005 C
HETATM   16  C17 UNL     1     -22.515 -34.582  -3.176  1.00  0.00     0.009 C
HETATM   17  C18 UNL     1     -21.463 -35.519  -3.636  1.00  0.00     0.019 C
HETATM   18  C19 UNL     1     -21.472 -36.658  -2.708  1.00  0.00    -0.023 C
HETATM   19  C20 UNL     1     -22.535 -37.067  -1.833  1.00  0.00     0.002 C
HETATM   20  C21 UNL     1     -23.912 -37.555  -2.131  1.00  0.00     0.149 C
ENDROOT
BRANCH   8  21
HETATM   21  N1  UNL     1     -20.851 -34.479  -6.988  1.00  0.00    -0.340 N
HETATM   22  C9  UNL     1     -21.081 -34.245  -8.340  1.00  0.00     0.329 C
HETATM   23  N2  UNL     1     -19.969 -34.079  -9.208  1.00  0.00    -0.040 NA
HETATM   24  O1  UNL     1     -22.245 -34.177  -8.799  1.00  0.00    -0.251 OA
ATOM     25  H1  UNL     1     -19.882 -34.523  -6.672  1.00  0.00     0.164 HD
ENDBRANCH   8  21
BRANCH  12  26
HETATM   26  O2  UNL     1     -24.212 -31.855  -4.652  1.00  0.00    -0.395 OA
ATOM     27  H2  UNL     1     -23.606 -31.128  -4.574  1.00  0.00     0.210 HD
ENDBRANCH  12  26
BRANCH  20  28
HETATM   28  O3  UNL     1     -24.177 -38.776  -1.414  1.00  0.00    -0.391 OA
ATOM     29  H3  UNL     1     -23.852 -38.674  -0.527  1.00  0.00     0.210 HD
ENDBRANCH  20  28
TORSDOF 4
ENDMDL