MODEL 2
REMARK VINA RESULT: -7.720019468      3.820      5.510
REMARK  7 active torsions:
REMARK  status: ('A' for Active; 'I' for Inactive)
REMARK    1  A    between atoms: C1_2  and  N1_3
REMARK    2  A    between atoms: C1_2  and  N4_22
REMARK    3  A    between atoms: N1_3  and  N2_5
REMARK    4  A    between atoms: N2_5  and  C2_7
REMARK    5  A    between atoms: C2_7  and  N3_9
REMARK    6  A    between atoms: N3_9  and  C3_11
REMARK    7  A    between atoms: N4_22  and  C13_24
ROOT
HETATM    1  C2  UNL     1     -22.834 -37.467  -2.292  1.00  0.00     0.186 C
HETATM    2  S2  UNL     1     -23.821 -38.774  -2.272  1.00  0.00    -0.040 SA
ENDROOT
BRANCH   1   3
HETATM    3  N2  UNL     1     -22.404 -36.928  -1.068  1.00  0.00    -0.274 N
ATOM      4  H2  UNL     1     -21.506 -37.217  -0.678  1.00  0.00     0.189 HD
BRANCH   3   5
HETATM    5  N1  UNL     1     -23.191 -36.001  -0.379  1.00  0.00    -0.274 N
ATOM      6  H1  UNL     1     -24.135 -35.780  -0.696  1.00  0.00     0.189 HD
BRANCH   5   7
HETATM    7  C1  UNL     1     -22.649 -35.377   0.769  1.00  0.00     0.186 C
HETATM    8  S1  UNL     1     -23.213 -35.771   2.243  1.00  0.00    -0.040 SA
BRANCH   7   9
HETATM    9  N4  UNL     1     -21.619 -34.428   0.638  1.00  0.00    -0.361 N
ATOM     10  H4  UNL     1     -20.653 -34.705   0.810  1.00  0.00     0.162 HD
BRANCH   9  11
HETATM   11  C13 UNL     1     -21.911 -33.080   0.267  1.00  0.00     0.083 C
HETATM   12  C14 UNL     1     -20.939 -32.093   0.895  1.00  0.00     0.025 C
HETATM   13  C15 UNL     1     -21.183 -30.854   0.068  1.00  0.00     0.002 C
HETATM   14  C16 UNL     1     -21.614 -31.339  -1.296  1.00  0.00     0.002 C
HETATM   15  C17 UNL     1     -21.564 -32.868  -1.216  1.00  0.00     0.025 C
ENDBRANCH   9  11
ENDBRANCH   7   9
ENDBRANCH   5   7
ENDBRANCH   3   5
ENDBRANCH   1   3
BRANCH   1  16
HETATM   16  N3  UNL     1     -22.438 -36.908  -3.520  1.00  0.00    -0.361 N
ATOM     17  H3  UNL     1     -22.133 -37.533  -4.267  1.00  0.00     0.162 HD
BRANCH  16  18
HETATM   18  C3  UNL     1     -22.445 -35.482  -3.763  1.00  0.00     0.090 C
HETATM   19  C4  UNL     1     -21.102 -35.014  -4.214  1.00  0.00     0.057 C
HETATM   20  C5  UNL     1     -21.044 -33.867  -5.147  1.00  0.00     0.124 C
HETATM   21  C6  UNL     1     -21.950 -32.728  -4.808  1.00  0.00     0.037 C
HETATM   22  O1  UNL     1     -21.116 -34.240  -6.491  1.00  0.00    -0.381 OA
HETATM   23  C7  UNL     1     -23.321 -32.782  -5.369  1.00  0.00    -0.009 C
HETATM   24  C8  UNL     1     -23.250 -33.185  -6.823  1.00  0.00     0.036 C
HETATM   25  C12 UNL     1     -24.115 -33.816  -4.607  1.00  0.00     0.011 C
HETATM   26  C9  UNL     1     -22.430 -34.422  -6.902  1.00  0.00     0.122 C
HETATM   27  C10 UNL     1     -23.059 -35.529  -6.141  1.00  0.00     0.038 C
HETATM   28  C11 UNL     1     -23.537 -35.198  -4.769  1.00  0.00     0.011 C
ENDBRANCH  16  18
ENDBRANCH   1  16
TORSDOF 7
ENDMDL