MODEL 4
REMARK VINA RESULT: -8.252355054      4.912      6.452
REMARK  3 active torsions:
REMARK  status: ('A' for Active; 'I' for Inactive)
REMARK    1  A    between atoms: C2_2  and  C3_3
REMARK    2  A    between atoms: C8_13  and  O3_14
REMARK    3  A    between atoms: C11_18  and  C12_19
ROOT
HETATM    1  C1  UNL     1     -21.180 -34.863   1.060  1.00  0.00     0.027 C
HETATM    2  C2  UNL     1     -21.596 -33.409   0.954  1.00  0.00     0.049 C
HETATM    3  C4  UNL     1     -20.457 -32.475   1.205  1.00  0.00     0.021 C
HETATM    4  C5  UNL     1     -20.599 -31.324   0.233  1.00  0.00     0.008 C
HETATM    5  C6  UNL     1     -21.948 -31.550  -0.449  1.00  0.00     0.022 C
HETATM    6  C7  UNL     1     -21.866 -30.984  -1.836  1.00  0.00     0.203 C
HETATM    7  N1  UNL     1     -22.620 -29.823  -2.142  1.00  0.00    -0.037 N
ATOM      8  H11 UNL     1     -22.154 -28.920  -2.231  1.00  0.00     0.281 HD
ATOM      9  H12 UNL     1     -23.253 -29.427  -1.447  1.00  0.00     0.281 HD
HETATM   10  C8  UNL     1     -23.157 -30.486  -3.322  1.00  0.00     0.231 C
HETATM   11  C9  UNL     1     -22.359 -30.349  -4.576  1.00  0.00     0.075 C
HETATM   12  C10 UNL     1     -22.526 -31.470  -5.542  1.00  0.00     0.011 C
HETATM   13  C11 UNL     1     -23.776 -31.392  -6.371  1.00  0.00     0.080 C
HETATM   14  C13 UNL     1     -24.442 -32.758  -6.284  1.00  0.00     0.015 C
HETATM   15  C14 UNL     1     -23.923 -33.368  -5.007  1.00  0.00     0.011 C
HETATM   16  C15 UNL     1     -22.533 -32.839  -4.908  1.00  0.00    -0.035 C
HETATM   17  C16 UNL     1     -21.624 -33.760  -5.701  1.00  0.00     0.016 C
HETATM   18  C17 UNL     1     -22.014 -32.716  -3.523  1.00  0.00     0.005 C
HETATM   19  C18 UNL     1     -21.950 -34.022  -2.761  1.00  0.00     0.006 C
HETATM   20  C19 UNL     1     -21.170 -33.698  -1.477  1.00  0.00     0.007 C
HETATM   21  C20 UNL     1     -22.047 -33.052  -0.437  1.00  0.00     0.010 C
HETATM   22  C21 UNL     1     -22.852 -31.787  -2.684  1.00  0.00     0.085 C
ENDROOT
BRANCH   2  23
HETATM   23  C3  UNL     1     -22.687 -33.105   1.938  1.00  0.00     0.181 C
HETATM   24  O1  UNL     1     -22.938 -31.947   2.354  1.00  0.00    -0.647 OA
HETATM   25  O2  UNL     1     -23.479 -34.130   2.438  1.00  0.00    -0.647 OA
ENDBRANCH   2  23
BRANCH  10  26
HETATM   26  O3  UNL     1     -24.532 -30.209  -3.480  1.00  0.00    -0.364 OA
ATOM     27  H3  UNL     1     -24.849 -29.641  -2.787  1.00  0.00     0.212 HD
ENDBRANCH  10  26
BRANCH  13  28
HETATM   28  C12 UNL     1     -23.493 -31.150  -7.807  1.00  0.00     0.235 C
HETATM   29  N2  UNL     1     -24.402 -31.651  -8.763  1.00  0.00    -0.062 NA
HETATM   30  O4  UNL     1     -22.469 -30.516  -8.197  1.00  0.00    -0.276 OA
ENDBRANCH  13  28
TORSDOF 3
ENDMDL