MODEL 3
REMARK VINA RESULT: -7.061516693      1.528      1.760
REMARK  15 active torsions:
REMARK  status: ('A' for Active; 'I' for Inactive)
REMARK    1  A    between atoms: O1_2  and  N1_3
REMARK    2  A    between atoms: N1_3  and  C2_5
REMARK    3  A    between atoms: C3_6  and  N2_7
REMARK    4  A    between atoms: N2_7  and  N3_9
REMARK    5  A    between atoms: C4_10  and  O2_11
REMARK    6  A    between atoms: C5_13  and  C6_14
REMARK    7  A    between atoms: C6_14  and  O3_15
REMARK    8  A    between atoms: C6_14  and  O4_17
REMARK    9  A    between atoms: C9_21  and  N4_22
REMARK   10  A    between atoms: C10_23  and  N5_24
REMARK   11  A    between atoms: C11_29  and  N7_30
REMARK   12  A    between atoms: C16_42  and  N11_43
REMARK   13  A    between atoms: C17_47  and  O6_48
REMARK   14  A    between atoms: C18_50  and  O7_51
REMARK   15  A    between atoms: O7_51  and  C19_52
ROOT
HETATM    1  N3  UNL     1      31.464  32.219  86.159  1.00  0.00    -0.219 N
HETATM    2  C4  UNL     1      31.251  32.925  87.355  1.00  0.00     0.175 A
HETATM    3  C5  UNL     1      31.861  34.138  87.304  1.00  0.00     0.063 A
HETATM    4  C7  UNL     1      32.456  34.187  86.075  1.00  0.00     0.030 A
HETATM    5  C8  UNL     1      33.234  35.007  85.286  1.00  0.00     0.067 A
HETATM    6  C9  UNL     1      33.478  34.356  84.111  1.00  0.00     0.152 A
HETATM    7  N9  UNL     1      32.848  33.142  84.184  1.00  0.00    -0.214 N
HETATM    8  C13 UNL     1      32.943  32.240  83.136  1.00  0.00     0.192 C
HETATM    9  N10 UNL     1      33.029  31.508  82.247  1.00  0.00    -0.171 NA
HETATM   10  C14 UNL     1      32.215  33.004  85.362  1.00  0.00     0.158 A
ENDROOT
BRANCH   6  11
HETATM   11  N4  UNL     1      34.245  34.887  83.051  1.00  0.00    -0.079 N
HETATM   12  C10 UNL     1      33.705  35.771  82.183  1.00  0.00     0.702 A
HETATM   13  N6  UNL     1      34.444  36.280  81.162  1.00  0.00    -0.022 N
HETATM   14  C11 UNL     1      35.725  35.930  80.981  1.00  0.00     0.694 A
ATOM     15  H6  UNL     1      34.015  36.945  80.519  1.00  0.00     0.203 HD
HETATM   16  N8  UNL     1      36.268  35.057  81.835  1.00  0.00    -0.140 N
HETATM   17  C12 UNL     1      35.538  34.552  82.844  1.00  0.00     0.361 A
ATOM     18  H8  UNL     1      37.241  34.773  81.720  1.00  0.00     0.189 HD
HETATM   19  O5  UNL     1      36.084  33.729  83.633  1.00  0.00    -0.245 OA
BRANCH  12  20
HETATM   20  N5  UNL     1      32.468  36.167  82.283  1.00  0.00    -0.233 N
ATOM     21  H52 UNL     1      31.744  35.536  81.940  1.00  0.00     0.174 HD
ATOM     22  H51 UNL     1      32.222  37.071  82.687  1.00  0.00     0.174 HD
ENDBRANCH  12  20
BRANCH  14  23
HETATM   23  N7  UNL     1      36.388  36.440  79.998  1.00  0.00    -0.234 N
ATOM     24  H72 UNL     1      36.257  37.404  79.691  1.00  0.00     0.174 HD
ATOM     25  H71 UNL     1      37.072  35.866  79.505  1.00  0.00     0.174 HD
ENDBRANCH  14  23
ENDBRANCH   6  11
BRANCH   1  26
HETATM   26  N2  UNL     1      30.974  30.968  86.015  1.00  0.00    -0.319 N
ATOM     27  H2  UNL     1      30.839  30.495  86.909  1.00  0.00     0.181 HD
BRANCH  26  28
HETATM   28  C3  UNL     1      30.608  30.166  84.921  1.00  0.00     0.129 C
HETATM   29  C2  UNL     1      31.287  28.791  84.955  1.00  0.00     0.162 C
HETATM   30  C18 UNL     1      30.280  27.732  85.226  1.00  0.00     0.189 C
HETATM   31  C17 UNL     1      29.325  28.038  86.347  1.00  0.00     0.180 C
HETATM   32  C16 UNL     1      28.529  29.286  86.029  1.00  0.00     0.216 C
HETATM   33  C15 UNL     1      29.101  29.982  84.811  1.00  0.00     0.064 C
BRANCH  29  34
HETATM   34  N1  UNL     1      32.373  28.694  85.867  1.00  0.00    -0.294 N
ATOM     35  H1  UNL     1      32.352  28.080  86.682  1.00  0.00     0.188 HD
BRANCH  34  36
HETATM   36  O1  UNL     1      33.434  29.477  85.573  1.00  0.00    -0.289 OA
HETATM   37  C1  UNL     1      34.106  28.823  84.515  1.00  0.00     0.237 C
ENDBRANCH  34  36
ENDBRANCH  29  34
BRANCH  30  38
HETATM   38  O7  UNL     1      30.968  26.513  85.476  1.00  0.00    -0.311 OA
BRANCH  38  39
HETATM   39  C19 UNL     1      30.822  25.453  84.569  1.00  0.00     0.255 C
HETATM   40  C20 UNL     1      31.385  24.123  84.901  1.00  0.00     0.126 C
HETATM   41  O8  UNL     1      30.210  25.679  83.498  1.00  0.00    -0.266 OA
ENDBRANCH  38  39
ENDBRANCH  30  38
BRANCH  31  42
HETATM   42  O6  UNL     1      29.897  28.136  87.591  1.00  0.00    -0.391 OA
ATOM     43  H6  UNL     1      30.055  27.272  87.954  1.00  0.00     0.210 HD
ENDBRANCH  31  42
BRANCH  32  44
HETATM   44  N11 UNL     1      28.369  30.170  87.165  1.00  0.00    -0.072 N
ATOM     45 3H11 UNL     1      29.174  30.790  87.260  1.00  0.00     0.274 HD
ATOM     46 2H11 UNL     1      27.643  30.864  86.986  1.00  0.00     0.274 HD
ATOM     47 1H11 UNL     1      28.188  29.671  88.037  1.00  0.00     0.274 HD
ENDBRANCH  32  44
ENDBRANCH  26  28
ENDBRANCH   1  26
BRANCH   2  48
HETATM   48  O2  UNL     1      30.532  32.492  88.453  1.00  0.00    -0.344 OA
ATOM     49  H2  UNL     1      30.119  33.037  89.112  1.00  0.00     0.219 HD
ENDBRANCH   2  48
BRANCH   3  50
HETATM   50  C6  UNL     1      31.858  35.172  88.384  1.00  0.00     0.293 C
BRANCH  50  51
HETATM   51  O3  UNL     1      33.057  35.124  89.114  1.00  0.00    -0.367 OA
ATOM     52  H3  UNL     1      33.082  35.821  89.759  1.00  0.00     0.213 HD
ENDBRANCH  50  51
BRANCH  50  53
HETATM   53  O4  UNL     1      30.768  35.067  89.212  1.00  0.00    -0.367 OA
ATOM     54  H4  UNL     1      29.966  34.880  88.738  1.00  0.00     0.213 HD
ENDBRANCH  50  53
ENDBRANCH   3  50
TORSDOF 15
ENDMDL