MODEL 4
REMARK VINA RESULT: -8.289085733      3.413      4.619
REMARK  17 active torsions:
REMARK  status: ('A' for Active; 'I' for Inactive)
REMARK    1  A    between atoms: N1_1  and  C1_5
REMARK    2  A    between atoms: C1_5  and  O1_6
REMARK    3  A    between atoms: C1_5  and  C2_8
REMARK    4  A    between atoms: C2_8  and  C6_20
REMARK    5  A    between atoms: N2_9  and  O2_11
REMARK    6  A    between atoms: O2_11  and  C3_12
REMARK    7  A    between atoms: C3_12  and  O3_13
REMARK    8  A    between atoms: C3_12  and  C4_15
REMARK    9  A    between atoms: C4_15  and  C5_17
REMARK   10  A    between atoms: C7_21  and  O7_22
REMARK   11  A    between atoms: C8_24  and  O8_25
REMARK   12  A    between atoms: C9_27  and  O9_28
REMARK   13  A    between atoms: C10_30  and  C11_31
REMARK   14  A    between atoms: C13_38  and  O12_39
REMARK   15  A    between atoms: C15_42  and  O13_43
REMARK   16  A    between atoms: C16_45  and  O14_46
REMARK   17  A    between atoms: C18_49  and  O15_50
ROOT
HETATM    1  C6  UNL     1      26.316  28.154  84.593  1.00  0.00     0.063 A
HETATM    2  C7  UNL     1      26.582  28.232  83.239  1.00  0.00     0.117 A
HETATM    3  C8  UNL     1      27.883  28.227  82.781  1.00  0.00     0.134 A
HETATM    4  C9  UNL     1      28.863  28.152  83.705  1.00  0.00     0.117 A
HETATM    5  C10 UNL     1      28.718  28.073  85.104  1.00  0.00     0.062 A
HETATM    6  C18 UNL     1      27.369  28.069  85.527  1.00  0.00     0.096 A
ENDROOT
BRANCH   1   7
HETATM    7  C2  UNL     1      24.916  28.174  84.954  1.00  0.00     0.103 C
HETATM    8  N2  UNL     1      24.037  27.926  83.994  1.00  0.00    -0.262 N
ATOM      9  H2  UNL     1      24.441  27.762  83.072  1.00  0.00     0.194 HD
BRANCH   7  10
HETATM   10  C1  UNL     1      24.360  28.412  86.274  1.00  0.00     0.370 C
BRANCH  10  11
HETATM   11  N1  UNL     1      23.562  29.665  86.294  1.00  0.00    -0.047 N
ATOM     12  H13 UNL     1      22.812  29.677  86.986  1.00  0.00     0.277 HD
ATOM     13  H12 UNL     1      24.058  30.476  86.661  1.00  0.00     0.277 HD
ATOM     14  H11 UNL     1      23.247  29.762  85.329  1.00  0.00     0.277 HD
ENDBRANCH  10  11
BRANCH  10  15
HETATM   15  O1  UNL     1      23.413  27.410  86.619  1.00  0.00    -0.365 OA
ATOM     16  H1  UNL     1      23.946  26.633  86.738  1.00  0.00     0.212 HD
ENDBRANCH  10  15
ENDBRANCH   7  10
BRANCH   8  17
HETATM   17  O2  UNL     1      22.728  27.860  84.046  1.00  0.00    -0.239 OA
BRANCH  17  18
HETATM   18  C3  UNL     1      21.827  28.737  83.389  1.00  0.00     0.368 C
BRANCH  18  19
HETATM   19  O3  UNL     1      22.071  30.057  83.697  1.00  0.00    -0.363 OA
ATOM     20  H3  UNL     1      21.746  30.289  84.559  1.00  0.00     0.213 HD
ENDBRANCH  18  19
BRANCH  18  21
HETATM   21  C4  UNL     1      21.854  28.563  81.927  1.00  0.00     0.281 C
HETATM   22  O4  UNL     1      22.976  28.631  81.307  1.00  0.00    -0.280 OA
BRANCH  21  23
HETATM   23  C5  UNL     1      20.636  28.318  81.194  1.00  0.00     0.252 C
HETATM   24  O5  UNL     1      19.626  29.036  81.338  1.00  0.00    -0.642 OA
HETATM   25  O6  UNL     1      20.563  27.264  80.298  1.00  0.00    -0.642 OA
ENDBRANCH  21  23
ENDBRANCH  18  21
ENDBRANCH  17  18
ENDBRANCH   8  17
ENDBRANCH   1   7
BRANCH   2  26
HETATM   26  O7  UNL     1      25.575  28.315  82.303  1.00  0.00    -0.357 OA
ATOM     27  H7  UNL     1      24.786  28.820  82.459  1.00  0.00     0.217 HD
ENDBRANCH   2  26
BRANCH   6  28
HETATM   28  O15 UNL     1      27.089  27.947  86.796  1.00  0.00    -0.359 OA
ATOM     29  H15 UNL     1      26.372  27.382  87.061  1.00  0.00     0.217 HD
ENDBRANCH   6  28
BRANCH   3  30
HETATM   30  O8  UNL     1      28.087  28.302  81.402  1.00  0.00    -0.356 OA
ATOM     31  H8  UNL     1      28.618  29.016  81.072  1.00  0.00     0.218 HD
ENDBRANCH   3  30
BRANCH   5  32
HETATM   32  C11 UNL     1      29.853  27.612  85.915  1.00  0.00     0.073 C
HETATM   33  N3  UNL     1      30.562  26.608  85.371  1.00  0.00    -0.278 N
HETATM   34  S1  UNL     1      31.807  26.139  86.360  1.00  0.00     0.267 S
ATOM     35  H3  UNL     1      30.360  26.188  84.463  1.00  0.00     0.179 HD
HETATM   36  O10 UNL     1      33.165  26.126  85.720  1.00  0.00    -0.200 OA
HETATM   37  O11 UNL     1      31.558  24.900  87.165  1.00  0.00    -0.200 OA
HETATM   38  C12 UNL     1      31.744  27.577  87.397  1.00  0.00     0.128 A
HETATM   39  C13 UNL     1      32.676  28.014  88.275  1.00  0.00     0.092 A
HETATM   40  C17 UNL     1      30.547  28.176  87.050  1.00  0.00     0.054 A
HETATM   41  C14 UNL     1      32.458  29.193  88.927  1.00  0.00     0.077 A
HETATM   42  C15 UNL     1      31.324  29.852  88.650  1.00  0.00     0.102 A
HETATM   43  C16 UNL     1      30.364  29.393  87.736  1.00  0.00     0.113 A
BRANCH  39  44
HETATM   44  O12 UNL     1      33.821  27.253  88.483  1.00  0.00    -0.359 OA
ATOM     45  H12 UNL     1      34.203  26.782  87.752  1.00  0.00     0.217 HD
ENDBRANCH  39  44
BRANCH  42  46
HETATM   46  O13 UNL     1      31.081  31.057  89.302  1.00  0.00    -0.358 OA
ATOM     47  H13 UNL     1      31.718  31.756  89.215  1.00  0.00     0.217 HD
ENDBRANCH  42  46
BRANCH  43  48
HETATM   48  O14 UNL     1      29.299  30.205  87.554  1.00  0.00    -0.357 OA
ATOM     49  H14 UNL     1      28.990  30.280  86.659  1.00  0.00     0.217 HD
ENDBRANCH  43  48
ENDBRANCH   5  32
BRANCH   4  50
HETATM   50  O9  UNL     1      30.192  28.149  83.259  1.00  0.00    -0.357 OA
ATOM     51  H9  UNL     1      30.813  28.720  83.697  1.00  0.00     0.217 HD
ENDBRANCH   4  50
TORSDOF 17
ENDMDL