MODEL 3
REMARK VINA RESULT: -8.673887348      1.412      1.670
REMARK  14 active torsions:
REMARK  status: ('A' for Active; 'I' for Inactive)
REMARK    1  A    between atoms: O1_2  and  C2_3
REMARK    2  A    between atoms: C2_3  and  O2_4
REMARK    3  A    between atoms: C2_3  and  C3_6
REMARK    4  A    between atoms: N2_9  and  C4_10
REMARK    5  A    between atoms: C4_10  and  C5_11
REMARK    6  A    between atoms: C5_11  and  O4_13
REMARK    7  A    between atoms: O4_13  and  C6_14
REMARK    8  A    between atoms: C6_14  and  C7_15
REMARK    9  A    between atoms: C12_27  and  S1_28
REMARK   10  A    between atoms: S1_28  and  S2_29
REMARK   11  A    between atoms: S2_29  and  C13_30
REMARK   12  A    between atoms: C15_35  and  O7_36
REMARK   13  A    between atoms: C16_41  and  O8_42
REMARK   14  A    between atoms: C17_47  and  O9_48
ROOT
HETATM    1  C3  UNL     1      30.097  31.714  86.927  1.00  0.00     0.089 A
HETATM    2  N1  UNL     1      29.086  30.866  86.887  1.00  0.00    -0.296 N
ATOM      3  H1  UNL     1      28.412  30.737  87.643  1.00  0.00     0.187 HD
HETATM    4  N2  UNL     1      29.057  30.203  85.743  1.00  0.00    -0.282 N
HETATM    5  C9  UNL     1      30.096  30.650  85.023  1.00  0.00     0.093 A
HETATM    6  C10 UNL     1      30.785  31.613  85.740  1.00  0.00     0.002 A
HETATM    7  C11 UNL     1      32.004  32.307  85.232  1.00  0.00     0.088 C
HETATM    8  C12 UNL     1      32.425  31.705  83.952  1.00  0.00     0.265 C
HETATM    9  N8  UNL     1      31.229  31.474  83.118  1.00  0.00    -0.029 N
ATOM     10  H81 UNL     1      31.438  31.417  82.121  1.00  0.00     0.282 HD
ATOM     11  H82 UNL     1      30.608  32.283  83.072  1.00  0.00     0.282 HD
HETATM   12  C17 UNL     1      30.581  30.283  83.636  1.00  0.00     0.373 C
ENDROOT
BRANCH   8  13
HETATM   13  S1  UNL     1      33.677  32.572  83.013  1.00  0.00    -0.062 SA
BRANCH  13  14
HETATM   14  S2  UNL     1      32.867  34.339  82.209  1.00  0.00    -0.058 SA
BRANCH  14  15
HETATM   15  C13 UNL     1      34.000  35.674  82.482  1.00  0.00     0.314 C
HETATM   16  N6  UNL     1      35.111  35.809  81.620  1.00  0.00    -0.053 N
HETATM   17  C14 UNL     1      35.963  36.872  82.082  1.00  0.00     0.294 C
ATOM     18  H62 UNL     1      35.620  34.931  81.512  1.00  0.00     0.278 HD
ATOM     19  H61 UNL     1      34.829  35.939  80.649  1.00  0.00     0.278 HD
HETATM   20  C15 UNL     1      36.443  36.668  83.496  1.00  0.00     0.347 C
HETATM   21  N7  UNL     1      35.261  36.689  84.347  1.00  0.00    -0.018 N
HETATM   22  C16 UNL     1      34.442  35.586  83.957  1.00  0.00     0.363 C
ATOM     23  H72 UNL     1      35.485  36.689  85.342  1.00  0.00     0.283 HD
ATOM     24  H71 UNL     1      34.768  37.582  84.323  1.00  0.00     0.283 HD
BRANCH  20  25
HETATM   25  O7  UNL     1      37.303  37.680  83.851  1.00  0.00    -0.368 OA
ATOM     26  H7  UNL     1      37.365  37.736  84.797  1.00  0.00     0.212 HD
ENDBRANCH  20  25
BRANCH  22  27
HETATM   27  O8  UNL     1      33.238  35.548  84.698  1.00  0.00    -0.367 OA
ATOM     28  H8  UNL     1      33.505  35.376  85.593  1.00  0.00     0.212 HD
ENDBRANCH  22  27
ENDBRANCH  14  15
ENDBRANCH  13  14
ENDBRANCH   8  13
BRANCH  12  29
HETATM   29  O9  UNL     1      31.540  29.279  83.687  1.00  0.00    -0.365 OA
ATOM     30  H9  UNL     1      31.869  29.072  82.820  1.00  0.00     0.212 HD
ENDBRANCH  12  29
BRANCH   1  31
HETATM   31  C2  UNL     1      30.494  32.661  88.030  1.00  0.00     0.309 C
BRANCH  31  32
HETATM   32  O1  UNL     1      29.530  32.673  89.016  1.00  0.00    -0.360 OA
HETATM   33  C1  UNL     1      29.129  33.973  89.344  1.00  0.00     0.205 C
ENDBRANCH  31  32
BRANCH  31  34
HETATM   34  O2  UNL     1      31.716  32.357  88.581  1.00  0.00    -0.366 OA
ATOM     35  H2  UNL     1      32.169  33.158  88.816  1.00  0.00     0.213 HD
ENDBRANCH  31  34
ENDBRANCH   1  31
BRANCH   4  36
HETATM   36  C4  UNL     1      28.061  29.192  85.375  1.00  0.00     0.260 C
BRANCH  36  37
HETATM   37  C5  UNL     1      26.739  29.468  85.987  1.00  0.00     0.282 C
HETATM   38  O3  UNL     1      26.587  29.235  87.203  1.00  0.00    -0.263 OA
BRANCH  37  39
HETATM   39  O4  UNL     1      25.696  29.967  85.263  1.00  0.00    -0.261 OA
BRANCH  39  40
HETATM   40  C6  UNL     1      24.375  29.490  85.193  1.00  0.00     0.329 C
HETATM   41  N3  UNL     1      24.245  28.192  85.839  1.00  0.00    -0.329 N
HETATM   42  C8  UNL     1      23.502  27.431  85.121  1.00  0.00     0.193 C
ATOM     43  H3  UNL     1      24.677  27.928  86.724  1.00  0.00     0.165 HD
HETATM   44  N4  UNL     1      23.097  28.174  83.959  1.00  0.00    -0.295 N
HETATM   45  N5  UNL     1      24.037  29.180  83.794  1.00  0.00    -0.068 NA
ATOM     46  H4  UNL     1      22.281  27.996  83.372  1.00  0.00     0.183 HD
BRANCH  40  47
HETATM   47  C7  UNL     1      23.349  30.436  85.680  1.00  0.00     0.253 C
HETATM   48  O5  UNL     1      23.337  31.600  85.134  1.00  0.00    -0.643 OA
HETATM   49  O6  UNL     1      22.408  30.165  86.667  1.00  0.00    -0.643 OA
ENDBRANCH  40  47
ENDBRANCH  39  40
ENDBRANCH  37  39
ENDBRANCH  36  37
ENDBRANCH   4  36
TORSDOF 14
ENDMDL