MODEL 5
REMARK VINA RESULT: -8.608947538      0.643      2.594
REMARK  16 active torsions:
REMARK  status: ('A' for Active; 'I' for Inactive)
REMARK    1  A    between atoms: N1_1  and  C1_4
REMARK    2  A    between atoms: C2_7  and  N3_8
REMARK    3  A    between atoms: C3_13  and  N5_14
REMARK    4  A    between atoms: N5_14  and  C4_16
REMARK    5  A    between atoms: C5_17  and  C6_18
REMARK    6  A    between atoms: C6_18  and  S1_19
REMARK    7  A    between atoms: S1_19  and  C7_20
REMARK    8  A    between atoms: N11_35  and  C13_36
REMARK    9  A    between atoms: C14_37  and  O1_38
REMARK   10  A    between atoms: C15_40  and  O2_41
REMARK   11  A    between atoms: C16_43  and  O3_44
REMARK   12  A    between atoms: C16_43  and  C17_46
REMARK   13  A    between atoms: C17_46  and  O4_47
REMARK   14  A    between atoms: C17_46  and  C18_49
REMARK   15  A    between atoms: C18_49  and  O5_50
REMARK   16  A    between atoms: C19_52  and  O6_53
ROOT
HETATM    1  C7  UNL     1      30.670  28.054  85.525  1.00  0.00     0.104 A
HETATM    2  N6  UNL     1      30.559  27.525  86.757  1.00  0.00    -0.345 N
ATOM      3  H6  UNL     1      31.374  27.104  87.204  1.00  0.00     0.167 HD
HETATM    4  C8  UNL     1      29.363  27.546  87.409  1.00  0.00     0.183 A
HETATM    5  N7  UNL     1      28.261  28.082  86.872  1.00  0.00    -0.336 N
ATOM      6  H7  UNL     1      27.378  28.084  87.381  1.00  0.00     0.168 HD
HETATM    7  C9  UNL     1      28.350  28.618  85.637  1.00  0.00     0.157 A
HETATM    8  C10 UNL     1      29.540  28.608  84.965  1.00  0.00     0.152 A
HETATM    9  N8  UNL     1      29.294  29.216  83.771  1.00  0.00    -0.079 N
HETATM   10  N9  UNL     1      29.930  29.553  82.659  1.00  0.00    -0.274 N
ATOM     11  H9  UNL     1      30.915  29.383  82.456  1.00  0.00     0.189 HD
HETATM   12  C11 UNL     1      29.054  30.154  81.850  1.00  0.00     0.215 A
HETATM   13  N10 UNL     1      27.875  30.172  82.497  1.00  0.00    -0.184 N
ATOM     14  H10 UNL     1      27.011  30.570  82.126  1.00  0.00     0.185 HD
HETATM   15  C12 UNL     1      28.002  29.581  83.723  1.00  0.00     0.709 A
HETATM   16  N11 UNL     1      27.424  29.217  84.863  1.00  0.00    -0.154 N
ENDROOT
BRANCH   1  17
HETATM   17  S1  UNL     1      32.182  28.079  84.582  1.00  0.00    -0.106 SA
BRANCH  17  18
HETATM   18  C6  UNL     1      33.138  29.537  85.083  1.00  0.00     0.109 C
BRANCH  18  19
HETATM   19  C5  UNL     1      32.663  30.749  84.370  1.00  0.00     0.001 C
HETATM   20  C4  UNL     1      31.837  31.575  84.982  1.00  0.00     0.103 C
BRANCH  20  21
HETATM   21  N5  UNL     1      31.426  31.295  86.292  1.00  0.00    -0.201 N
ATOM     22  H5  UNL     1      31.356  30.332  86.619  1.00  0.00     0.183 HD
BRANCH  21  23
HETATM   23  C3  UNL     1      31.133  32.283  87.082  1.00  0.00     0.711 A
HETATM   24  N4  UNL     1      31.937  33.351  87.181  1.00  0.00    -0.021 N
HETATM   25  C2  UNL     1      31.627  34.369  88.000  1.00  0.00     0.705 A
ATOM     26  H4  UNL     1      32.793  33.391  86.627  1.00  0.00     0.203 HD
HETATM   27  N2  UNL     1      30.514  34.334  88.731  1.00  0.00    -0.022 N
HETATM   28  C1  UNL     1      29.711  33.241  88.617  1.00  0.00     0.705 A
ATOM     29  H2  UNL     1      30.271  35.102  89.356  1.00  0.00     0.203 HD
HETATM   30  N12 UNL     1      30.016  32.220  87.798  1.00  0.00    -0.021 N
ATOM     31  H12 UNL     1      29.400  31.410  87.728  1.00  0.00     0.203 HD
BRANCH  25  32
HETATM   32  N3  UNL     1      32.398  35.419  88.110  1.00  0.00    -0.234 N
ATOM     33  H32 UNL     1      32.149  36.312  87.686  1.00  0.00     0.174 HD
ATOM     34  H31 UNL     1      33.267  35.320  88.636  1.00  0.00     0.174 HD
ENDBRANCH  25  32
BRANCH  28  35
HETATM   35  N1  UNL     1      28.634  33.175  89.303  1.00  0.00    -0.234 N
ATOM     36  H12 UNL     1      27.773  33.540  88.897  1.00  0.00     0.174 HD
ATOM     37  H11 UNL     1      28.657  32.763  90.236  1.00  0.00     0.174 HD
ENDBRANCH  28  35
ENDBRANCH  21  23
ENDBRANCH  20  21
ENDBRANCH  18  19
ENDBRANCH  17  18
ENDBRANCH   1  17
BRANCH  16  38
HETATM   38  C13 UNL     1      26.040  29.443  85.172  1.00  0.00     0.173 C
HETATM   39  C14 UNL     1      25.509  28.744  86.364  1.00  0.00     0.176 C
HETATM   40  C15 UNL     1      24.031  28.486  86.034  1.00  0.00     0.188 C
HETATM   41  C16 UNL     1      23.831  28.963  84.645  1.00  0.00     0.141 C
HETATM   42  C19 UNL     1      25.208  28.810  84.046  1.00  0.00     0.184 C
BRANCH  39  43
HETATM   43  O1  UNL     1      25.574  29.499  87.531  1.00  0.00    -0.391 OA
ATOM     44  H1  UNL     1      24.729  29.806  87.836  1.00  0.00     0.210 HD
ENDBRANCH  39  43
BRANCH  40  45
HETATM   45  O2  UNL     1      23.241  29.259  86.920  1.00  0.00    -0.390 OA
ATOM     46  H2  UNL     1      22.361  28.901  86.920  1.00  0.00     0.210 HD
ENDBRANCH  40  45
BRANCH  41  47
HETATM   47  O3  UNL     1      23.625  30.367  84.748  1.00  0.00    -0.382 OA
ATOM     48  H3  UNL     1      22.683  30.491  84.716  1.00  0.00     0.211 HD
ENDBRANCH  41  47
BRANCH  41  49
HETATM   49  C17 UNL     1      22.729  28.398  83.855  1.00  0.00     0.181 C
BRANCH  49  50
HETATM   50  O4  UNL     1      23.186  28.056  82.572  1.00  0.00    -0.390 OA
ATOM     51  H4  UNL     1      23.475  27.151  82.561  1.00  0.00     0.210 HD
ENDBRANCH  49  50
BRANCH  49  52
HETATM   52  C18 UNL     1      21.472  29.163  83.727  1.00  0.00     0.199 C
BRANCH  52  53
HETATM   53  O5  UNL     1      20.878  29.360  84.950  1.00  0.00    -0.398 OA
ATOM     54  H5  UNL     1      21.195  28.737  85.593  1.00  0.00     0.209 HD
ENDBRANCH  52  53
ENDBRANCH  49  52
ENDBRANCH  41  49
BRANCH  42  55
HETATM   55  O6  UNL     1      25.572  27.470  84.036  1.00  0.00    -0.390 OA
ATOM     56  H6  UNL     1      24.752  26.990  84.056  1.00  0.00     0.210 HD
ENDBRANCH  42  55
ENDBRANCH  16  38
TORSDOF 16
ENDMDL