MODEL 1
REMARK VINA RESULT: -8.047404362      0.000      0.000
REMARK  21 active torsions:
REMARK  status: ('A' for Active; 'I' for Inactive)
REMARK    1  A    between atoms: O1_2  and  C2_3
REMARK    2  A    between atoms: C3_4  and  O2_5
REMARK    3  A    between atoms: C4_7  and  C5_8
REMARK    4  A    between atoms: C5_8  and  O3_9
REMARK    5  A    between atoms: C5_8  and  C6_11
REMARK    6  A    between atoms: C6_11  and  O4_12
REMARK    7  A    between atoms: C6_11  and  C7_14
REMARK    8  A    between atoms: C7_14  and  O5_15
REMARK    9  A    between atoms: C7_14  and  C8_17
REMARK   10  A    between atoms: C8_17  and  O6_18
REMARK   11  A    between atoms: C10_21  and  C11_22
REMARK   12  A    between atoms: C13_27  and  C14_28
REMARK   13  A    between atoms: C14_28  and  O8_29
REMARK   14  A    between atoms: C14_28  and  C15_31
REMARK   15  A    between atoms: C15_31  and  O9_32
REMARK   16  A    between atoms: C15_31  and  O10_34
REMARK   17  A    between atoms: C16_37  and  O12_38
REMARK   18  A    between atoms: C16_37  and  C17_40
REMARK   19  A    between atoms: C19_42  and  O13_43
REMARK   20  A    between atoms: C20_45  and  O14_46
REMARK   21  A    between atoms: C21_48  and  O15_49
ROOT
HETATM    1  C2  UNL     1      30.581  30.233  87.209  1.00  0.00     0.218 C
HETATM    2  C3  UNL     1      29.761  29.034  86.992  1.00  0.00     0.165 C
HETATM    3  C4  UNL     1      28.776  29.009  85.838  1.00  0.00     0.105 C
HETATM    4  C9  UNL     1      28.767  30.215  85.018  1.00  0.00     0.062 C
HETATM    5  C10 UNL     1      28.571  30.283  83.728  1.00  0.00     0.072 C
HETATM    6  O11 UNL     1      29.016  31.406  85.758  1.00  0.00    -0.311 OA
HETATM    7  C16 UNL     1      30.210  31.506  86.558  1.00  0.00     0.225 C
ENDROOT
BRANCH   3   8
HETATM    8  C5  UNL     1      27.474  28.686  86.515  1.00  0.00     0.162 C
BRANCH   8   9
HETATM    9  O3  UNL     1      27.697  27.550  87.300  1.00  0.00    -0.392 OA
ATOM     10  H3  UNL     1      28.608  27.572  87.565  1.00  0.00     0.210 HD
ENDBRANCH   8   9
BRANCH   8  11
HETATM   11  C6  UNL     1      26.225  28.550  85.818  1.00  0.00     0.178 C
BRANCH  11  12
HETATM   12  O4  UNL     1      25.644  27.283  85.799  1.00  0.00    -0.390 OA
ATOM     13  H4  UNL     1      25.188  27.029  85.005  1.00  0.00     0.210 HD
ENDBRANCH  11  12
BRANCH  11  14
HETATM   14  C7  UNL     1      25.157  29.441  86.499  1.00  0.00     0.172 C
BRANCH  14  15
HETATM   15  O5  UNL     1      25.236  29.391  87.867  1.00  0.00    -0.391 OA
ATOM     16  H5  UNL     1      25.986  29.871  88.201  1.00  0.00     0.210 HD
ENDBRANCH  14  15
BRANCH  14  17
HETATM   17  C8  UNL     1      23.793  29.239  85.910  1.00  0.00     0.198 C
BRANCH  17  18
HETATM   18  O6  UNL     1      22.879  29.926  86.714  1.00  0.00    -0.398 OA
ATOM     19  H6  UNL     1      22.009  29.620  86.486  1.00  0.00     0.209 HD
ENDBRANCH  17  18
ENDBRANCH  14  17
ENDBRANCH  11  14
ENDBRANCH   8  11
ENDBRANCH   3   8
BRANCH   5  20
HETATM   20  C11 UNL     1      28.327  29.249  82.751  1.00  0.00     0.104 A
HETATM   21  O7  UNL     1      27.113  28.882  82.361  1.00  0.00    -0.304 OA
HETATM   22  C12 UNL     1      27.200  27.909  81.475  1.00  0.00     0.234 A
HETATM   23  N1  UNL     1      28.481  27.606  81.250  1.00  0.00    -0.346 N
HETATM   24  C13 UNL     1      29.206  28.454  82.056  1.00  0.00     0.078 A
ATOM     25  H1  UNL     1      28.846  26.895  80.615  1.00  0.00     0.167 HD
BRANCH  24  26
HETATM   26  C14 UNL     1      30.675  28.548  82.095  1.00  0.00     0.225 C
BRANCH  26  27
HETATM   27  O8  UNL     1      31.133  29.823  82.000  1.00  0.00    -0.384 OA
ATOM     28  H8  UNL     1      31.025  30.196  81.133  1.00  0.00     0.210 HD
ENDBRANCH  26  27
BRANCH  26  29
HETATM   29  C15 UNL     1      31.303  27.686  83.150  1.00  0.00     0.288 C
BRANCH  29  30
HETATM   30  O9  UNL     1      31.797  28.563  84.129  1.00  0.00    -0.368 OA
ATOM     31  H9  UNL     1      32.334  29.199  83.670  1.00  0.00     0.212 HD
ENDBRANCH  29  30
BRANCH  29  32
HETATM   32  O10 UNL     1      30.384  26.859  83.824  1.00  0.00    -0.368 OA
ATOM     33  H10 UNL     1      30.345  27.016  84.760  1.00  0.00     0.212 HD
ENDBRANCH  29  32
ENDBRANCH  26  29
ENDBRANCH  24  26
ENDBRANCH   5  20
BRANCH   2  34
HETATM   34  O2  UNL     1      30.615  27.914  86.790  1.00  0.00    -0.392 OA
ATOM     35  H2  UNL     1      30.091  27.123  86.759  1.00  0.00     0.210 HD
ENDBRANCH   2  34
BRANCH   7  36
HETATM   36  O12 UNL     1      31.264  31.756  85.602  1.00  0.00    -0.359 OA
ATOM     37  H12 UNL     1      31.944  32.197  86.098  1.00  0.00     0.213 HD
ENDBRANCH   7  36
BRANCH   7  38
HETATM   38  C17 UNL     1      30.247  32.710  87.387  1.00  0.00     0.012 A
HETATM   39  C18 UNL     1      29.126  33.051  88.135  1.00  0.00     0.052 A
HETATM   40  C19 UNL     1      29.096  34.165  88.929  1.00  0.00     0.102 A
HETATM   41  C20 UNL     1      30.215  34.973  88.987  1.00  0.00     0.132 A
HETATM   42  C21 UNL     1      31.346  34.670  88.260  1.00  0.00     0.102 A
HETATM   43  C22 UNL     1      31.337  33.519  87.458  1.00  0.00     0.052 A
BRANCH  40  44
HETATM   44  O13 UNL     1      27.950  34.459  89.654  1.00  0.00    -0.358 OA
ATOM     45  H13 UNL     1      27.342  35.112  89.325  1.00  0.00     0.217 HD
ENDBRANCH  40  44
BRANCH  41  46
HETATM   46  O14 UNL     1      30.228  36.128  89.796  1.00  0.00    -0.356 OA
ATOM     47  H14 UNL     1      31.049  36.535  90.048  1.00  0.00     0.218 HD
ENDBRANCH  41  46
BRANCH  42  48
HETATM   48  O15 UNL     1      32.455  35.493  88.334  1.00  0.00    -0.358 OA
ATOM     49  H15 UNL     1      33.315  35.149  88.123  1.00  0.00     0.217 HD
ENDBRANCH  42  48
ENDBRANCH   7  38
BRANCH   1  50
HETATM   50  O1  UNL     1      30.676  30.443  88.593  1.00  0.00    -0.382 OA
HETATM   51  C1  UNL     1      31.684  29.816  89.236  1.00  0.00     0.202 C
ENDBRANCH   1  50
TORSDOF 21
ENDMDL