MODEL 2
REMARK VINA RESULT: -7.886662230      2.123      7.242
REMARK  11 active torsions:
REMARK  status: ('A' for Active; 'I' for Inactive)
REMARK    1  A    between atoms: O1_2  and  N1_3
REMARK    2  A    between atoms: C3_8  and  C4_9
REMARK    3  A    between atoms: C6_18  and  O2_19
REMARK    4  A    between atoms: C7_21  and  C8_22
REMARK    5  A    between atoms: C8_22  and  N8_23
REMARK    6  A    between atoms: N8_23  and  C9_25
REMARK    7  A    between atoms: C9_25  and  C10_26
REMARK    8  A    between atoms: C11_28  and  N9_29
REMARK    9  A    between atoms: N9_29  and  C12_31
REMARK   10  A    between atoms: C15_40  and  N13_41
REMARK   11  A    between atoms: C19_53  and  N17_54
ROOT
HETATM    1  C10 UNL     1      28.281  29.418  81.877  1.00  0.00     0.194 C
HETATM    2  O3  UNL     1      27.604  29.038  83.063  1.00  0.00    -0.349 OA
HETATM    3  C11 UNL     1      26.924  27.905  82.514  1.00  0.00     0.263 C
HETATM    4  C17 UNL     1      28.088  27.143  82.016  1.00  0.00     0.061 A
HETATM    5  C18 UNL     1      28.974  28.144  81.582  1.00  0.00     0.070 A
HETATM    6  N15 UNL     1      30.071  27.593  81.098  1.00  0.00    -0.300 N
ATOM      7  H15 UNL     1      30.876  28.087  80.714  1.00  0.00     0.186 HD
HETATM    8  N16 UNL     1      29.936  26.301  81.199  1.00  0.00    -0.285 N
ATOM      9  H16 UNL     1      30.638  25.624  80.899  1.00  0.00     0.188 HD
HETATM   10  C19 UNL     1      28.736  25.969  81.757  1.00  0.00     0.126 A
ENDROOT
BRANCH   1  11
HETATM   11  C9  UNL     1      29.268  30.549  82.207  1.00  0.00     0.157 C
BRANCH  11  12
HETATM   12  N8  UNL     1      30.411  30.099  82.828  1.00  0.00    -0.397 N
ATOM     13  H8  UNL     1      30.942  29.401  82.306  1.00  0.00     0.158 HD
BRANCH  12  14
HETATM   14  C8  UNL     1      30.943  30.446  84.040  1.00  0.00     0.086 C
BRANCH  14  15
HETATM   15  C7  UNL     1      30.300  29.956  85.312  1.00  0.00     0.186 C
HETATM   16  N1  UNL     1      31.380  29.630  86.272  1.00  0.00    -0.218 N
HETATM   17  C2  UNL     1      31.018  29.259  87.575  1.00  0.00     0.212 C
HETATM   18  N2  UNL     1      31.755  28.225  88.235  1.00  0.00    -0.062 NA
HETATM   19  N3  UNL     1      30.048  29.883  88.128  1.00  0.00    -0.349 N
HETATM   20  C3  UNL     1      29.371  30.921  87.426  1.00  0.00     0.186 C
ATOM     21  H3  UNL     1      29.759  29.636  89.075  1.00  0.00     0.163 HD
HETATM   22  C6  UNL     1      29.306  30.836  85.944  1.00  0.00     0.178 C
BRANCH  16  23
HETATM   23  O1  UNL     1      32.678  29.683  85.864  1.00  0.00    -0.280 OA
HETATM   24  C1  UNL     1      33.169  28.479  85.401  1.00  0.00     0.238 C
ENDBRANCH  16  23
BRANCH  20  25
HETATM   25  C4  UNL     1      29.996  32.214  87.880  1.00  0.00     0.139 A
HETATM   26  N4  UNL     1      29.542  32.885  88.953  1.00  0.00    -0.270 N
HETATM   27  N5  UNL     1      30.285  33.973  89.098  1.00  0.00    -0.225 N
ATOM     28  H4  UNL     1      28.763  32.605  89.550  1.00  0.00     0.190 HD
HETATM   29  N6  UNL     1      31.176  33.964  88.129  1.00  0.00    -0.223 N
ATOM     30  H5  UNL     1      30.185  34.683  89.823  1.00  0.00     0.210 HD
HETATM   31  C5  UNL     1      32.179  35.000  87.948  1.00  0.00     0.202 C
HETATM   32  N7  UNL     1      31.016  32.881  87.356  1.00  0.00    -0.269 N
ATOM     33  H7  UNL     1      31.565  32.622  86.536  1.00  0.00     0.190 HD
ENDBRANCH  20  25
BRANCH  22  34
HETATM   34  O2  UNL     1      28.021  30.299  85.626  1.00  0.00    -0.391 OA
ATOM     35  H2  UNL     1      27.392  30.769  86.161  1.00  0.00     0.210 HD
ENDBRANCH  22  34
ENDBRANCH  14  15
ENDBRANCH  12  14
ENDBRANCH  11  12
ENDBRANCH   1  11
BRANCH   3  36
HETATM   36  N9  UNL     1      26.170  27.241  83.526  1.00  0.00    -0.344 N
ATOM     37  H9  UNL     1      26.217  26.225  83.607  1.00  0.00     0.164 HD
BRANCH  36  38
HETATM   38  C12 UNL     1      25.359  27.980  84.417  1.00  0.00     0.136 A
HETATM   39  N10 UNL     1      25.755  28.352  85.634  1.00  0.00    -0.337 N
HETATM   40  C13 UNL     1      24.980  29.047  86.491  1.00  0.00     0.183 A
ATOM     41  H10 UNL     1      26.696  28.097  85.934  1.00  0.00     0.168 HD
HETATM   42  N11 UNL     1      23.736  29.392  86.113  1.00  0.00    -0.336 N
HETATM   43  C14 UNL     1      23.276  29.046  84.895  1.00  0.00     0.153 A
ATOM     44  H11 UNL     1      23.139  29.917  86.751  1.00  0.00     0.168 HD
HETATM   45  N12 UNL     1      22.115  29.241  84.254  1.00  0.00    -0.174 N
HETATM   46  C16 UNL     1      24.089  28.327  84.020  1.00  0.00     0.137 A
HETATM   47  C15 UNL     1      22.174  28.684  83.042  1.00  0.00     0.678 A
ATOM     48  H12 UNL     1      21.310  29.739  84.634  1.00  0.00     0.186 HD
HETATM   49  N14 UNL     1      23.369  28.131  82.899  1.00  0.00    -0.184 N
ATOM     50  H14 UNL     1      23.693  27.633  82.069  1.00  0.00     0.184 HD
BRANCH  47  51
HETATM   51  N13 UNL     1      21.209  28.699  82.174  1.00  0.00    -0.234 N
ATOM     52 2H13 UNL     1      21.275  28.487  81.178  1.00  0.00     0.174 HD
ATOM     53 1H13 UNL     1      20.239  28.931  82.387  1.00  0.00     0.174 HD
ENDBRANCH  47  51
ENDBRANCH  36  38
ENDBRANCH   3  36
BRANCH  10  54
HETATM   54  N17 UNL     1      28.323  24.792  81.990  1.00  0.00    -0.384 N
ATOM     55 2H17 UNL     1      27.563  24.538  82.621  1.00  0.00     0.157 HD
ATOM     56 1H17 UNL     1      28.672  23.922  81.588  1.00  0.00     0.157 HD
ENDBRANCH  10  54
TORSDOF 11
ENDMDL