MODEL 2
REMARK VINA RESULT: -9.227408111      0.853      1.778
REMARK  16 active torsions:
REMARK  status: ('A' for Active; 'I' for Inactive)
REMARK    1  A    between atoms: C2_2  and  O1_3
REMARK    2  A    between atoms: C2_2  and  C3_5
REMARK    3  A    between atoms: C3_5  and  O2_6
REMARK    4  A    between atoms: C3_5  and  C4_8
REMARK    5  A    between atoms: C4_8  and  O3_9
REMARK    6  A    between atoms: C4_8  and  C5_11
REMARK    7  A    between atoms: C5_11  and  O4_12
REMARK    8  A    between atoms: C5_11  and  C6_14
REMARK    9  A    between atoms: C6_14  and  N1_15
REMARK   10  A    between atoms: C8_19  and  N3_20
REMARK   11  A    between atoms: C10_22  and  C11_23
REMARK   12  A    between atoms: C13_25  and  O5_26
REMARK   13  A    between atoms: C14_28  and  O6_29
REMARK   14  A    between atoms: C15_31  and  O7_32
REMARK   15  A    between atoms: C17_40  and  N7_41
REMARK       I    between atoms: N8_47  and  C20_48
REMARK       I    between atoms: C20_48  and  N9_50
REMARK   16  A    between atoms: N9_50  and  N10_52
ROOT
HETATM    1  N1  UNL     1      31.140  28.236  86.786  1.00  0.00    -0.259 N
HETATM    2  C7  UNL     1      30.124  28.042  85.923  1.00  0.00     0.158 A
HETATM    3  N2  UNL     1      28.825  28.457  85.842  1.00  0.00    -0.172 N
ATOM      4  H2  UNL     1      28.467  29.053  86.589  1.00  0.00     0.186 HD
HETATM    5  C8  UNL     1      27.996  28.137  84.856  1.00  0.00     0.705 A
HETATM    6  N6  UNL     1      28.427  27.357  83.858  1.00  0.00    -0.174 N
ATOM      7  H6  UNL     1      27.805  27.100  83.092  1.00  0.00     0.186 HD
HETATM    8  C17 UNL     1      29.712  26.915  83.886  1.00  0.00     0.134 A
HETATM    9  C18 UNL     1      30.570  27.245  84.902  1.00  0.00     0.124 A
HETATM   10  C19 UNL     1      31.897  26.968  85.187  1.00  0.00     0.288 A
HETATM   11  O8  UNL     1      32.618  26.256  84.452  1.00  0.00    -0.265 OA
HETATM   12  N8  UNL     1      32.223  27.585  86.342  1.00  0.00    -0.162 N
HETATM   13  C20 UNL     1      33.523  27.532  86.895  1.00  0.00     0.363 C
HETATM   14  O9  UNL     1      33.746  28.204  87.949  1.00  0.00    -0.243 OA
HETATM   15  N9  UNL     1      34.609  26.804  86.395  1.00  0.00    -0.256 N
ATOM     16  H9  UNL     1      34.507  26.239  85.552  1.00  0.00     0.191 HD
ENDROOT
BRANCH   5  17
HETATM   17  N3  UNL     1      26.634  28.599  84.816  1.00  0.00    -0.079 N
HETATM   18  C9  UNL     1      25.620  28.195  84.059  1.00  0.00     0.164 A
HETATM   19  C10 UNL     1      24.486  28.921  84.357  1.00  0.00     0.074 A
HETATM   20  N4  UNL     1      24.865  29.775  85.321  1.00  0.00    -0.281 N
HETATM   21  N5  UNL     1      26.164  29.566  85.584  1.00  0.00    -0.000 NA
ATOM     22  H4  UNL     1      24.267  30.466  85.776  1.00  0.00     0.184 HD
BRANCH  19  23
HETATM   23  C11 UNL     1      23.164  28.799  83.762  1.00  0.00    -0.002 A
HETATM   24  C12 UNL     1      22.035  29.129  84.484  1.00  0.00     0.053 A
HETATM   25  C13 UNL     1      20.761  29.016  83.921  1.00  0.00     0.102 A
HETATM   26  C14 UNL     1      20.623  28.567  82.629  1.00  0.00     0.132 A
HETATM   27  C15 UNL     1      21.744  28.235  81.899  1.00  0.00     0.102 A
HETATM   28  C16 UNL     1      22.989  28.356  82.474  1.00  0.00     0.053 A
BRANCH  25  29
HETATM   29  O5  UNL     1      19.625  29.340  84.625  1.00  0.00    -0.358 OA
ATOM     30  H5  UNL     1      19.254  28.757  85.277  1.00  0.00     0.217 HD
ENDBRANCH  25  29
BRANCH  26  31
HETATM   31  O6  UNL     1      19.341  28.452  82.061  1.00  0.00    -0.356 OA
ATOM     32  H6  UNL     1      19.106  27.670  81.576  1.00  0.00     0.218 HD
ENDBRANCH  26  31
BRANCH  27  33
HETATM   33  O7  UNL     1      21.605  27.786  80.604  1.00  0.00    -0.358 OA
ATOM     34  H7  UNL     1      22.366  27.465  80.134  1.00  0.00     0.217 HD
ENDBRANCH  27  33
ENDBRANCH  19  23
ENDBRANCH   5  17
BRANCH   8  35
HETATM   35  N7  UNL     1      30.144  26.162  82.931  1.00  0.00    -0.384 N
ATOM     36  H72 UNL     1      30.085  26.507  81.972  1.00  0.00     0.157 HD
ATOM     37  H71 UNL     1      30.532  25.246  83.153  1.00  0.00     0.157 HD
ENDBRANCH   8  35
BRANCH   1  38
HETATM   38  C6  UNL     1      31.075  28.995  87.998  1.00  0.00     0.186 C
BRANCH  38  39
HETATM   39  C5  UNL     1      31.413  30.445  87.915  1.00  0.00     0.169 C
BRANCH  39  40
HETATM   40  C4  UNL     1      30.292  31.405  88.190  1.00  0.00     0.179 C
BRANCH  40  41
HETATM   41  C3  UNL     1      30.595  32.825  87.762  1.00  0.00     0.177 C
BRANCH  41  42
HETATM   42  C2  UNL     1      29.744  33.793  88.504  1.00  0.00     0.145 C
HETATM   43  C1  UNL     1      30.518  35.059  88.871  1.00  0.00     0.042 C
BRANCH  42  44
HETATM   44  O1  UNL     1      29.251  33.186  89.665  1.00  0.00    -0.393 OA
ATOM     45  H1  UNL     1      28.426  33.587  89.912  1.00  0.00     0.210 HD
ENDBRANCH  42  44
ENDBRANCH  41  42
BRANCH  41  46
HETATM   46  O2  UNL     1      30.577  32.962  86.387  1.00  0.00    -0.390 OA
ATOM     47  H2  UNL     1      30.890  32.207  85.903  1.00  0.00     0.210 HD
ENDBRANCH  41  46
ENDBRANCH  40  41
BRANCH  40  48
HETATM   48  O3  UNL     1      29.107  30.926  87.640  1.00  0.00    -0.390 OA
ATOM     49  H3  UNL     1      29.156  30.003  87.421  1.00  0.00     0.210 HD
ENDBRANCH  40  48
ENDBRANCH  39  40
BRANCH  39  50
HETATM   50  O4  UNL     1      32.008  30.667  86.648  1.00  0.00    -0.391 OA
ATOM     51  H4  UNL     1      32.469  29.901  86.329  1.00  0.00     0.210 HD
ENDBRANCH  39  50
ENDBRANCH  38  39
ENDBRANCH   1  38
BRANCH  15  52
HETATM   52  N10 UNL     1      35.856  26.861  87.076  1.00  0.00    -0.341 N
ATOM     53 2H10 UNL     1      35.911  27.330  87.980  1.00  0.00     0.177 HD
ATOM     54 1H10 UNL     1      36.677  26.431  86.649  1.00  0.00     0.177 HD
ENDBRANCH  15  52
TORSDOF 16
ENDMDL