MODEL 5
REMARK VINA RESULT: -8.421797950      0.887      1.537
REMARK  11 active torsions:
REMARK  status: ('A' for Active; 'I' for Inactive)
REMARK    1  A    between atoms: C2_7  and  C3_8
REMARK    2  A    between atoms: C3_8  and  S1_9
REMARK    3  A    between atoms: S1_9  and  C4_10
REMARK    4  A    between atoms: C8_16  and  N3_17
REMARK    5  A    between atoms: N3_17  and  C9_19
REMARK    6  A    between atoms: C9_19  and  C10_20
REMARK    7  A    between atoms: C10_20  and  C11_21
REMARK    8  A    between atoms: C12_30  and  O2_31
REMARK    9  A    between atoms: C13_33  and  O3_34
REMARK   10  A    between atoms: C14_36  and  N8_37
REMARK   11  A    between atoms: C17_46  and  O4_47
ROOT
HETATM    1  C4  UNL     1      30.719  28.465  84.021  1.00  0.00     0.159 C
HETATM    2  S2  UNL     1      32.368  28.019  84.192  1.00  0.00    -0.145 SA
HETATM    3  C5  UNL     1      33.394  27.818  85.535  1.00  0.00     0.110 C
HETATM    4  C6  UNL     1      32.804  27.624  86.907  1.00  0.00     0.163 C
HETATM    5  O1  UNL     1      32.905  28.590  87.815  1.00  0.00    -0.380 OA
HETATM    6  C7  UNL     1      31.832  29.100  88.503  1.00  0.00     0.197 C
HETATM    7  C8  UNL     1      30.558  29.358  87.728  1.00  0.00     0.147 C
HETATM    8  C12 UNL     1      30.868  28.890  86.341  1.00  0.00     0.150 C
HETATM    9  C13 UNL     1      31.310  27.471  86.559  1.00  0.00     0.190 C
HETATM   10  C14 UNL     1      30.017  29.158  85.194  1.00  0.00     0.077 C
ENDROOT
BRANCH   7  11
HETATM   11  N3  UNL     1      29.953  30.607  87.830  1.00  0.00    -0.392 N
ATOM     12  H3  UNL     1      29.001  30.757  87.496  1.00  0.00     0.159 HD
BRANCH  11  13
HETATM   13  C9  UNL     1      30.688  31.658  88.407  1.00  0.00     0.063 C
BRANCH  13  14
HETATM   14  C10 UNL     1      30.540  33.047  87.891  1.00  0.00     0.123 C
BRANCH  14  15
HETATM   15  C11 UNL     1      29.404  33.751  88.616  1.00  0.00     0.117 A
HETATM   16  N4  UNL     1      28.907  33.449  89.825  1.00  0.00    -0.272 N
HETATM   17  N5  UNL     1      27.920  34.322  90.079  1.00  0.00    -0.227 N
ATOM     18  H4  UNL     1      29.220  32.696  90.437  1.00  0.00     0.190 HD
HETATM   19  N6  UNL     1      27.788  35.153  89.074  1.00  0.00    -0.227 N
ATOM     20  H5  UNL     1      27.356  34.338  90.928  1.00  0.00     0.210 HD
HETATM   21  N7  UNL     1      28.687  34.811  88.183  1.00  0.00    -0.272 N
ATOM     22  H6  UNL     1      27.117  35.918  88.999  1.00  0.00     0.210 HD
ATOM     23  H7  UNL     1      28.825  35.279  87.287  1.00  0.00     0.190 HD
ENDBRANCH  14  15
ENDBRANCH  13  14
ENDBRANCH  11  13
ENDBRANCH   7  11
BRANCH   8  24
HETATM   24  O2  UNL     1      31.990  29.774  86.090  1.00  0.00    -0.379 OA
ATOM     25  H2  UNL     1      32.276  29.382  85.272  1.00  0.00     0.211 HD
ENDBRANCH   8  24
BRANCH   9  26
HETATM   26  O3  UNL     1      30.866  26.895  87.775  1.00  0.00    -0.389 OA
ATOM     27  H3  UNL     1      29.930  26.968  87.633  1.00  0.00     0.210 HD
ENDBRANCH   9  26
BRANCH  10  28
HETATM   28  N8  UNL     1      28.601  29.070  85.228  1.00  0.00    -0.234 N
HETATM   29  N9  UNL     1      27.896  27.940  85.474  1.00  0.00    -0.276 N
HETATM   30  C15 UNL     1      26.580  28.128  85.440  1.00  0.00     0.143 A
ATOM     31  H9  UNL     1      28.330  27.037  85.665  1.00  0.00     0.189 HD
HETATM   32  N10 UNL     1      25.650  27.230  85.636  1.00  0.00    -0.383 N
HETATM   33  C16 UNL     1      26.375  29.438  85.163  1.00  0.00     0.143 A
ATOM     34 2H10 UNL     1      25.805  26.244  85.845  1.00  0.00     0.157 HD
ATOM     35 1H10 UNL     1      24.641  27.375  85.610  1.00  0.00     0.157 HD
HETATM   36  N11 UNL     1      25.110  30.065  85.035  1.00  0.00    -0.094 NA
HETATM   37  C17 UNL     1      27.637  29.985  85.039  1.00  0.00     0.190 A
BRANCH  37  38
HETATM   38  O4  UNL     1      27.813  31.317  84.755  1.00  0.00    -0.343 OA
ATOM     39  H4  UNL     1      28.635  31.755  84.567  1.00  0.00     0.219 HD
ENDBRANCH  37  38
ENDBRANCH  10  28
BRANCH   1  40
HETATM   40  S1  UNL     1      29.799  27.024  83.404  1.00  0.00    -0.140 SA
BRANCH  40  41
HETATM   41  C3  UNL     1      30.777  25.546  83.285  1.00  0.00     0.153 C
BRANCH  41  42
HETATM   42  C2  UNL     1      29.874  24.395  83.044  1.00  0.00     0.114 A
HETATM   43  N2  UNL     1      28.870  24.302  82.159  1.00  0.00    -0.308 N
HETATM   44  C1  UNL     1      28.279  23.109  82.236  1.00  0.00     0.242 A
ATOM     45  H2  UNL     1      28.596  25.043  81.513  1.00  0.00     0.170 HD
HETATM   46  N1  UNL     1      27.303  22.688  81.550  1.00  0.00    -0.364 N
HETATM   47  O5  UNL     1      28.917  22.455  83.175  1.00  0.00    -0.200 OA
ATOM     48  H12 UNL     1      26.807  23.197  80.819  1.00  0.00     0.159 HD
ATOM     49  H11 UNL     1      26.851  21.775  81.609  1.00  0.00     0.159 HD
HETATM   50  N12 UNL     1      29.866  23.196  83.669  1.00  0.00    -0.244 N
ATOM     51  H12 UNL     1      30.504  22.916  84.413  1.00  0.00     0.196 HD
ENDBRANCH  41  42
ENDBRANCH  40  41
ENDBRANCH   1  40
TORSDOF 11
ENDMDL