MODEL 1
REMARK VINA RESULT: -9.337055797      0.000      0.000
REMARK  15 active torsions:
REMARK  status: ('A' for Active; 'I' for Inactive)
REMARK    1  A    between atoms: N1_1  and  N2_4
REMARK       I    between atoms: N2_4  and  C1_6
REMARK    2  A    between atoms: C1_6  and  C2_8
REMARK    3  A    between atoms: C4_11  and  N4_12
REMARK    4  A    between atoms: C6_16  and  C7_17
REMARK       I    between atoms: C7_17  and  N6_19
REMARK    5  A    between atoms: N6_19  and  C8_21
REMARK    6  A    between atoms: C8_21  and  O3_22
REMARK    7  A    between atoms: C8_21  and  C9_24
REMARK    8  A    between atoms: C9_24  and  C10_25
REMARK    9  A    between atoms: N7_27  and  C12_28
REMARK   10  A    between atoms: C13_30  and  C14_31
REMARK   11  A    between atoms: C14_31  and  O4_32
REMARK   12  A    between atoms: C16_35  and  O5_36
REMARK   13  A    between atoms: C17_44  and  O6_45
REMARK   14  A    between atoms: C18_47  and  O7_48
REMARK   15  A    between atoms: C19_50  and  O8_51
ROOT
HETATM    1  N4  UNL     1      24.080  28.658  83.974  1.00  0.00    -0.192 N
HETATM    2  N5  UNL     1      23.942  29.437  85.028  1.00  0.00    -0.288 N
ATOM      3  H5  UNL     1      23.115  29.999  85.226  1.00  0.00     0.188 HD
HETATM    4  C5  UNL     1      25.032  29.393  85.802  1.00  0.00     0.146 A
HETATM    5  C6  UNL     1      25.907  28.524  85.188  1.00  0.00     0.134 A
HETATM    6  N10 UNL     1      25.267  28.112  84.080  1.00  0.00    -0.273 N
ATOM      7  H10 UNL     1      25.657  27.455  83.404  1.00  0.00     0.189 HD
ENDROOT
BRANCH   5   8
HETATM    8  C7  UNL     1      27.249  28.132  85.641  1.00  0.00     0.273 C
HETATM    9  O2  UNL     1      27.513  28.111  86.864  1.00  0.00    -0.266 OA
HETATM   10  N6  UNL     1      28.271  27.771  84.726  1.00  0.00    -0.329 N
ATOM     11  H6  UNL     1      28.072  27.783  83.726  1.00  0.00     0.165 HD
BRANCH  10  12
HETATM   12  C8  UNL     1      29.589  27.387  85.178  1.00  0.00     0.226 C
BRANCH  12  13
HETATM   13  O3  UNL     1      29.566  26.897  86.492  1.00  0.00    -0.376 OA
ATOM     14  H3  UNL     1      30.425  26.605  86.774  1.00  0.00     0.212 HD
ENDBRANCH  12  13
BRANCH  12  15
HETATM   15  C9  UNL     1      30.585  28.515  85.030  1.00  0.00     0.113 C
BRANCH  15  16
HETATM   16  C10 UNL     1      30.389  29.508  86.114  1.00  0.00     0.048 A
HETATM   17  C11 UNL     1      30.211  30.852  85.905  1.00  0.00     0.139 A
HETATM   18  N7  UNL     1      30.062  31.470  87.095  1.00  0.00    -0.270 N
HETATM   19  N8  UNL     1      30.146  30.531  88.007  1.00  0.00    -0.240 N
HETATM   20  N9  UNL     1      30.344  29.338  87.446  1.00  0.00    -0.289 N
ATOM     21  H8  UNL     1      30.072  30.692  89.011  1.00  0.00     0.208 HD
ATOM     22  H9  UNL     1      30.443  28.452  87.942  1.00  0.00     0.188 HD
BRANCH  18  23
HETATM   23  C12 UNL     1      29.854  32.889  87.227  1.00  0.00     0.199 C
HETATM   24  S1  UNL     1      28.826  33.124  88.729  1.00  0.00    -0.132 SA
HETATM   25  C13 UNL     1      29.775  34.493  89.501  1.00  0.00     0.075 C
HETATM   26  C15 UNL     1      30.687  34.876  88.360  1.00  0.00     0.052 C
HETATM   27  C16 UNL     1      31.119  33.620  87.658  1.00  0.00     0.154 C
BRANCH  25  28
HETATM   28  C14 UNL     1      28.755  35.602  89.765  1.00  0.00     0.179 C
BRANCH  28  29
HETATM   29  O4  UNL     1      29.448  36.768  90.087  1.00  0.00    -0.400 OA
ATOM     30  H4  UNL     1      29.810  37.131  89.286  1.00  0.00     0.209 HD
ENDBRANCH  28  29
ENDBRANCH  25  28
BRANCH  27  31
HETATM   31  O5  UNL     1      31.875  32.823  88.498  1.00  0.00    -0.393 OA
ATOM     32  H5  UNL     1      32.667  32.535  88.058  1.00  0.00     0.210 HD
ENDBRANCH  27  31
ENDBRANCH  18  23
ENDBRANCH  15  16
ENDBRANCH  12  15
ENDBRANCH  10  12
ENDBRANCH   5   8
BRANCH   1  33
HETATM   33  C4  UNL     1      23.083  28.502  82.972  1.00  0.00     0.136 A
HETATM   34  C3  UNL     1      23.457  28.470  81.645  1.00  0.00     0.098 A
HETATM   35  C2  UNL     1      22.529  28.318  80.585  1.00  0.00     0.096 A
HETATM   36  N3  UNL     1      24.826  28.593  81.323  1.00  0.00    -0.099 NA
HETATM   37  C19 UNL     1      21.235  28.206  80.968  1.00  0.00     0.119 A
HETATM   38  C18 UNL     1      20.801  28.232  82.298  1.00  0.00     0.136 A
HETATM   39  C17 UNL     1      21.754  28.382  83.268  1.00  0.00     0.134 A
BRANCH  35  40
HETATM   40  C1  UNL     1      23.066  28.301  79.243  1.00  0.00     0.274 C
HETATM   41  N2  UNL     1      23.919  29.243  78.704  1.00  0.00    -0.272 N
ATOM     42  H2  UNL     1      24.217  30.032  79.277  1.00  0.00     0.189 HD
HETATM   43  O1  UNL     1      22.754  27.347  78.435  1.00  0.00    -0.266 OA
BRANCH  41  44
HETATM   44  N1  UNL     1      24.395  29.137  77.360  1.00  0.00    -0.342 N
ATOM     45  H12 UNL     1      24.012  28.399  76.769  1.00  0.00     0.176 HD
ATOM     46  H11 UNL     1      25.099  29.777  76.992  1.00  0.00     0.176 HD
ENDBRANCH  41  44
ENDBRANCH  35  40
BRANCH  37  47
HETATM   47  O8  UNL     1      20.256  28.051  79.975  1.00  0.00    -0.357 OA
ATOM     48  H8  UNL     1      19.684  28.786  79.787  1.00  0.00     0.218 HD
ENDBRANCH  37  47
BRANCH  38  49
HETATM   49  O7  UNL     1      19.453  28.107  82.554  1.00  0.00    -0.356 OA
ATOM     50  H7  UNL     1      18.811  27.843  81.905  1.00  0.00     0.218 HD
ENDBRANCH  38  49
BRANCH  39  51
HETATM   51  O6  UNL     1      21.396  28.416  84.607  1.00  0.00    -0.356 OA
ATOM     52  H6  UNL     1      20.529  28.102  84.834  1.00  0.00     0.218 HD
ENDBRANCH  39  51
ENDBRANCH   1  33
TORSDOF 15
ENDMDL