MODEL 3
REMARK VINA RESULT: -9.844199244      0.845      2.101
REMARK  15 active torsions:
REMARK  status: ('A' for Active; 'I' for Inactive)
REMARK    1  A    between atoms: C2_3  and  C3_4
REMARK    2  A    between atoms: C3_4  and  N2_5
REMARK    3  A    between atoms: C3_4  and  C14_41
REMARK    4  A    between atoms: N2_5  and  C4_7
REMARK    5  A    between atoms: C4_7  and  C5_8
REMARK    6  A    between atoms: C5_8  and  N3_9
REMARK    7  A    between atoms: C9_17  and  N6_18
REMARK    8  A    between atoms: C10_23  and  N8_24
REMARK    9  A    between atoms: C12_32  and  N11_33
REMARK   10  A    between atoms: N12_37  and  O1_39
REMARK       I    between atoms: C14_41  and  N13_43
REMARK   11  A    between atoms: N13_43  and  C15_45
REMARK   12  A    between atoms: C16_47  and  C17_48
REMARK   13  A    between atoms: C17_48  and  O4_49
REMARK   14  A    between atoms: C17_48  and  O5_51
REMARK   15  A    between atoms: C20_56  and  O7_57
ROOT
HETATM    1  N1  UNL     1      25.286  29.457  87.786  1.00  0.00    -0.197 NA
HETATM    2  C1  UNL     1      25.912  28.792  87.074  1.00  0.00     0.061 C
HETATM    3  C2  UNL     1      26.697  27.941  86.164  1.00  0.00     0.158 C
ENDROOT
BRANCH   3   4
HETATM    4  C3  UNL     1      26.670  28.466  84.753  1.00  0.00     0.188 C
BRANCH   4   5
HETATM    5  N2  UNL     1      27.585  27.796  83.875  1.00  0.00    -0.363 N
ATOM      6  H2  UNL     1      27.381  26.824  83.644  1.00  0.00     0.161 HD
BRANCH   5   7
HETATM    7  C4  UNL     1      28.748  28.368  83.300  1.00  0.00     0.116 C
HETATM    8  N12 UNL     1      28.652  29.010  82.175  1.00  0.00    -0.256 N
ATOM      9  H12 UNL     1      29.500  29.413  81.778  1.00  0.00     0.195 HD
BRANCH   7  10
HETATM   10  C5  UNL     1      30.085  28.277  83.912  1.00  0.00     0.208 C
BRANCH  10  11
HETATM   11  N3  UNL     1      30.364  29.402  84.771  1.00  0.00    -0.331 N
HETATM   12  C6  UNL     1      29.841  29.556  86.025  1.00  0.00     0.184 A
HETATM   13  N4  UNL     1      30.278  30.695  86.572  1.00  0.00    -0.348 N
HETATM   14  C7  UNL     1      31.088  31.287  85.674  1.00  0.00     0.095 A
ATOM     15  H4  UNL     1      30.042  31.051  87.499  1.00  0.00     0.167 HD
HETATM   16  C8  UNL     1      31.808  32.477  85.714  1.00  0.00     0.122 A
HETATM   17  C13 UNL     1      31.134  30.490  84.579  1.00  0.00     0.109 A
HETATM   18  N5  UNL     1      31.601  33.087  86.900  1.00  0.00    -0.185 N
HETATM   19  C11 UNL     1      32.563  32.825  84.622  1.00  0.00     0.152 A
HETATM   20  C9  UNL     1      32.136  34.265  87.268  1.00  0.00     0.691 C
ATOM     21  H5  UNL     1      30.990  32.619  87.570  1.00  0.00     0.184 HD
HETATM   22  N7  UNL     1      32.868  35.122  86.533  1.00  0.00    -0.023 N
HETATM   23  C10 UNL     1      33.294  35.045  85.252  1.00  0.00     0.692 C
ATOM     24  H7  UNL     1      33.149  35.970  87.025  1.00  0.00     0.203 HD
HETATM   25  N9  UNL     1      33.327  33.939  84.478  1.00  0.00    -0.174 N
ATOM     26  H9  UNL     1      33.994  33.940  83.705  1.00  0.00     0.186 HD
HETATM   27  N10 UNL     1      32.594  32.022  83.549  1.00  0.00    -0.325 N
HETATM   28  C12 UNL     1      31.907  30.864  83.483  1.00  0.00     0.130 A
ATOM     29  H10 UNL     1      33.162  32.299  82.748  1.00  0.00     0.169 HD
BRANCH  20  30
HETATM   30  N6  UNL     1      31.948  34.671  88.481  1.00  0.00    -0.234 N
ATOM     31  H62 UNL     1      31.123  34.259  88.917  1.00  0.00     0.174 HD
ATOM     32  H61 UNL     1      32.611  35.338  88.876  1.00  0.00     0.174 HD
ENDBRANCH  20  30
BRANCH  23  33
HETATM   33  N8  UNL     1      33.710  36.153  84.726  1.00  0.00    -0.234 N
ATOM     34  H82 UNL     1      33.134  36.570  83.993  1.00  0.00     0.174 HD
ATOM     35  H81 UNL     1      34.587  36.521  85.092  1.00  0.00     0.174 HD
ENDBRANCH  23  33
BRANCH  28  36
HETATM   36  N11 UNL     1      31.926  30.089  82.475  1.00  0.00    -0.384 N
ATOM     37 2H11 UNL     1      32.828  29.886  82.045  1.00  0.00     0.157 HD
ATOM     38 1H11 UNL     1      31.091  29.663  82.075  1.00  0.00     0.157 HD
ENDBRANCH  28  36
ENDBRANCH  10  11
ENDBRANCH   7  10
BRANCH   8  39
HETATM   39  O1  UNL     1      27.488  29.178  81.497  1.00  0.00    -0.288 OA
ATOM     40  H1  UNL     1      26.857  28.484  81.347  1.00  0.00     0.244 HD
ENDBRANCH   8  39
ENDBRANCH   5   7
ENDBRANCH   4   5
BRANCH   4  41
HETATM   41  C14 UNL     1      25.276  28.275  84.242  1.00  0.00     0.247 C
HETATM   42  O2  UNL     1      24.850  27.144  83.990  1.00  0.00    -0.271 OA
HETATM   43  N13 UNL     1      24.404  29.400  84.034  1.00  0.00    -0.303 N
ATOM     44  H13 UNL     1      24.713  30.353  84.228  1.00  0.00     0.171 HD
BRANCH  43  45
HETATM   45  C15 UNL     1      23.099  29.133  83.550  1.00  0.00     0.188 A
HETATM   46  O3  UNL     1      22.904  28.663  82.325  1.00  0.00    -0.290 OA
HETATM   47  C16 UNL     1      21.750  28.397  81.817  1.00  0.00     0.113 A
HETATM   48  C18 UNL     1      20.594  28.593  82.545  1.00  0.00     0.096 A
HETATM   49  C19 UNL     1      20.705  29.075  83.818  1.00  0.00     0.211 A
HETATM   50  O6  UNL     1      19.694  29.265  84.511  1.00  0.00    -0.285 OA
HETATM   51  C20 UNL     1      21.985  29.347  84.323  1.00  0.00     0.168 A
BRANCH  47  52
HETATM   52  C17 UNL     1      21.599  27.872  80.436  1.00  0.00     0.312 C
BRANCH  52  53
HETATM   53  O4  UNL     1      20.426  28.335  79.846  1.00  0.00    -0.365 OA
ATOM     54  H4  UNL     1      19.675  28.174  80.405  1.00  0.00     0.213 HD
ENDBRANCH  52  53
BRANCH  52  55
HETATM   55  O5  UNL     1      22.732  28.308  79.722  1.00  0.00    -0.365 OA
ATOM     56  H5  UNL     1      22.446  29.041  79.191  1.00  0.00     0.213 HD
ENDBRANCH  52  55
ENDBRANCH  47  52
BRANCH  51  57
HETATM   57  O7  UNL     1      22.070  29.837  85.619  1.00  0.00    -0.354 OA
ATOM     58  H7  UNL     1      21.640  30.642  85.884  1.00  0.00     0.218 HD
ENDBRANCH  51  57
ENDBRANCH  43  45
ENDBRANCH   4  41
ENDBRANCH   3   4
TORSDOF 15
ENDMDL