MODEL 2
REMARK VINA RESULT: -6.604317306      1.362      2.077
REMARK  10 active torsions:
REMARK  status: ('A' for Active; 'I' for Inactive)
REMARK    1  A    between atoms: C2_2  and  C3_3
REMARK    2  A    between atoms: C2_2  and  O1_8
REMARK    3  A    between atoms: C2_2  and  C9_19
REMARK    4  A    between atoms: C3_3  and  N1_4
REMARK    5  A    between atoms: O1_8  and  C4_9
REMARK    6  A    between atoms: C4_9  and  C5_10
REMARK    7  A    between atoms: C5_10  and  O2_11
REMARK    8  A    between atoms: O2_11  and  C6_12
REMARK    9  A    between atoms: C6_12  and  C7_13
REMARK   10  A    between atoms: C7_13  and  N2_14
REMARK       I    between atoms: N2_14  and  C8_16
ROOT
HETATM    1  O1  UNL     1      19.964  -6.691  -1.009  1.00  0.00    -0.367 OA
ENDROOT
BRANCH   1   2
HETATM    2  C2  UNL     1      18.725  -7.018  -0.681  1.00  0.00     0.158 C
HETATM    3  C1  UNL     1      18.120  -8.237  -1.356  1.00  0.00     0.058 C
BRANCH   2   4
HETATM    4  C3  UNL     1      17.824  -5.845  -1.135  1.00  0.00     0.276 C
BRANCH   4   5
HETATM    5  N1  UNL     1      16.652  -5.744  -0.320  1.00  0.00    -0.076 N
ATOM      6  H13 UNL     1      16.890  -5.663   0.668  1.00  0.00     0.274 HD
ATOM      7  H12 UNL     1      16.187  -4.844  -0.444  1.00  0.00     0.274 HD
ATOM      8  H11 UNL     1      16.015  -6.521  -0.490  1.00  0.00     0.274 HD
ENDBRANCH   4   5
ENDBRANCH   2   4
BRANCH   2   9
HETATM    9  C9  UNL     1      18.421  -7.159   0.769  1.00  0.00     0.267 C
HETATM   10  N4  UNL     1      17.852  -8.392   1.193  1.00  0.00    -0.059 NA
HETATM   11  O4  UNL     1      18.620  -6.312   1.615  1.00  0.00    -0.273 OA
ENDBRANCH   2   9
ENDBRANCH   1   2
BRANCH   1  12
HETATM   12  C4  UNL     1      20.873  -7.467  -1.580  1.00  0.00     0.195 C
BRANCH  12  13
HETATM   13  C5  UNL     1      21.438  -7.081  -2.915  1.00  0.00     0.193 C
BRANCH  13  14
HETATM   14  O2  UNL     1      20.514  -6.129  -3.463  1.00  0.00    -0.387 OA
BRANCH  14  15
HETATM   15  C6  UNL     1      19.874  -6.645  -4.544  1.00  0.00     0.187 C
BRANCH  15  16
HETATM   16  C7  UNL     1      18.784  -5.898  -5.203  1.00  0.00     0.150 C
BRANCH  16  17
HETATM   17  N2  UNL     1      17.478  -5.994  -4.674  1.00  0.00    -0.343 N
HETATM   18  C8  UNL     1      16.593  -7.053  -4.643  1.00  0.00     0.328 C
HETATM   19  N3  UNL     1      15.297  -6.806  -4.003  1.00  0.00    -0.040 NA
HETATM   20  O3  UNL     1      16.768  -8.189  -5.096  1.00  0.00    -0.251 OA
ATOM     21  H2  UNL     1      17.130  -5.137  -4.243  1.00  0.00     0.163 HD
ENDBRANCH  16  17
ENDBRANCH  15  16
ENDBRANCH  14  15
ENDBRANCH  13  14
ENDBRANCH  12  13
ENDBRANCH   1  12
TORSDOF 10
ENDMDL