MODEL 5
REMARK VINA RESULT: -6.820023379      1.525      2.103
REMARK  11 active torsions:
REMARK  status: ('A' for Active; 'I' for Inactive)
REMARK    1  A    between atoms: O1_2  and  C2_3
REMARK    2  A    between atoms: C2_3  and  C3_4
REMARK    3  A    between atoms: C3_4  and  N1_5
REMARK    4  A    between atoms: N1_5  and  C4_8
REMARK    5  A    between atoms: C4_8  and  C5_9
REMARK       I    between atoms: C5_9  and  N2_11
REMARK    6  A    between atoms: N2_11  and  C6_13
REMARK    7  A    between atoms: C6_13  and  C7_14
REMARK    8  A    between atoms: C7_14  and  O3_15
REMARK    9  A    between atoms: C7_14  and  C8_17
REMARK   10  A    between atoms: C7_14  and  C9_22
REMARK   11  A    between atoms: C8_17  and  N3_18
ROOT
HETATM    1  C5  UNL     1      17.113  -7.036  -4.349  1.00  0.00     0.243 C
HETATM    2  O2  UNL     1      16.602  -8.162  -4.215  1.00  0.00    -0.272 OA
HETATM    3  N2  UNL     1      17.590  -6.232  -3.314  1.00  0.00    -0.356 N
ATOM      4  H2  UNL     1      17.989  -5.334  -3.587  1.00  0.00     0.162 HD
ENDROOT
BRANCH   3   5
HETATM    5  C6  UNL     1      17.583  -6.519  -1.922  1.00  0.00     0.172 C
BRANCH   5   6
HETATM    6  C7  UNL     1      18.657  -7.407  -1.384  1.00  0.00     0.175 C
BRANCH   6   7
HETATM    7  O3  UNL     1      18.576  -8.667  -1.909  1.00  0.00    -0.377 OA
ATOM      8  H3  UNL     1      18.876  -9.323  -1.290  1.00  0.00     0.211 HD
ENDBRANCH   6   7
BRANCH   6   9
HETATM    9  C8  UNL     1      18.430  -7.536   0.119  1.00  0.00     0.278 C
BRANCH   9  10
HETATM   10  N3  UNL     1      18.787  -6.371   0.862  1.00  0.00    -0.076 N
ATOM     11  H33 UNL     1      18.060  -6.143   1.541  1.00  0.00     0.274 HD
ATOM     12  H32 UNL     1      19.559  -6.574   1.496  1.00  0.00     0.274 HD
ATOM     13  H31 UNL     1      19.003  -5.559   0.284  1.00  0.00     0.274 HD
ENDBRANCH   9  10
ENDBRANCH   6   9
BRANCH   6  14
HETATM   14  C9  UNL     1      19.960  -6.756  -1.665  1.00  0.00     0.269 C
HETATM   15  N4  UNL     1      21.149  -7.479  -1.459  1.00  0.00    -0.059 NA
HETATM   16  O4  UNL     1      19.976  -5.584  -2.078  1.00  0.00    -0.273 OA
ENDBRANCH   6  14
ENDBRANCH   5   6
ENDBRANCH   3   5
BRANCH   1  17
HETATM   17  C4  UNL     1      17.208  -6.527  -5.764  1.00  0.00     0.334 C
BRANCH  17  18
HETATM   18  N1  UNL     1      18.440  -5.790  -5.914  1.00  0.00    -0.065 N
ATOM     19  H12 UNL     1      18.702  -5.282  -5.069  1.00  0.00     0.277 HD
ATOM     20  H11 UNL     1      18.347  -4.985  -6.533  1.00  0.00     0.277 HD
BRANCH  18  21
HETATM   21  C3  UNL     1      19.463  -6.723  -6.351  1.00  0.00     0.259 C
BRANCH  21  22
HETATM   22  C2  UNL     1      19.447  -6.787  -7.880  1.00  0.00     0.194 C
BRANCH  22  23
HETATM   23  O1  UNL     1      20.327  -7.772  -8.266  1.00  0.00    -0.394 OA
HETATM   24  C1  UNL     1      20.645  -7.720  -9.606  1.00  0.00     0.201 C
ENDBRANCH  22  23
ENDBRANCH  21  22
ENDBRANCH  18  21
ENDBRANCH  17  18
ENDBRANCH   1  17
TORSDOF 11
ENDMDL