MODEL 1
REMARK VINA RESULT: -7.448695499      0.000      0.000
REMARK  12 active torsions:
REMARK  status: ('A' for Active; 'I' for Inactive)
REMARK    1  A    between atoms: N1_1  and  C1_5
REMARK    2  A    between atoms: C1_5  and  C2_6
REMARK       I    between atoms: C2_6  and  N2_8
REMARK    3  A    between atoms: N2_8  and  C3_10
REMARK    4  A    between atoms: C3_10  and  O2_11
REMARK    5  A    between atoms: C3_10  and  C4_13
REMARK    6  A    between atoms: C4_13  and  C5_14
REMARK    7  A    between atoms: C5_14  and  N3_15
REMARK    8  A    between atoms: C5_14  and  C6_19
REMARK       I    between atoms: C6_19  and  N4_21
REMARK    9  A    between atoms: N4_21  and  C7_23
REMARK   10  A    between atoms: C7_23  and  C8_24
REMARK   11  A    between atoms: C8_24  and  C9_25
REMARK   12  A    between atoms: C9_25  and  O4_26
ROOT
HETATM    1  C5  UNL     1      17.628  -6.272  -3.823  1.00  0.00     0.282 C
ENDROOT
BRANCH   1   2
HETATM    2  C4  UNL     1      17.780  -7.388  -2.745  1.00  0.00     0.126 C
BRANCH   2   3
HETATM    3  C3  UNL     1      17.143  -6.923  -1.528  1.00  0.00     0.120 C
BRANCH   3   4
HETATM    4  N2  UNL     1      17.802  -6.285  -0.465  1.00  0.00    -0.310 N
HETATM    5  C2  UNL     1      18.248  -6.855   0.712  1.00  0.00     0.248 C
HETATM    6  O1  UNL     1      18.864  -6.072   1.534  1.00  0.00    -0.271 OA
ATOM      7  H2  UNL     1      17.972  -5.285  -0.575  1.00  0.00     0.170 HD
BRANCH   5   8
HETATM    8  C1  UNL     1      18.082  -8.252   1.099  1.00  0.00     0.332 C
BRANCH   8   9
HETATM    9  N1  UNL     1      16.665  -8.490   1.444  1.00  0.00    -0.071 N
ATOM     10  H13 UNL     1      16.525  -8.617   2.447  1.00  0.00     0.274 HD
ATOM     11  H12 UNL     1      16.091  -7.656   1.325  1.00  0.00     0.274 HD
ATOM     12  H11 UNL     1      16.319  -9.281   0.900  1.00  0.00     0.274 HD
ENDBRANCH   8   9
ENDBRANCH   5   8
ENDBRANCH   3   4
BRANCH   3  13
HETATM   13  O2  UNL     1      15.849  -7.109  -1.401  1.00  0.00    -0.349 OA
ATOM     14  H2  UNL     1      15.509  -7.182  -0.517  1.00  0.00     0.219 HD
ENDBRANCH   3  13
ENDBRANCH   2   3
ENDBRANCH   1   2
BRANCH   1  15
HETATM   15  N3  UNL     1      16.327  -6.356  -4.361  1.00  0.00    -0.066 N
ATOM     16  H33 UNL     1      16.327  -6.473  -5.374  1.00  0.00     0.275 HD
ATOM     17  H32 UNL     1      15.858  -7.229  -4.121  1.00  0.00     0.275 HD
ATOM     18  H31 UNL     1      15.806  -5.533  -4.060  1.00  0.00     0.275 HD
ENDBRANCH   1  15
BRANCH   1  19
HETATM   19  C6  UNL     1      18.770  -6.408  -4.731  1.00  0.00     0.248 C
HETATM   20  O3  UNL     1      19.845  -5.824  -4.345  1.00  0.00    -0.271 OA
HETATM   21  N4  UNL     1      18.760  -7.106  -5.943  1.00  0.00    -0.359 N
ATOM     22  H4  UNL     1      17.888  -7.555  -6.224  1.00  0.00     0.162 HD
BRANCH  21  23
HETATM   23  C7  UNL     1      19.905  -7.237  -6.833  1.00  0.00     0.125 C
BRANCH  23  24
HETATM   24  C8  UNL     1      19.499  -6.975  -8.243  1.00  0.00     0.046 C
BRANCH  24  25
HETATM   25  C9  UNL     1      20.518  -7.708  -9.128  1.00  0.00     0.165 C
BRANCH  25  26
HETATM   26  O4  UNL     1      20.545  -7.080 -10.372  1.00  0.00    -0.401 OA
ATOM     27  H4  UNL     1      19.684  -7.162 -10.764  1.00  0.00     0.209 HD
ENDBRANCH  25  26
ENDBRANCH  24  25
ENDBRANCH  23  24
ENDBRANCH  21  23
ENDBRANCH   1  19
TORSDOF 12
ENDMDL