MODEL 3
REMARK VINA RESULT: -7.668954737      1.957      2.339
REMARK  10 active torsions:
REMARK  status: ('A' for Active; 'I' for Inactive)
REMARK    1  A    between atoms: C2_2  and  N1_3
REMARK    2  A    between atoms: N1_3  and  C3_6
REMARK    3  A    between atoms: C3_6  and  C4_7
REMARK       I    between atoms: C4_7  and  N2_9
REMARK       I    between atoms: N2_9  and  C5_11
REMARK       I    between atoms: C5_11  and  N3_13
REMARK    4  A    between atoms: N3_13  and  C6_15
REMARK    5  A    between atoms: C6_15  and  C7_16
REMARK    6  A    between atoms: C7_16  and  O3_17
REMARK    7  A    between atoms: C7_16  and  C8_19
REMARK    8  A    between atoms: C7_16  and  C9_24
REMARK    9  A    between atoms: C8_19  and  N4_20
REMARK   10  A    between atoms: C9_24  and  O4_25
ROOT
HETATM    1  C4  UNL     1      16.929  -6.842  -4.109  1.00  0.00     0.251 C
HETATM    2  O1  UNL     1      15.835  -7.236  -3.673  1.00  0.00    -0.271 OA
HETATM    3  N2  UNL     1      17.946  -6.280  -3.357  1.00  0.00    -0.278 N
ATOM      4  H2  UNL     1      18.784  -6.008  -3.870  1.00  0.00     0.173 HD
HETATM    5  C5  UNL     1      17.963  -6.040  -1.984  1.00  0.00     0.322 C
HETATM    6  O2  UNL     1      19.054  -5.499  -1.565  1.00  0.00    -0.247 OA
HETATM    7  N3  UNL     1      16.910  -6.352  -1.140  1.00  0.00    -0.340 N
ATOM      8  H3  UNL     1      16.111  -6.818  -1.570  1.00  0.00     0.164 HD
ENDROOT
BRANCH   7   9
HETATM    9  C6  UNL     1      16.810  -6.096   0.265  1.00  0.00     0.166 C
BRANCH   9  10
HETATM   10  C7  UNL     1      17.714  -6.873   1.126  1.00  0.00     0.118 C
BRANCH  10  11
HETATM   11  O3  UNL     1      18.888  -6.159   1.462  1.00  0.00    -0.384 OA
ATOM     12  H3  UNL     1      19.678  -6.663   1.304  1.00  0.00     0.210 HD
ENDBRANCH  10  11
BRANCH  10  13
HETATM   13  C8  UNL     1      16.957  -6.769   2.547  1.00  0.00     0.271 C
BRANCH  13  14
HETATM   14  N4  UNL     1      17.509  -7.723   3.440  1.00  0.00    -0.076 N
ATOM     15  H43 UNL     1      18.528  -7.711   3.439  1.00  0.00     0.274 HD
ATOM     16  H42 UNL     1      17.363  -7.469   4.417  1.00  0.00     0.274 HD
ATOM     17  H41 UNL     1      17.133  -8.646   3.220  1.00  0.00     0.274 HD
ENDBRANCH  13  14
ENDBRANCH  10  13
BRANCH  10  18
HETATM   18  C9  UNL     1      17.880  -8.295   0.863  1.00  0.00     0.205 C
BRANCH  18  19
HETATM   19  O4  UNL     1      16.645  -8.942   0.856  1.00  0.00    -0.398 OA
ATOM     20  H4  UNL     1      16.760  -9.883   0.789  1.00  0.00     0.209 HD
ENDBRANCH  18  19
ENDBRANCH  10  18
ENDBRANCH   9  10
ENDBRANCH   7   9
BRANCH   1  21
HETATM   21  C3  UNL     1      17.118  -7.015  -5.612  1.00  0.00     0.335 C
BRANCH  21  22
HETATM   22  N1  UNL     1      18.486  -7.408  -5.827  1.00  0.00    -0.067 N
ATOM     23  H12 UNL     1      18.587  -8.408  -6.001  1.00  0.00     0.277 HD
ATOM     24  H11 UNL     1      19.049  -7.360  -4.977  1.00  0.00     0.277 HD
BRANCH  22  25
HETATM   25  C2  UNL     1      19.024  -6.586  -6.910  1.00  0.00     0.228 C
HETATM   26  C1  UNL     1      19.917  -7.415  -7.789  1.00  0.00     0.034 C
ENDBRANCH  22  25
ENDBRANCH  21  22
ENDBRANCH   1  21
TORSDOF 10
ENDMDL