MODEL 1
REMARK VINA RESULT: -6.707635112      0.000      0.000
REMARK  10 active torsions:
REMARK  status: ('A' for Active; 'I' for Inactive)
REMARK    1  A    between atoms: C1_2  and  O2_4
REMARK    2  A    between atoms: O2_4  and  C2_5
REMARK    3  A    between atoms: C2_5  and  C3_6
REMARK    4  A    between atoms: C3_6  and  C4_7
REMARK    5  A    between atoms: C4_7  and  N3_12
REMARK    6  A    between atoms: C5_8  and  C6_9
REMARK    7  A    between atoms: N3_12  and  C7_14
REMARK    8  A    between atoms: C7_14  and  C8_15
REMARK    9  A    between atoms: C8_15  and  C9_17
REMARK   10  A    between atoms: C9_17  and  N4_18
ROOT
HETATM    1  C4  UNL     1      17.892  -6.571   0.269  1.00  0.00     0.012 C
HETATM    2  C5  UNL     1      18.099  -6.993   1.485  1.00  0.00     0.095 C
ENDROOT
BRANCH   1   3
HETATM    3  C3  UNL     1      16.599  -6.331  -0.400  1.00  0.00     0.083 C
BRANCH   3   4
HETATM    4  C2  UNL     1      16.386  -7.277  -1.566  1.00  0.00     0.186 C
BRANCH   4   5
HETATM    5  O2  UNL     1      16.847  -6.773  -2.789  1.00  0.00    -0.306 OA
BRANCH   5   6
HETATM    6  C1  UNL     1      16.392  -7.101  -4.046  1.00  0.00     0.372 C
HETATM    7  N1  UNL     1      16.977  -8.180  -4.806  1.00  0.00    -0.032 NA
HETATM    8  O1  UNL     1      15.444  -6.434  -4.523  1.00  0.00    -0.242 OA
ENDBRANCH   5   6
ENDBRANCH   4   5
ENDBRANCH   3   4
ENDBRANCH   1   3
BRANCH   1   9
HETATM    9  N3  UNL     1      19.076  -6.297  -0.540  1.00  0.00    -0.386 N
ATOM     10  H3  UNL     1      19.221  -5.363  -0.924  1.00  0.00     0.159 HD
BRANCH   9  11
HETATM   11  C7  UNL     1      20.039  -7.332  -0.799  1.00  0.00     0.199 C
BRANCH  11  12
HETATM   12  C8  UNL     1      20.624  -7.194  -2.152  1.00  0.00     0.169 C
HETATM   13  O4  UNL     1      21.473  -7.982  -2.509  1.00  0.00    -0.294 OA
BRANCH  12  14
HETATM   14  C9  UNL     1      20.208  -6.123  -3.085  1.00  0.00     0.309 C
BRANCH  14  15
HETATM   15  N4  UNL     1      19.771  -6.662  -4.335  1.00  0.00    -0.073 N
ATOM     16  H43 UNL     1      19.715  -7.680  -4.303  1.00  0.00     0.274 HD
ATOM     17  H42 UNL     1      18.788  -6.455  -4.508  1.00  0.00     0.274 HD
ATOM     18  H41 UNL     1      20.362  -6.344  -5.103  1.00  0.00     0.274 HD
ENDBRANCH  14  15
ENDBRANCH  12  14
ENDBRANCH  11  12
ENDBRANCH   9  11
ENDBRANCH   1   9
BRANCH   2  19
HETATM   19  C6  UNL     1      17.128  -7.337   2.496  1.00  0.00     0.256 C
HETATM   20  N2  UNL     1      16.663  -6.330   3.424  1.00  0.00    -0.058 NA
HETATM   21  O3  UNL     1      16.624  -8.461   2.662  1.00  0.00    -0.272 OA
ENDBRANCH   2  19
TORSDOF 10
ENDMDL