MODEL 2
REMARK VINA RESULT: -6.664365046      1.213      2.683
REMARK  11 active torsions:
REMARK  status: ('A' for Active; 'I' for Inactive)
REMARK    1  A    between atoms: C2_2  and  N1_3
REMARK    2  A    between atoms: C2_2  and  C7_15
REMARK    3  A    between atoms: N1_3  and  C3_6
REMARK    4  A    between atoms: C3_6  and  C4_7
REMARK    5  A    between atoms: C4_7  and  O1_8
REMARK    6  A    between atoms: O1_8  and  C5_9
REMARK    7  A    between atoms: C5_9  and  C6_10
REMARK    8  A    between atoms: C6_10  and  N2_11
REMARK    9  A    between atoms: C7_15  and  O2_16
REMARK   10  A    between atoms: C7_15  and  C9_20
REMARK   11  A    between atoms: O2_16  and  C8_17
ROOT
HETATM    1  N1  UNL     1      19.466  -5.541  -4.464  1.00  0.00    -0.066 N
ATOM      2  H11 UNL     1      20.113  -4.761  -4.579  1.00  0.00     0.277 HD
ATOM      3  H12 UNL     1      18.582  -5.042  -4.560  1.00  0.00     0.277 HD
ENDROOT
BRANCH   1   4
HETATM    4  C2  UNL     1      19.586  -6.115  -3.154  1.00  0.00     0.220 C
HETATM    5  C1  UNL     1      20.756  -7.064  -3.055  1.00  0.00     0.043 C
BRANCH   4   6
HETATM    6  C7  UNL     1      18.310  -6.863  -2.831  1.00  0.00     0.252 C
BRANCH   6   7
HETATM    7  O2  UNL     1      17.208  -6.267  -3.545  1.00  0.00    -0.290 OA
BRANCH   7   8
HETATM    8  C8  UNL     1      16.297  -7.006  -4.246  1.00  0.00     0.373 C
HETATM    9  N3  UNL     1      16.754  -8.150  -4.951  1.00  0.00    -0.032 NA
HETATM   10  O3  UNL     1      15.092  -6.645  -4.237  1.00  0.00    -0.242 OA
ENDBRANCH   7   8
ENDBRANCH   6   7
BRANCH   6  11
HETATM   11  C9  UNL     1      17.980  -6.856  -1.386  1.00  0.00     0.262 C
HETATM   12  N4  UNL     1      18.451  -7.820  -0.461  1.00  0.00    -0.060 NA
HETATM   13  O4  UNL     1      17.230  -5.934  -0.949  1.00  0.00    -0.274 OA
ENDBRANCH   6  11
ENDBRANCH   4   6
ENDBRANCH   1   4
BRANCH   1  14
HETATM   14  C3  UNL     1      19.630  -6.505  -5.532  1.00  0.00     0.259 C
BRANCH  14  15
HETATM   15  C4  UNL     1      19.242  -5.977  -6.868  1.00  0.00     0.195 C
BRANCH  15  16
HETATM   16  O1  UNL     1      19.153  -7.014  -7.778  1.00  0.00    -0.388 OA
BRANCH  16  17
HETATM   17  C5  UNL     1      20.283  -7.773  -7.929  1.00  0.00     0.195 C
BRANCH  17  18
HETATM   18  C6  UNL     1      20.646  -7.782  -9.423  1.00  0.00     0.255 C
BRANCH  18  19
HETATM   19  N2  UNL     1      21.342  -9.000  -9.776  1.00  0.00    -0.077 N
ATOM     20  H23 UNL     1      22.128  -9.179  -9.152  1.00  0.00     0.274 HD
ATOM     21  H22 UNL     1      20.784  -9.827  -9.564  1.00  0.00     0.274 HD
ATOM     22  H21 UNL     1      21.634  -8.981 -10.753  1.00  0.00     0.274 HD
ENDBRANCH  18  19
ENDBRANCH  17  18
ENDBRANCH  16  17
ENDBRANCH  15  16
ENDBRANCH  14  15
ENDBRANCH   1  14
TORSDOF 11
ENDMDL