MODEL 3
REMARK VINA RESULT: -7.266144508      2.345      5.568
REMARK  11 active torsions:
REMARK  status: ('A' for Active; 'I' for Inactive)
REMARK    1  A    between atoms: C1_2  and  C2_4
REMARK    2  A    between atoms: C3_5  and  N2_6
REMARK    3  A    between atoms: C3_5  and  C8_15
REMARK    4  A    between atoms: C4_8  and  C5_10
REMARK    5  A    between atoms: C5_10  and  C6_11
REMARK    6  A    between atoms: C6_11  and  C7_12
REMARK    7  A    between atoms: C7_12  and  O2_13
REMARK    8  A    between atoms: C8_15  and  O3_16
REMARK    9  A    between atoms: C8_15  and  C9_18
REMARK   10  A    between atoms: C9_18  and  O4_19
REMARK   11  A    between atoms: O4_19  and  N4_20
ROOT
HETATM    1  C2  UNL     1      18.459  -6.322  -4.860  1.00  0.00     0.098 C
HETATM    2  C3  UNL     1      19.107  -6.739  -3.830  1.00  0.00     0.046 C
ENDROOT
BRANCH   2   3
HETATM    3  N2  UNL     1      18.354  -7.403  -2.787  1.00  0.00    -0.349 N
HETATM    4  C4  UNL     1      17.816  -6.781  -1.820  1.00  0.00     0.093 C
HETATM    5  N3  UNL     1      17.935  -5.369  -1.720  1.00  0.00    -0.088 NA
ATOM      6  H2  UNL     1      18.251  -8.417  -2.831  1.00  0.00     0.166 HD
BRANCH   4   7
HETATM    7  C5  UNL     1      17.066  -7.537  -0.797  1.00  0.00     0.075 C
BRANCH   7   8
HETATM    8  C6  UNL     1      17.951  -8.040   0.317  1.00  0.00     0.033 C
BRANCH   8   9
HETATM    9  C7  UNL     1      17.872  -7.037   1.459  1.00  0.00     0.164 C
BRANCH   9  10
HETATM   10  O2  UNL     1      18.861  -6.056   1.327  1.00  0.00    -0.401 OA
ATOM     11  H2  UNL     1      18.551  -5.219   1.650  1.00  0.00     0.209 HD
ENDBRANCH   9  10
ENDBRANCH   8   9
ENDBRANCH   7   8
ENDBRANCH   4   7
ENDBRANCH   2   3
BRANCH   2  12
HETATM   12  C8  UNL     1      20.529  -6.615  -3.592  1.00  0.00     0.194 C
BRANCH  12  13
HETATM   13  O3  UNL     1      20.719  -5.439  -2.797  1.00  0.00    -0.387 OA
ATOM     14  H3  UNL     1      21.017  -5.726  -1.943  1.00  0.00     0.210 HD
ENDBRANCH  12  13
BRANCH  12  15
HETATM   15  C9  UNL     1      21.062  -7.730  -2.685  1.00  0.00     0.238 C
BRANCH  15  16
HETATM   16  O4  UNL     1      21.830  -7.197  -1.655  1.00  0.00    -0.284 OA
BRANCH  16  17
HETATM   17  N4  UNL     1      21.242  -7.462  -0.473  1.00  0.00    -0.311 N
ATOM     18  H42 UNL     1      21.460  -8.269   0.112  1.00  0.00     0.184 HD
ATOM     19  H41 UNL     1      20.557  -6.736  -0.263  1.00  0.00     0.184 HD
ENDBRANCH  16  17
ENDBRANCH  15  16
ENDBRANCH  12  15
ENDBRANCH   2  12
BRANCH   1  20
HETATM   20  C1  UNL     1      18.937  -5.637  -6.036  1.00  0.00     0.256 C
HETATM   21  N1  UNL     1      19.235  -6.332  -7.266  1.00  0.00    -0.058 NA
HETATM   22  O1  UNL     1      19.126  -4.411  -6.073  1.00  0.00    -0.272 OA
ENDBRANCH   1  20
TORSDOF 11
ENDMDL