MODEL 3
REMARK VINA RESULT: -5.949860213      2.189      2.641
REMARK  10 active torsions:
REMARK  status: ('A' for Active; 'I' for Inactive)
REMARK    1  A    between atoms: C2_2  and  C3_3
REMARK    2  A    between atoms: C3_3  and  O1_4
REMARK    3  A    between atoms: C3_3  and  C4_8
REMARK    4  A    between atoms: O1_4  and  N1_5
REMARK    5  A    between atoms: C4_8  and  C5_9
REMARK    6  A    between atoms: C4_8  and  N2_12
REMARK    7  A    between atoms: C4_8  and  C9_20
REMARK    8  A    between atoms: C5_9  and  O2_10
REMARK    9  A    between atoms: N2_12  and  C6_14
REMARK   10  A    between atoms: C6_14  and  C7_15
REMARK       I    between atoms: C7_15  and  N3_17
ROOT
HETATM    1  C4  UNL     1      17.894  -6.865  -2.394  1.00  0.00     0.159 C
ENDROOT
BRANCH   1   2
HETATM    2  C3  UNL     1      18.458  -8.041  -1.588  1.00  0.00     0.190 C
BRANCH   2   3
HETATM    3  C2  UNL     1      19.827  -8.491  -1.872  1.00  0.00     0.033 C
HETATM    4  C1  UNL     1      20.966  -7.693  -1.335  1.00  0.00     0.007 C
ENDBRANCH   2   3
BRANCH   2   5
HETATM    5  O1  UNL     1      18.416  -7.642  -0.202  1.00  0.00    -0.279 OA
BRANCH   5   6
HETATM    6  N1  UNL     1      17.482  -8.285   0.486  1.00  0.00    -0.311 N
ATOM      7  H12 UNL     1      17.656  -9.169   0.964  1.00  0.00     0.184 HD
ATOM      8  H11 UNL     1      16.585  -7.798   0.480  1.00  0.00     0.184 HD
ENDBRANCH   5   6
ENDBRANCH   2   5
ENDBRANCH   1   2
BRANCH   1   9
HETATM    9  C5  UNL     1      18.154  -5.530  -1.833  1.00  0.00     0.207 C
BRANCH   9  10
HETATM   10  O2  UNL     1      17.239  -5.171  -0.806  1.00  0.00    -0.398 OA
ATOM     11  H2  UNL     1      16.854  -5.924  -0.373  1.00  0.00     0.209 HD
ENDBRANCH   9  10
ENDBRANCH   1   9
BRANCH   1  12
HETATM   12  N2  UNL     1      18.625  -7.032  -3.669  1.00  0.00    -0.373 N
ATOM     13  H2  UNL     1      18.631  -7.924  -4.164  1.00  0.00     0.160 HD
BRANCH  12  14
HETATM   14  C6  UNL     1      19.305  -5.922  -4.165  1.00  0.00     0.159 C
BRANCH  14  15
HETATM   15  C7  UNL     1      19.386  -6.059  -5.672  1.00  0.00     0.256 C
HETATM   16  O3  UNL     1      19.160  -5.078  -6.393  1.00  0.00    -0.267 OA
HETATM   17  N3  UNL     1      19.725  -7.334  -6.226  1.00  0.00    -0.361 N
HETATM   18  C8  UNL     1      19.802  -7.461  -7.654  1.00  0.00     0.149 C
ATOM     19  H3  UNL     1      19.908  -8.134  -5.620  1.00  0.00     0.162 HD
ENDBRANCH  14  15
ENDBRANCH  12  14
ENDBRANCH   1  12
BRANCH   1  20
HETATM   20  C9  UNL     1      16.485  -7.164  -2.696  1.00  0.00     0.264 C
HETATM   21  N4  UNL     1      15.918  -7.228  -3.998  1.00  0.00    -0.060 NA
HETATM   22  O4  UNL     1      15.677  -7.386  -1.771  1.00  0.00    -0.274 OA
ENDBRANCH   1  20
TORSDOF 10
ENDMDL