MODEL 2
REMARK VINA RESULT: -7.074078940      1.027      1.027
REMARK  10 active torsions:
REMARK  status: ('A' for Active; 'I' for Inactive)
REMARK    1  A    between atoms: C1_2  and  C2_4
REMARK    2  A    between atoms: C2_4  and  O2_5
REMARK    3  A    between atoms: O2_5  and  C3_6
REMARK    4  A    between atoms: C3_6  and  C4_7
REMARK    5  A    between atoms: C4_7  and  O3_8
REMARK    6  A    between atoms: O3_8  and  C5_9
REMARK    7  A    between atoms: C5_9  and  C6_10
REMARK    8  A    between atoms: C5_9  and  C7_13
REMARK    9  A    between atoms: C8_15  and  C9_16
REMARK   10  A    between atoms: C9_16  and  N4_17
ROOT
HETATM    1  C5  UNL     1      18.216  -6.162  -4.385  1.00  0.00     0.257 C
ENDROOT
BRANCH   1   2
HETATM    2  O3  UNL     1      19.154  -6.801  -3.612  1.00  0.00    -0.369 OA
BRANCH   2   3
HETATM    3  C4  UNL     1      19.684  -6.085  -2.576  1.00  0.00     0.195 C
BRANCH   3   4
HETATM    4  C3  UNL     1      18.896  -6.151  -1.285  1.00  0.00     0.194 C
BRANCH   4   5
HETATM    5  O2  UNL     1      18.358  -7.386  -1.047  1.00  0.00    -0.380 OA
BRANCH   5   6
HETATM    6  C2  UNL     1      17.331  -7.472  -0.159  1.00  0.00     0.267 C
BRANCH   6   7
HETATM    7  C1  UNL     1      17.703  -7.617   1.247  1.00  0.00     0.254 C
HETATM    8  N1  UNL     1      17.273  -6.644   2.221  1.00  0.00    -0.060 NA
HETATM    9  O1  UNL     1      18.388  -8.550   1.690  1.00  0.00    -0.275 OA
ENDBRANCH   6   7
ENDBRANCH   5   6
ENDBRANCH   4   5
ENDBRANCH   3   4
ENDBRANCH   2   3
ENDBRANCH   1   2
BRANCH   1  10
HETATM   10  C6  UNL     1      16.969  -6.953  -4.462  1.00  0.00     0.265 C
HETATM   11  N2  UNL     1      15.765  -6.355  -4.935  1.00  0.00    -0.059 NA
HETATM   12  O4  UNL     1      16.884  -8.132  -4.138  1.00  0.00    -0.274 OA
ENDBRANCH   1  10
BRANCH   1  13
HETATM   13  C7  UNL     1      18.807  -6.090  -5.773  1.00  0.00     0.059 C
HETATM   14  N3  UNL     1      19.136  -4.805  -6.276  1.00  0.00    -0.104 NA
HETATM   15  C8  UNL     1      19.041  -7.142  -6.521  1.00  0.00     0.025 C
BRANCH  15  16
HETATM   16  C9  UNL     1      19.626  -6.959  -7.874  1.00  0.00     0.258 C
BRANCH  16  17
HETATM   17  N4  UNL     1      20.506  -8.063  -8.209  1.00  0.00    -0.076 N
ATOM     18  H43 UNL     1      20.887  -7.969  -9.150  1.00  0.00     0.274 HD
ATOM     19  H42 UNL     1      21.380  -8.022  -7.684  1.00  0.00     0.274 HD
ATOM     20  H41 UNL     1      20.032  -8.956  -8.081  1.00  0.00     0.274 HD
ENDBRANCH  16  17
ENDBRANCH  15  16
ENDBRANCH   1  13
TORSDOF 10
ENDMDL