MODEL 4
REMARK VINA RESULT: -6.510104906      2.162      6.946
REMARK  10 active torsions:
REMARK  status: ('A' for Active; 'I' for Inactive)
REMARK    1  A    between atoms: C2_2  and  N1_3
REMARK    2  A    between atoms: N1_3  and  C3_6
REMARK    3  A    between atoms: C3_6  and  C4_7
REMARK       I    between atoms: C4_7  and  N2_9
REMARK       I    between atoms: N2_9  and  C5_11
REMARK       I    between atoms: C5_11  and  N3_13
REMARK    4  A    between atoms: N3_13  and  C6_15
REMARK    5  A    between atoms: C6_15  and  C7_16
REMARK    6  A    between atoms: C7_16  and  O3_17
REMARK    7  A    between atoms: C7_16  and  C8_19
REMARK    8  A    between atoms: C7_16  and  C9_24
REMARK    9  A    between atoms: C8_19  and  N4_20
REMARK   10  A    between atoms: C9_24  and  O4_25
ROOT
HETATM    1  C4  UNL     1     -16.173  78.190  -2.439  1.00  0.00     0.251 C
HETATM    2  O1  UNL     1     -15.642  77.338  -1.707  1.00  0.00    -0.271 OA
HETATM    3  N2  UNL     1     -16.478  79.490  -2.079  1.00  0.00    -0.278 N
ATOM      4  H2  UNL     1     -16.914  80.064  -2.801  1.00  0.00     0.173 HD
HETATM    5  C5  UNL     1     -16.263  80.112  -0.850  1.00  0.00     0.322 C
HETATM    6  O2  UNL     1     -16.657  81.337  -0.811  1.00  0.00    -0.247 OA
HETATM    7  N3  UNL     1     -15.679  79.479   0.235  1.00  0.00    -0.340 N
ATOM      8  H3  UNL     1     -15.364  78.521   0.081  1.00  0.00     0.164 HD
ENDROOT
BRANCH   7   9
HETATM    9  C6  UNL     1     -15.466  80.010   1.547  1.00  0.00     0.166 C
BRANCH   9  10
HETATM   10  C7  UNL     1     -14.511  79.277   2.391  1.00  0.00     0.118 C
BRANCH  10  11
HETATM   11  O3  UNL     1     -13.566  80.131   3.007  1.00  0.00    -0.384 OA
ATOM     12  H3  UNL     1     -13.828  80.394   3.881  1.00  0.00     0.210 HD
ENDBRANCH  10  11
BRANCH  10  13
HETATM   13  C8  UNL     1     -15.420  78.956   3.684  1.00  0.00     0.271 C
BRANCH  13  14
HETATM   14  N4  UNL     1     -16.486  79.890   3.748  1.00  0.00    -0.076 N
ATOM     15  H43 UNL     1     -16.220  80.749   4.228  1.00  0.00     0.274 HD
ATOM     16  H42 UNL     1     -16.703  80.294   2.837  1.00  0.00     0.274 HD
ATOM     17  H41 UNL     1     -17.298  79.444   4.176  1.00  0.00     0.274 HD
ENDBRANCH  13  14
ENDBRANCH  10  13
BRANCH  10  18
HETATM   18  C9  UNL     1     -14.008  77.992   1.926  1.00  0.00     0.205 C
BRANCH  18  19
HETATM   19  O4  UNL     1     -12.865  78.164   1.147  1.00  0.00    -0.398 OA
ATOM     20  H4  UNL     1     -12.088  77.915   1.633  1.00  0.00     0.209 HD
ENDBRANCH  18  19
ENDBRANCH  10  18
ENDBRANCH   9  10
ENDBRANCH   7   9
BRANCH   1  21
HETATM   21  C3  UNL     1     -16.497  77.708  -3.848  1.00  0.00     0.335 C
BRANCH  21  22
HETATM   22  N1  UNL     1     -15.359  76.963  -4.316  1.00  0.00    -0.067 N
ATOM     23  H12 UNL     1     -15.244  76.071  -3.834  1.00  0.00     0.277 HD
ATOM     24  H11 UNL     1     -14.471  77.382  -4.039  1.00  0.00     0.277 HD
BRANCH  22  25
HETATM   25  C2  UNL     1     -15.486  76.810  -5.765  1.00  0.00     0.228 C
HETATM   26  C1  UNL     1     -14.160  77.056  -6.427  1.00  0.00     0.034 C
ENDBRANCH  22  25
ENDBRANCH  21  22
ENDBRANCH   1  21
TORSDOF 10
ENDMDL