MODEL 4
REMARK VINA RESULT: -6.207834162      1.527      2.647
REMARK  11 active torsions:
REMARK  status: ('A' for Active; 'I' for Inactive)
REMARK    1  A    between atoms: C2_2  and  N1_3
REMARK    2  A    between atoms: C2_2  and  C7_15
REMARK    3  A    between atoms: N1_3  and  C3_6
REMARK    4  A    between atoms: C3_6  and  C4_7
REMARK    5  A    between atoms: C4_7  and  O1_8
REMARK    6  A    between atoms: O1_8  and  C5_9
REMARK    7  A    between atoms: C5_9  and  C6_10
REMARK    8  A    between atoms: C6_10  and  N2_11
REMARK    9  A    between atoms: C7_15  and  O2_16
REMARK   10  A    between atoms: C7_15  and  C9_20
REMARK   11  A    between atoms: O2_16  and  C8_17
ROOT
HETATM    1  N1  UNL     1     -15.568  77.956   1.971  1.00  0.00    -0.066 N
ATOM      2  H11 UNL     1     -16.066  77.094   2.191  1.00  0.00     0.277 HD
ATOM      3  H12 UNL     1     -16.319  78.472   1.512  1.00  0.00     0.277 HD
ENDROOT
BRANCH   1   4
HETATM    4  C2  UNL     1     -14.490  77.704   1.056  1.00  0.00     0.220 C
HETATM    5  C1  UNL     1     -13.155  78.120   1.623  1.00  0.00     0.043 C
BRANCH   4   6
HETATM    6  C7  UNL     1     -14.749  78.471  -0.223  1.00  0.00     0.252 C
BRANCH   6   7
HETATM    7  O2  UNL     1     -15.885  79.342  -0.043  1.00  0.00    -0.290 OA
BRANCH   7   8
HETATM    8  C8  UNL     1     -15.866  80.662  -0.393  1.00  0.00     0.373 C
HETATM    9  N3  UNL     1     -17.016  81.212  -1.018  1.00  0.00    -0.032 NA
HETATM   10  O3  UNL     1     -14.833  81.337  -0.148  1.00  0.00    -0.242 OA
ENDBRANCH   7   8
ENDBRANCH   6   7
BRANCH   6  11
HETATM   11  C9  UNL     1     -15.023  77.592  -1.385  1.00  0.00     0.262 C
HETATM   12  N4  UNL     1     -16.010  77.857  -2.365  1.00  0.00    -0.060 NA
HETATM   13  O4  UNL     1     -14.333  76.537  -1.510  1.00  0.00    -0.274 OA
ENDBRANCH   6  11
ENDBRANCH   4   6
ENDBRANCH   1   4
BRANCH   1  14
HETATM   14  C3  UNL     1     -15.148  78.629   3.182  1.00  0.00     0.259 C
BRANCH  14  15
HETATM   15  C4  UNL     1     -15.787  79.960   3.369  1.00  0.00     0.195 C
BRANCH  15  16
HETATM   16  O1  UNL     1     -16.625  79.930   4.469  1.00  0.00    -0.388 OA
BRANCH  16  17
HETATM   17  C5  UNL     1     -16.024  79.660   5.669  1.00  0.00     0.195 C
BRANCH  17  18
HETATM   18  C6  UNL     1     -16.848  80.346   6.772  1.00  0.00     0.255 C
BRANCH  18  19
HETATM   19  N2  UNL     1     -18.263  80.146   6.558  1.00  0.00    -0.077 N
ATOM     20  H23 UNL     1     -18.820  80.863   7.023  1.00  0.00     0.274 HD
ATOM     21  H22 UNL     1     -18.530  80.343   5.593  1.00  0.00     0.274 HD
ATOM     22  H21 UNL     1     -18.545  79.208   6.843  1.00  0.00     0.274 HD
ENDBRANCH  18  19
ENDBRANCH  17  18
ENDBRANCH  16  17
ENDBRANCH  15  16
ENDBRANCH  14  15
ENDBRANCH   1  14
TORSDOF 11
ENDMDL