MODEL 1
REMARK VINA RESULT: -7.223395173      0.000      0.000
REMARK  10 active torsions:
REMARK  status: ('A' for Active; 'I' for Inactive)
REMARK    1  A    between atoms: C1_2  and  C2_4
REMARK    2  A    between atoms: C2_4  and  O2_5
REMARK    3  A    between atoms: O2_5  and  C3_6
REMARK    4  A    between atoms: C3_6  and  C4_7
REMARK    5  A    between atoms: C4_7  and  O3_8
REMARK    6  A    between atoms: O3_8  and  C5_9
REMARK    7  A    between atoms: C5_9  and  C6_10
REMARK    8  A    between atoms: C5_9  and  C7_13
REMARK    9  A    between atoms: C8_15  and  C9_16
REMARK   10  A    between atoms: C9_16  and  N4_17
ROOT
HETATM    1  C5  UNL     1     -13.940  78.500   1.214  1.00  0.00     0.257 C
ENDROOT
BRANCH   1   2
HETATM    2  O3  UNL     1     -14.331  78.924  -0.032  1.00  0.00    -0.369 OA
BRANCH   2   3
HETATM    3  C4  UNL     1     -14.944  77.998  -0.829  1.00  0.00     0.195 C
BRANCH   3   4
HETATM    4  C3  UNL     1     -16.257  78.449  -1.435  1.00  0.00     0.194 C
BRANCH   4   5
HETATM    5  O2  UNL     1     -16.231  78.492  -2.801  1.00  0.00    -0.380 OA
BRANCH   5   6
HETATM    6  C2  UNL     1     -16.042  77.322  -3.471  1.00  0.00     0.267 C
BRANCH   6   7
HETATM    7  C1  UNL     1     -16.299  77.353  -4.910  1.00  0.00     0.254 C
HETATM    8  N1  UNL     1     -15.594  76.462  -5.798  1.00  0.00    -0.060 NA
HETATM    9  O1  UNL     1     -17.110  78.117  -5.452  1.00  0.00    -0.275 OA
ENDBRANCH   6   7
ENDBRANCH   5   6
ENDBRANCH   4   5
ENDBRANCH   3   4
ENDBRANCH   2   3
ENDBRANCH   1   2
BRANCH   1  10
HETATM   10  C6  UNL     1     -14.238  77.063   1.399  1.00  0.00     0.265 C
HETATM   11  N2  UNL     1     -15.515  76.648   1.875  1.00  0.00    -0.059 NA
HETATM   12  O4  UNL     1     -13.439  76.162   1.166  1.00  0.00    -0.274 OA
ENDBRANCH   1  10
BRANCH   1  13
HETATM   13  C7  UNL     1     -14.781  79.278   2.197  1.00  0.00     0.059 C
HETATM   14  N3  UNL     1     -15.639  80.279   1.674  1.00  0.00    -0.104 NA
HETATM   15  C8  UNL     1     -14.769  79.068   3.493  1.00  0.00     0.025 C
BRANCH  15  16
HETATM   16  C9  UNL     1     -15.637  79.893   4.372  1.00  0.00     0.258 C
BRANCH  16  17
HETATM   17  N4  UNL     1     -17.000  79.394   4.365  1.00  0.00    -0.076 N
ATOM     18  H43 UNL     1     -17.156  78.714   5.108  1.00  0.00     0.274 HD
ATOM     19  H42 UNL     1     -17.664  80.107   4.666  1.00  0.00     0.274 HD
ATOM     20  H41 UNL     1     -17.242  79.016   3.450  1.00  0.00     0.274 HD
ENDBRANCH  16  17
ENDBRANCH  15  16
ENDBRANCH   1  13
TORSDOF 10
ENDMDL