MODEL 5
REMARK VINA RESULT: -6.478714138      1.768      3.837
REMARK  12 active torsions:
REMARK  status: ('A' for Active; 'I' for Inactive)
REMARK    1  A    between atoms: N1_1  and  C1_5
REMARK    2  A    between atoms: C1_5  and  C2_6
REMARK       I    between atoms: C2_6  and  N2_8
REMARK    3  A    between atoms: N2_8  and  C3_10
REMARK    4  A    between atoms: C3_10  and  O2_11
REMARK    5  A    between atoms: C3_10  and  C4_13
REMARK    6  A    between atoms: C4_13  and  C5_14
REMARK    7  A    between atoms: C5_14  and  N3_15
REMARK    8  A    between atoms: C5_14  and  C6_19
REMARK       I    between atoms: C6_19  and  N4_21
REMARK    9  A    between atoms: N4_21  and  C7_23
REMARK   10  A    between atoms: C7_23  and  C8_24
REMARK   11  A    between atoms: C8_24  and  C9_25
REMARK   12  A    between atoms: C9_25  and  O4_26
ROOT
HETATM    1  C5  UNL     1     -16.709  80.622  -0.383  1.00  0.00     0.282 C
ENDROOT
BRANCH   1   2
HETATM    2  C4  UNL     1     -16.129  79.880  -1.625  1.00  0.00     0.126 C
BRANCH   2   3
HETATM    3  C3  UNL     1     -16.376  78.462  -1.454  1.00  0.00     0.120 C
BRANCH   3   4
HETATM    4  N2  UNL     1     -15.470  77.440  -1.782  1.00  0.00    -0.310 N
HETATM    5  C2  UNL     1     -14.625  76.758  -0.926  1.00  0.00     0.248 C
HETATM    6  O1  UNL     1     -13.902  75.827  -1.452  1.00  0.00    -0.271 OA
ATOM      7  H2  UNL     1     -15.431  77.170  -2.765  1.00  0.00     0.170 HD
BRANCH   5   8
HETATM    8  C1  UNL     1     -14.484  77.001   0.506  1.00  0.00     0.332 C
BRANCH   8   9
HETATM    9  N1  UNL     1     -13.354  77.928   0.727  1.00  0.00    -0.071 N
ATOM     10  H13 UNL     1     -13.201  78.551  -0.066  1.00  0.00     0.274 HD
ATOM     11  H12 UNL     1     -13.567  78.638   1.427  1.00  0.00     0.274 HD
ATOM     12  H11 UNL     1     -12.523  77.387   0.963  1.00  0.00     0.274 HD
ENDBRANCH   8   9
ENDBRANCH   5   8
ENDBRANCH   3   4
BRANCH   3  13
HETATM   13  O2  UNL     1     -17.532  78.094  -0.951  1.00  0.00    -0.349 OA
ATOM     14  H2  UNL     1     -17.555  77.897  -0.022  1.00  0.00     0.219 HD
ENDBRANCH   3  13
ENDBRANCH   2   3
ENDBRANCH   1   2
BRANCH   1  15
HETATM   15  N3  UNL     1     -17.143  81.898  -0.796  1.00  0.00    -0.066 N
ATOM     16  H33 UNL     1     -16.625  82.654  -0.348  1.00  0.00     0.275 HD
ATOM     17  H32 UNL     1     -16.886  82.108  -1.761  1.00  0.00     0.275 HD
ATOM     18  H31 UNL     1     -18.148  81.960  -0.634  1.00  0.00     0.275 HD
ENDBRANCH   1  15
BRANCH   1  19
HETATM   19  C6  UNL     1     -15.692  80.536   0.669  1.00  0.00     0.248 C
HETATM   20  O3  UNL     1     -14.521  80.932   0.328  1.00  0.00    -0.271 OA
HETATM   21  N4  UNL     1     -15.911  80.065   1.968  1.00  0.00    -0.359 N
ATOM     22  H4  UNL     1     -16.852  79.752   2.205  1.00  0.00     0.162 HD
BRANCH  21  23
HETATM   23  C7  UNL     1     -14.892  79.990   3.005  1.00  0.00     0.125 C
BRANCH  23  24
HETATM   24  C8  UNL     1     -15.293  79.013   4.056  1.00  0.00     0.046 C
BRANCH  24  25
HETATM   25  C9  UNL     1     -16.027  79.822   5.137  1.00  0.00     0.165 C
BRANCH  25  26
HETATM   26  O4  UNL     1     -17.390  79.800   4.846  1.00  0.00    -0.401 OA
ATOM     27  H4  UNL     1     -17.852  79.482   5.613  1.00  0.00     0.209 HD
ENDBRANCH  25  26
ENDBRANCH  24  25
ENDBRANCH  23  24
ENDBRANCH  21  23
ENDBRANCH   1  19
TORSDOF 12
ENDMDL