MODEL 3
REMARK VINA RESULT: -6.114959492      1.253      1.276
REMARK  10 active torsions:
REMARK  status: ('A' for Active; 'I' for Inactive)
REMARK    1  A    between atoms: C2_2  and  C3_3
REMARK    2  A    between atoms: C2_2  and  O1_8
REMARK    3  A    between atoms: C2_2  and  C9_19
REMARK    4  A    between atoms: C3_3  and  N1_4
REMARK    5  A    between atoms: O1_8  and  C4_9
REMARK    6  A    between atoms: C4_9  and  C5_10
REMARK    7  A    between atoms: C5_10  and  O2_11
REMARK    8  A    between atoms: O2_11  and  C6_12
REMARK    9  A    between atoms: C6_12  and  C7_13
REMARK   10  A    between atoms: C7_13  and  N2_14
REMARK       I    between atoms: N2_14  and  C8_16
ROOT
HETATM    1  O1  UNL     1     -15.222  79.413   1.080  1.00  0.00    -0.367 OA
ENDROOT
BRANCH   1   2
HETATM    2  C2  UNL     1     -14.733  78.512   1.916  1.00  0.00     0.158 C
HETATM    3  C1  UNL     1     -15.688  77.456   2.446  1.00  0.00     0.058 C
BRANCH   2   4
HETATM    4  C3  UNL     1     -14.280  79.283   3.180  1.00  0.00     0.276 C
BRANCH   4   5
HETATM    5  N1  UNL     1     -15.401  79.797   3.904  1.00  0.00    -0.076 N
ATOM      6  H13 UNL     1     -15.105  80.352   4.707  1.00  0.00     0.274 HD
ATOM      7  H12 UNL     1     -15.884  80.527   3.379  1.00  0.00     0.274 HD
ATOM      8  H11 UNL     1     -16.038  79.051   4.180  1.00  0.00     0.274 HD
ENDBRANCH   4   5
ENDBRANCH   2   4
BRANCH   2   9
HETATM    9  C9  UNL     1     -13.510  77.781   1.488  1.00  0.00     0.267 C
HETATM   10  N4  UNL     1     -13.661  76.407   1.155  1.00  0.00    -0.059 NA
HETATM   11  O4  UNL     1     -12.398  78.261   1.400  1.00  0.00    -0.273 OA
ENDBRANCH   2   9
ENDBRANCH   1   2
BRANCH   1  12
HETATM   12  C4  UNL     1     -15.136  79.409  -0.241  1.00  0.00     0.195 C
BRANCH  12  13
HETATM   13  C5  UNL     1     -16.020  80.322  -1.039  1.00  0.00     0.193 C
BRANCH  13  14
HETATM   14  O2  UNL     1     -16.290  79.622  -2.263  1.00  0.00    -0.387 OA
BRANCH  14  15
HETATM   15  C6  UNL     1     -16.267  78.279  -2.066  1.00  0.00     0.187 C
BRANCH  15  16
HETATM   16  C7  UNL     1     -15.960  77.359  -3.180  1.00  0.00     0.150 C
BRANCH  16  17
HETATM   17  N2  UNL     1     -16.535  77.608  -4.445  1.00  0.00    -0.343 N
HETATM   18  C8  UNL     1     -16.038  77.410  -5.718  1.00  0.00     0.328 C
HETATM   19  N3  UNL     1     -16.916  77.781  -6.831  1.00  0.00    -0.040 NA
HETATM   20  O3  UNL     1     -14.932  76.953  -6.027  1.00  0.00    -0.251 OA
ATOM     21  H2  UNL     1     -17.476  78.002  -4.414  1.00  0.00     0.163 HD
ENDBRANCH  16  17
ENDBRANCH  15  16
ENDBRANCH  14  15
ENDBRANCH  13  14
ENDBRANCH  12  13
ENDBRANCH   1  12
TORSDOF 10
ENDMDL