MODEL 4
REMARK VINA RESULT: -6.700742488      1.601      5.770
REMARK  10 active torsions:
REMARK  status: ('A' for Active; 'I' for Inactive)
REMARK    1  A    between atoms: C1_2  and  O2_4
REMARK    2  A    between atoms: O2_4  and  C2_5
REMARK    3  A    between atoms: C2_5  and  C3_6
REMARK    4  A    between atoms: C3_6  and  C4_7
REMARK    5  A    between atoms: C4_7  and  N3_12
REMARK    6  A    between atoms: C5_8  and  C6_9
REMARK    7  A    between atoms: N3_12  and  C7_14
REMARK    8  A    between atoms: C7_14  and  C8_15
REMARK    9  A    between atoms: C8_15  and  C9_17
REMARK   10  A    between atoms: C9_17  and  N4_18
ROOT
HETATM    1  C4  UNL     1     -14.806  79.555   2.225  1.00  0.00     0.012 C
HETATM    2  C5  UNL     1     -13.969  78.567   2.080  1.00  0.00     0.095 C
ENDROOT
BRANCH   1   3
HETATM    3  C3  UNL     1     -15.769  80.080   1.239  1.00  0.00     0.083 C
BRANCH   3   4
HETATM    4  C2  UNL     1     -15.122  81.079   0.298  1.00  0.00     0.186 C
BRANCH   4   5
HETATM    5  O2  UNL     1     -15.278  80.757  -1.057  1.00  0.00    -0.306 OA
BRANCH   5   6
HETATM    6  C1  UNL     1     -16.409  80.265  -1.668  1.00  0.00     0.372 C
HETATM    7  N1  UNL     1     -16.477  78.907  -2.153  1.00  0.00    -0.032 NA
HETATM    8  O1  UNL     1     -17.393  81.032  -1.794  1.00  0.00    -0.242 OA
ENDBRANCH   5   6
ENDBRANCH   4   5
ENDBRANCH   3   4
ENDBRANCH   1   3
BRANCH   1   9
HETATM    9  N3  UNL     1     -14.802  80.233   3.518  1.00  0.00    -0.386 N
ATOM     10  H3  UNL     1     -14.537  81.217   3.573  1.00  0.00     0.159 HD
BRANCH   9  11
HETATM   11  C7  UNL     1     -15.167  79.526   4.715  1.00  0.00     0.199 C
BRANCH  11  12
HETATM   12  C8  UNL     1     -16.513  79.925   5.184  1.00  0.00     0.169 C
HETATM   13  O4  UNL     1     -17.389  80.109   4.367  1.00  0.00    -0.294 OA
BRANCH  12  14
HETATM   14  C9  UNL     1     -16.826  80.108   6.619  1.00  0.00     0.309 C
BRANCH  14  15
HETATM   15  N4  UNL     1     -18.236  80.198   6.836  1.00  0.00    -0.073 N
ATOM     16  H43 UNL     1     -18.754  79.627   6.168  1.00  0.00     0.274 HD
ATOM     17  H42 UNL     1     -18.513  79.725   7.696  1.00  0.00     0.274 HD
ATOM     18  H41 UNL     1     -18.552  81.168   6.824  1.00  0.00     0.274 HD
ENDBRANCH  14  15
ENDBRANCH  12  14
ENDBRANCH  11  12
ENDBRANCH   9  11
ENDBRANCH   1   9
BRANCH   2  19
HETATM   19  C6  UNL     1     -13.759  77.728   0.924  1.00  0.00     0.256 C
HETATM   20  N2  UNL     1     -13.725  76.289   1.074  1.00  0.00    -0.058 NA
HETATM   21  O3  UNL     1     -13.596  78.127  -0.241  1.00  0.00    -0.272 OA
ENDBRANCH   2  19
TORSDOF 10
ENDMDL