MODEL 2
REMARK VINA RESULT: -6.601154949      2.256      6.945
REMARK  11 active torsions:
REMARK  status: ('A' for Active; 'I' for Inactive)
REMARK    1  A    between atoms: O1_2  and  C2_3
REMARK    2  A    between atoms: C2_3  and  C3_4
REMARK    3  A    between atoms: C3_4  and  N1_5
REMARK    4  A    between atoms: N1_5  and  C4_8
REMARK    5  A    between atoms: C4_8  and  C5_9
REMARK       I    between atoms: C5_9  and  N2_11
REMARK    6  A    between atoms: N2_11  and  C6_13
REMARK    7  A    between atoms: C6_13  and  C7_14
REMARK    8  A    between atoms: C7_14  and  O3_15
REMARK    9  A    between atoms: C7_14  and  C8_17
REMARK   10  A    between atoms: C7_14  and  C9_22
REMARK   11  A    between atoms: C8_17  and  N3_18
ROOT
HETATM    1  C5  UNL     1     -16.113  79.481  -1.460  1.00  0.00     0.243 C
HETATM    2  O2  UNL     1     -16.387  80.689  -1.355  1.00  0.00    -0.272 OA
HETATM    3  N2  UNL     1     -15.676  78.654  -0.426  1.00  0.00    -0.356 N
ATOM      4  H2  UNL     1     -15.500  77.680  -0.671  1.00  0.00     0.162 HD
ENDROOT
BRANCH   3   5
HETATM    5  C6  UNL     1     -15.446  79.012   0.929  1.00  0.00     0.172 C
BRANCH   5   6
HETATM    6  C7  UNL     1     -14.973  77.948   1.865  1.00  0.00     0.175 C
BRANCH   6   7
HETATM    7  O3  UNL     1     -15.925  76.986   2.053  1.00  0.00    -0.377 OA
ATOM      8  H3  UNL     1     -15.621  76.304   2.642  1.00  0.00     0.211 HD
ENDBRANCH   6   7
BRANCH   6   9
HETATM    9  C8  UNL     1     -14.734  78.608   3.220  1.00  0.00     0.278 C
BRANCH   9  10
HETATM   10  N3  UNL     1     -14.409  79.996   3.141  1.00  0.00    -0.076 N
ATOM     11  H33 UNL     1     -14.399  80.306   2.169  1.00  0.00     0.274 HD
ATOM     12  H32 UNL     1     -15.178  80.564   3.495  1.00  0.00     0.274 HD
ATOM     13  H31 UNL     1     -13.536  80.245   3.605  1.00  0.00     0.274 HD
ENDBRANCH   9  10
ENDBRANCH   6   9
BRANCH   6  14
HETATM   14  C9  UNL     1     -13.708  77.399   1.317  1.00  0.00     0.269 C
HETATM   15  N4  UNL     1     -13.711  76.121   0.730  1.00  0.00    -0.059 NA
HETATM   16  O4  UNL     1     -12.671  78.079   1.387  1.00  0.00    -0.273 OA
ENDBRANCH   6  14
ENDBRANCH   5   6
ENDBRANCH   3   5
BRANCH   1  17
HETATM   17  C4  UNL     1     -16.280  78.892  -2.837  1.00  0.00     0.334 C
BRANCH  17  18
HETATM   18  N1  UNL     1     -16.275  77.453  -2.734  1.00  0.00    -0.065 N
ATOM     19  H12 UNL     1     -17.153  77.079  -2.373  1.00  0.00     0.277 HD
ATOM     20  H11 UNL     1     -15.667  77.111  -1.990  1.00  0.00     0.277 HD
BRANCH  18  21
HETATM   21  C3  UNL     1     -15.926  76.917  -4.037  1.00  0.00     0.259 C
BRANCH  21  22
HETATM   22  C2  UNL     1     -16.574  77.788  -5.116  1.00  0.00     0.194 C
BRANCH  22  23
HETATM   23  O1  UNL     1     -16.209  77.276  -6.341  1.00  0.00    -0.394 OA
HETATM   24  C1  UNL     1     -14.929  76.766  -6.355  1.00  0.00     0.201 C
ENDBRANCH  22  23
ENDBRANCH  21  22
ENDBRANCH  18  21
ENDBRANCH  17  18
ENDBRANCH   1  17
TORSDOF 11
ENDMDL