MODEL 2
REMARK VINA RESULT: -6.789844478      1.246      1.599
REMARK  8 active torsions:
REMARK  status: ('A' for Active; 'I' for Inactive)
REMARK    1  A    between atoms: O1_2  and  C2_3
REMARK    2  A    between atoms: C2_3  and  C3_4
REMARK    3  A    between atoms: C2_3  and  C9_16
REMARK    4  A    between atoms: C3_4  and  O2_5
REMARK    5  A    between atoms: O2_5  and  C4_6
REMARK    6  A    between atoms: C4_6  and  C5_7
REMARK       I    between atoms: C5_7  and  N1_9
REMARK    7  A    between atoms: N1_9  and  C6_11
REMARK    8  A    between atoms: C6_11  and  C7_12
ROOT
HETATM    1  C4  UNL     1     -15.445  80.925  -0.301  1.00  0.00     0.270 C
ENDROOT
BRANCH   1   2
HETATM    2  O2  UNL     1     -14.752  79.978   0.370  1.00  0.00    -0.379 OA
BRANCH   2   3
HETATM    3  C3  UNL     1     -14.989  79.787   1.689  1.00  0.00     0.209 C
BRANCH   3   4
HETATM    4  C2  UNL     1     -14.845  78.356   2.145  1.00  0.00     0.233 C
BRANCH   4   5
HETATM    5  O1  UNL     1     -14.697  78.261   3.515  1.00  0.00    -0.380 OA
HETATM    6  C1  UNL     1     -15.226  79.322   4.203  1.00  0.00     0.202 C
ENDBRANCH   4   5
BRANCH   4   7
HETATM    7  C9  UNL     1     -13.739  77.645   1.492  1.00  0.00     0.262 C
HETATM    8  N4  UNL     1     -13.991  76.394   0.879  1.00  0.00    -0.060 NA
HETATM    9  O4  UNL     1     -12.556  78.071   1.433  1.00  0.00    -0.274 OA
ENDBRANCH   4   7
ENDBRANCH   3   4
ENDBRANCH   2   3
ENDBRANCH   1   2
BRANCH   1  10
HETATM   10  C5  UNL     1     -16.373  80.454  -1.354  1.00  0.00     0.241 C
HETATM   11  O3  UNL     1     -17.362  81.062  -1.789  1.00  0.00    -0.271 OA
HETATM   12  N1  UNL     1     -16.099  79.160  -1.929  1.00  0.00    -0.354 N
ATOM     13  H1  UNL     1     -15.296  78.621  -1.604  1.00  0.00     0.162 HD
BRANCH  12  14
HETATM   14  C6  UNL     1     -16.950  78.625  -2.958  1.00  0.00     0.177 C
BRANCH  14  15
HETATM   15  C7  UNL     1     -16.208  77.639  -3.757  1.00  0.00     0.055 C
HETATM   16  N2  UNL     1     -15.322  76.715  -3.136  1.00  0.00    -0.104 NA
HETATM   17  C8  UNL     1     -16.359  77.599  -5.066  1.00  0.00     0.123 C
HETATM   18  N3  UNL     1     -15.661  76.658  -5.884  1.00  0.00    -0.113 NA
ENDBRANCH  14  15
ENDBRANCH  12  14
ENDBRANCH   1  10
TORSDOF 8
ENDMDL