MODEL 4
REMARK VINA RESULT: -6.362722771      1.496      2.938
REMARK  11 active torsions:
REMARK  status: ('A' for Active; 'I' for Inactive)
REMARK    1  A    between atoms: C1_2  and  C2_4
REMARK    2  A    between atoms: C3_5  and  N2_6
REMARK    3  A    between atoms: C3_5  and  C8_15
REMARK    4  A    between atoms: C4_8  and  C5_10
REMARK    5  A    between atoms: C5_10  and  C6_11
REMARK    6  A    between atoms: C6_11  and  C7_12
REMARK    7  A    between atoms: C7_12  and  O2_13
REMARK    8  A    between atoms: C8_15  and  O3_16
REMARK    9  A    between atoms: C8_15  and  C9_18
REMARK   10  A    between atoms: C9_18  and  O4_19
REMARK   11  A    between atoms: O4_19  and  N4_20
ROOT
HETATM    1  C2  UNL     1     -14.809  78.147   1.453  1.00  0.00     0.098 C
HETATM    2  C3  UNL     1     -15.509  79.191   1.732  1.00  0.00     0.046 C
ENDROOT
BRANCH   2   3
HETATM    3  N2  UNL     1     -16.016  79.318   3.081  1.00  0.00    -0.349 N
HETATM    4  C4  UNL     1     -15.346  79.836   4.026  1.00  0.00     0.093 C
HETATM    5  N3  UNL     1     -14.034  80.325   3.791  1.00  0.00    -0.088 NA
ATOM      6  H2  UNL     1     -16.956  78.975   3.282  1.00  0.00     0.166 HD
BRANCH   4   7
HETATM    7  C5  UNL     1     -15.941  79.926   5.375  1.00  0.00     0.075 C
BRANCH   7   8
HETATM    8  C6  UNL     1     -17.447  80.024   5.339  1.00  0.00     0.033 C
BRANCH   8   9
HETATM    9  C7  UNL     1     -17.931  80.227   6.767  1.00  0.00     0.164 C
BRANCH   9  10
HETATM   10  O2  UNL     1     -19.313  80.442   6.797  1.00  0.00    -0.401 OA
ATOM     11  H2  UNL     1     -19.676  80.420   5.919  1.00  0.00     0.209 HD
ENDBRANCH   9  10
ENDBRANCH   8   9
ENDBRANCH   7   8
ENDBRANCH   4   7
ENDBRANCH   2   3
BRANCH   2  12
HETATM   12  C8  UNL     1     -15.852  80.270   0.831  1.00  0.00     0.194 C
BRANCH  12  13
HETATM   13  O3  UNL     1     -14.627  80.917   0.468  1.00  0.00    -0.387 OA
ATOM     14  H3  UNL     1     -14.698  81.150  -0.450  1.00  0.00     0.210 HD
ENDBRANCH  12  13
BRANCH  12  15
HETATM   15  C9  UNL     1     -16.378  79.755  -0.513  1.00  0.00     0.238 C
BRANCH  15  16
HETATM   16  O4  UNL     1     -16.609  80.812  -1.386  1.00  0.00    -0.284 OA
BRANCH  16  17
HETATM   17  N4  UNL     1     -17.054  81.878  -0.694  1.00  0.00    -0.311 N
ATOM     18  H42 UNL     1     -16.615  82.241   0.152  1.00  0.00     0.184 HD
ATOM     19  H41 UNL     1     -17.886  82.256  -1.148  1.00  0.00     0.184 HD
ENDBRANCH  16  17
ENDBRANCH  15  16
ENDBRANCH  12  15
ENDBRANCH   2  12
BRANCH   1  20
HETATM   20  C1  UNL     1     -14.185  77.760   0.212  1.00  0.00     0.256 C
HETATM   21  N1  UNL     1     -14.453  76.491  -0.422  1.00  0.00    -0.058 NA
HETATM   22  O1  UNL     1     -13.378  78.483  -0.393  1.00  0.00    -0.272 OA
ENDBRANCH   1  20
TORSDOF 11
ENDMDL