MODEL 2
REMARK VINA RESULT: -8.526870046      2.057      2.758
REMARK  7 active torsions:
REMARK  status: ('A' for Active; 'I' for Inactive)
REMARK    1  A    between atoms: C2_2  and  C4_5
REMARK    2  A    between atoms: C4_5  and  C5_6
REMARK    3  A    between atoms: N2_11  and  C9_12
REMARK    4  A    between atoms: C9_12  and  C10_13
REMARK    5  A    between atoms: C10_13  and  C11_14
REMARK    6  A    between atoms: C11_14  and  C12_15
REMARK    7  A    between atoms: C18_25  and  O2_27
ROOT
HETATM    1  C1  UNL     1     -28.853  22.960  -0.603  1.00  0.00     0.025 C
HETATM    2  C2  UNL     1     -27.853  21.883  -0.238  1.00  0.00     0.090 C
HETATM    3  C3  UNL     1     -27.128  21.508  -1.461  1.00  0.00     0.063 C
HETATM    4  N1  UNL     1     -26.570  21.195  -2.427  1.00  0.00    -0.197 NA
ENDROOT
BRANCH   2   5
HETATM    5  C4  UNL     1     -26.863  22.480   0.710  1.00  0.00     0.044 C
BRANCH   5   6
HETATM    6  C5  UNL     1     -26.360  21.484   1.736  1.00  0.00     0.088 C
HETATM    7  C6  UNL     1     -27.380  21.251   2.827  1.00  0.00     0.034 C
HETATM    8  C7  UNL     1     -27.393  22.628   3.501  1.00  0.00     0.105 C
HETATM    9  C8  UNL     1     -25.960  22.976   3.480  1.00  0.00     0.220 C
HETATM   10  O1  UNL     1     -25.397  23.831   4.178  1.00  0.00    -0.273 OA
HETATM   11  N2  UNL     1     -25.300  22.160   2.508  1.00  0.00    -0.347 N
BRANCH  11  12
HETATM   12  C9  UNL     1     -23.930  21.970   2.227  1.00  0.00     0.126 C
BRANCH  12  13
HETATM   13  C10 UNL     1     -23.270  20.713   2.608  1.00  0.00     0.021 C
BRANCH  13  14
HETATM   14  C11 UNL     1     -23.571  20.283   4.021  1.00  0.00     0.014 C
BRANCH  14  15
HETATM   15  C12 UNL     1     -22.392  19.581   4.659  1.00  0.00     0.056 C
HETATM   16  C13 UNL     1     -21.878  18.510   3.746  1.00  0.00    -0.010 A
HETATM   17  C14 UNL     1     -20.919  18.523   2.745  1.00  0.00     0.116 A
HETATM   18  C15 UNL     1     -22.359  17.225   3.810  1.00  0.00     0.034 A
HETATM   19  N3  UNL     1     -20.868  17.273   2.263  1.00  0.00    -0.311 N
HETATM   20  N4  UNL     1     -21.717  16.504   2.889  1.00  0.00    -0.305 N
ATOM     21  H3  UNL     1     -20.250  16.966   1.512  1.00  0.00     0.186 HD
ATOM     22  H4  UNL     1     -21.866  15.512   2.703  1.00  0.00     0.186 HD
HETATM   23  C16 UNL     1     -23.408  16.938   4.820  1.00  0.00     0.062 C
HETATM   24  C17 UNL     1     -22.983  17.590   6.101  1.00  0.00     0.044 C
HETATM   25  C18 UNL     1     -22.701  19.049   6.020  1.00  0.00     0.062 C
HETATM   26  C19 UNL     1     -23.858  19.783   6.682  1.00  0.00     0.046 C
BRANCH  25  27
HETATM   27  O2  UNL     1     -21.585  19.293   6.858  1.00  0.00    -0.390 OA
ATOM     28  H2  UNL     1     -21.857  19.173   7.761  1.00  0.00     0.210 HD
ENDBRANCH  25  27
ENDBRANCH  14  15
ENDBRANCH  13  14
ENDBRANCH  12  13
ENDBRANCH  11  12
ENDBRANCH   5   6
ENDBRANCH   2   5
TORSDOF 7
ENDMDL