MODEL 2
REMARK VINA RESULT: -7.292116735      4.232      5.535
REMARK  10 active torsions:
REMARK  status: ('A' for Active; 'I' for Inactive)
REMARK    1  A    between atoms: C2_2  and  C3_3
REMARK    2  A    between atoms: C3_3  and  C4_4
REMARK    3  A    between atoms: C5_5  and  C6_6
REMARK    4  A    between atoms: C6_6  and  C7_7
REMARK    5  A    between atoms: C7_7  and  C8_8
REMARK    6  A    between atoms: C8_8  and  O1_9
REMARK    7  A    between atoms: C15_17  and  C16_18
REMARK    8  A    between atoms: C16_18  and  C17_19
REMARK    9  A    between atoms: C17_19  and  S1_20
REMARK   10  A    between atoms: N1_24  and  O3_25
ROOT
HETATM    1  C8  UNL     1     -20.945  20.863   0.625  1.00  0.00     0.090 C
HETATM    2  C9  UNL     1     -19.724  21.516   1.231  1.00  0.00     0.019 C
HETATM    3  C10 UNL     1     -18.456  21.166   0.486  1.00  0.00     0.013 C
HETATM    4  C11 UNL     1     -19.815  23.024   1.265  1.00  0.00     0.007 C
HETATM    5  C12 UNL     1     -20.249  23.604  -0.075  1.00  0.00     0.003 C
HETATM    6  C13 UNL     1     -21.534  22.993  -0.518  1.00  0.00     0.038 C
HETATM    7  C14 UNL     1     -22.003  21.883   0.394  1.00  0.00     0.106 C
HETATM    8  C15 UNL     1     -22.851  22.311   1.517  1.00  0.00     0.115 C
HETATM    9  C19 UNL     1     -23.786  21.269   1.099  1.00  0.00     0.251 C
HETATM   10  O2  UNL     1     -24.740  20.585   1.563  1.00  0.00    -0.271 OA
HETATM   11  N1  UNL     1     -23.182  21.273  -0.187  1.00  0.00    -0.214 N
ENDROOT
BRANCH   1  12
HETATM   12  C7  UNL     1     -21.397  19.657   1.378  1.00  0.00     0.053 C
BRANCH  12  13
HETATM   13  C6  UNL     1     -20.715  19.495   2.710  1.00  0.00     0.097 C
BRANCH  13  14
HETATM   14  C5  UNL     1     -21.793  19.432   3.725  1.00  0.00    -0.106 C
HETATM   15  C4  UNL     1     -22.664  19.400   4.559  1.00  0.00    -0.107 C
BRANCH  15  16
HETATM   16  C3  UNL     1     -23.737  19.375   5.562  1.00  0.00     0.093 C
BRANCH  16  17
HETATM   17  C2  UNL     1     -23.158  19.466   6.973  1.00  0.00     0.007 C
HETATM   18  C1  UNL     1     -22.575  18.103   7.285  1.00  0.00     0.006 C
ENDBRANCH  16  17
ENDBRANCH  15  16
ENDBRANCH  13  14
ENDBRANCH  12  13
ENDBRANCH   1  12
BRANCH   1  19
HETATM   19  O1  UNL     1     -20.533  20.408  -0.652  1.00  0.00    -0.387 OA
ATOM     20  H1  UNL     1     -20.435  21.181  -1.195  1.00  0.00     0.210 HD
ENDBRANCH   1  19
BRANCH   8  21
HETATM   21  C16 UNL     1     -23.477  23.678   1.352  1.00  0.00     0.027 C
BRANCH  21  22
HETATM   22  C17 UNL     1     -23.708  24.281   2.745  1.00  0.00     0.074 C
BRANCH  22  23
HETATM   23  S1  UNL     1     -25.425  23.926   3.273  1.00  0.00    -0.173 SA
HETATM   24  C18 UNL     1     -25.445  22.558   4.433  1.00  0.00     0.089 C
ENDBRANCH  22  23
ENDBRANCH  21  22
ENDBRANCH   8  21
BRANCH  11  25
HETATM   25  O3  UNL     1     -23.593  20.861  -1.419  1.00  0.00    -0.284 OA
ATOM     26  H3  UNL     1     -24.415  20.653  -1.847  1.00  0.00     0.245 HD
ENDBRANCH  11  25
TORSDOF 10
ENDMDL