MODEL 2
REMARK VINA RESULT: -8.486038512      2.128      3.279
REMARK  7 active torsions:
REMARK  status: ('A' for Active; 'I' for Inactive)
REMARK    1  A    between atoms: C3_5  and  N2_6
REMARK    2  A    between atoms: C4_10  and  C5_11
REMARK    3  A    between atoms: C5_11  and  C6_12
REMARK    4  A    between atoms: C6_12  and  N3_13
REMARK    5  A    between atoms: N4_16  and  C9_17
REMARK    6  A    between atoms: C9_17  and  C11_19
REMARK    7  A    between atoms: C11_19  and  C12_20
ROOT
HETATM    1  N3  UNL     1     -28.706  22.782   4.080  1.00  0.00    -0.332 N
HETATM    2  C7  UNL     1     -27.693  23.771   4.386  1.00  0.00     0.147 C
HETATM    3  C8  UNL     1     -26.505  22.928   4.780  1.00  0.00     0.148 C
HETATM    4  N4  UNL     1     -26.640  21.749   3.962  1.00  0.00    -0.328 N
HETATM    5  C18 UNL     1     -28.005  21.628   3.611  1.00  0.00     0.320 C
HETATM    6  O1  UNL     1     -28.577  20.684   2.988  1.00  0.00    -0.247 OA
ENDROOT
BRANCH   1   7
HETATM    7  C6  UNL     1     -30.125  22.959   4.230  1.00  0.00     0.133 C
BRANCH   7   8
HETATM    8  C5  UNL     1     -30.407  23.042   5.735  1.00  0.00     0.068 C
BRANCH   8   9
HETATM    9  C4  UNL     1     -31.590  23.942   5.952  1.00  0.00     0.010 A
HETATM   10  C2  UNL     1     -32.834  23.627   6.420  1.00  0.00     0.020 A
HETATM   11  C1  UNL     1     -33.220  22.201   6.817  1.00  0.00     0.069 C
HETATM   12  N1  UNL     1     -33.712  24.603   6.523  1.00  0.00    -0.340 N
HETATM   13  C3  UNL     1     -33.332  25.830   6.165  1.00  0.00     0.142 A
ATOM     14  H1  UNL     1     -34.655  24.425   6.867  1.00  0.00     0.168 HD
HETATM   15  S1  UNL     1     -31.715  25.613   5.676  1.00  0.00    -0.057 SA
BRANCH  13  16
HETATM   16  N2  UNL     1     -34.051  26.932   6.191  1.00  0.00    -0.380 N
ATOM     17  H22 UNL     1     -34.880  27.172   5.647  1.00  0.00     0.158 HD
ATOM     18  H21 UNL     1     -33.903  27.758   6.771  1.00  0.00     0.158 HD
ENDBRANCH  13  16
ENDBRANCH   8   9
ENDBRANCH   7   8
ENDBRANCH   1   7
BRANCH   4  19
HETATM   19  C9  UNL     1     -25.559  20.805   3.541  1.00  0.00     0.085 C
HETATM   20  C10 UNL     1     -25.084  21.385   2.235  1.00  0.00     0.032 C
BRANCH  19  21
HETATM   21  C11 UNL     1     -24.505  20.799   4.592  1.00  0.00     0.029 C
BRANCH  21  22
HETATM   22  C12 UNL     1     -24.223  19.559   5.349  1.00  0.00    -0.013 C
HETATM   23  C13 UNL     1     -23.532  18.509   4.598  1.00  0.00     0.005 C
HETATM   24  C14 UNL     1     -23.067  17.351   5.501  1.00  0.00     0.000 C
HETATM   25  C15 UNL     1     -22.113  17.965   6.501  1.00  0.00     0.000 C
HETATM   26  C16 UNL     1     -22.986  18.826   7.407  1.00  0.00     0.000 C
HETATM   27  C17 UNL     1     -23.509  19.977   6.627  1.00  0.00     0.005 C
ENDBRANCH  21  22
ENDBRANCH  19  21
ENDBRANCH   4  19
TORSDOF 7
ENDMDL