MODEL 3
REMARK VINA RESULT: -8.023374953      2.753      5.016
REMARK  8 active torsions:
REMARK  status: ('A' for Active; 'I' for Inactive)
REMARK    1  A    between atoms: C2_2  and  C3_3
REMARK    2  A    between atoms: C3_3  and  C4_4
REMARK    3  A    between atoms: C4_4  and  C5_5
REMARK    4  A    between atoms: C4_4  and  N1_7
REMARK    5  A    between atoms: N1_7  and  C7_9
REMARK    6  A    between atoms: C8_12  and  N3_13
REMARK    7  A    between atoms: N3_13  and  C9_15
REMARK    8  A    between atoms: N4_18  and  C12_19
ROOT
HETATM    1  C7  UNL     1     -21.747  19.441   2.982  1.00  0.00     0.682 A
HETATM    2  N2  UNL     1     -23.031  19.859   3.051  1.00  0.00    -0.176 N
ATOM      3  H2  UNL     1     -23.498  20.145   2.190  1.00  0.00     0.186 HD
HETATM    4  C8  UNL     1     -23.718  19.914   4.203  1.00  0.00     0.132 A
HETATM    5  C16 UNL     1     -23.103  19.529   5.390  1.00  0.00     0.062 A
HETATM    6  C17 UNL     1     -23.516  19.468   6.705  1.00  0.00     0.044 A
HETATM    7  C18 UNL     1     -22.423  18.998   7.401  1.00  0.00     0.145 A
HETATM    8  O1  UNL     1     -21.439  18.797   6.559  1.00  0.00    -0.304 OA
HETATM    9  C19 UNL     1     -21.794  19.102   5.332  1.00  0.00     0.176 A
HETATM   10  N5  UNL     1     -21.162  19.072   4.133  1.00  0.00    -0.169 N
ATOM     11  H5  UNL     1     -20.194  18.754   4.103  1.00  0.00     0.186 HD
ENDROOT
BRANCH   4  12
HETATM   12  N3  UNL     1     -24.927  20.302   4.298  1.00  0.00    -0.370 N
ATOM     13  H3  UNL     1     -25.555  19.745   4.877  1.00  0.00     0.161 HD
BRANCH  12  14
HETATM   14  C9  UNL     1     -25.486  21.484   3.644  1.00  0.00     0.086 C
HETATM   15  C10 UNL     1     -25.054  22.663   4.440  1.00  0.00     0.044 C
HETATM   16  C11 UNL     1     -26.026  23.796   4.502  1.00  0.00     0.119 C
HETATM   17  N4  UNL     1     -27.307  23.306   4.839  1.00  0.00    -0.413 N
HETATM   18  C14 UNL     1     -27.858  22.315   3.985  1.00  0.00     0.119 C
HETATM   19  C15 UNL     1     -26.928  21.372   3.350  1.00  0.00     0.044 C
BRANCH  17  20
HETATM   20  C12 UNL     1     -27.626  23.208   6.222  1.00  0.00     0.112 C
HETATM   21  C13 UNL     1     -27.461  24.490   6.993  1.00  0.00     0.026 C
ENDBRANCH  17  20
ENDBRANCH  12  14
ENDBRANCH   4  12
BRANCH   1  22
HETATM   22  N1  UNL     1     -21.124  19.407   1.835  1.00  0.00    -0.221 N
ATOM     23  H1  UNL     1     -21.298  18.613   1.219  1.00  0.00     0.178 HD
BRANCH  22  24
HETATM   24  C4  UNL     1     -20.209  20.415   1.388  1.00  0.00     0.099 C
BRANCH  24  25
HETATM   25  C3  UNL     1     -20.732  21.156   0.178  1.00  0.00     0.025 C
BRANCH  25  26
HETATM   26  C2  UNL     1     -21.546  22.342   0.682  1.00  0.00    -0.002 C
HETATM   27  C1  UNL     1     -20.671  23.581   0.715  1.00  0.00     0.005 C
ENDBRANCH  25  26
ENDBRANCH  24  25
BRANCH  24  28
HETATM   28  C5  UNL     1     -18.823  19.904   1.088  1.00  0.00     0.021 C
HETATM   29  C6  UNL     1     -18.107  20.987   0.297  1.00  0.00     0.007 C
ENDBRANCH  24  28
ENDBRANCH  22  24
ENDBRANCH   1  22
TORSDOF 8
ENDMDL