MODEL 1
REMARK VINA RESULT: -8.028235671      0.000      0.000
REMARK  8 active torsions:
REMARK  status: ('A' for Active; 'I' for Inactive)
REMARK    1  A    between atoms: C2_2  and  C3_3
REMARK    2  A    between atoms: C3_3  and  N1_4
REMARK    3  A    between atoms: C3_3  and  C14_20
REMARK       I    between atoms: N1_4  and  C4_6
REMARK    4  A    between atoms: C4_6  and  C5_8
REMARK    5  A    between atoms: C5_8  and  N2_9
REMARK    6  A    between atoms: C5_8  and  C8_14
REMARK       I    between atoms: N2_9  and  C6_11
REMARK    7  A    between atoms: C14_20  and  O4_22
REMARK    8  A    between atoms: O4_22  and  C15_23
ROOT
HETATM    1  N1  UNL     1     -21.788  20.330   2.540  1.00  0.00    -0.345 N
ATOM      2  H1  UNL     1     -21.411  20.548   3.462  1.00  0.00     0.163 HD
HETATM    3  C4  UNL     1     -23.185  20.242   2.368  1.00  0.00     0.241 C
HETATM    4  O1  UNL     1     -23.585  19.962   1.166  1.00  0.00    -0.271 OA
ENDROOT
BRANCH   3   5
HETATM    5  C5  UNL     1     -24.202  20.429   3.400  1.00  0.00     0.180 C
BRANCH   5   6
HETATM    6  N2  UNL     1     -24.014  21.783   3.947  1.00  0.00    -0.348 N
HETATM    7  C6  UNL     1     -24.941  22.773   3.633  1.00  0.00     0.214 C
HETATM    8  C7  UNL     1     -24.840  24.184   4.138  1.00  0.00     0.117 C
HETATM    9  O2  UNL     1     -25.927  22.527   2.895  1.00  0.00    -0.274 OA
ATOM     10  H2  UNL     1     -23.215  21.993   4.547  1.00  0.00     0.163 HD
ENDBRANCH   5   6
BRANCH   5  11
HETATM   11  C8  UNL     1     -24.133  19.447   4.546  1.00  0.00     0.018 C
HETATM   12  C9  UNL     1     -23.602  18.115   4.066  1.00  0.00     0.007 C
HETATM   13  C10 UNL     1     -23.350  17.136   5.157  1.00  0.00     0.000 C
HETATM   14  C11 UNL     1     -22.437  17.721   6.209  1.00  0.00     0.000 C
HETATM   15  C12 UNL     1     -23.176  18.893   6.795  1.00  0.00     0.000 C
HETATM   16  C13 UNL     1     -23.472  19.956   5.759  1.00  0.00     0.007 C
ENDBRANCH   5  11
ENDBRANCH   3   5
BRANCH   1  17
HETATM   17  C3  UNL     1     -20.877  20.117   1.430  1.00  0.00     0.184 C
BRANCH  17  18
HETATM   18  C2  UNL     1     -20.011  18.880   1.703  1.00  0.00     0.031 C
HETATM   19  C1  UNL     1     -20.878  17.668   1.943  1.00  0.00     0.007 C
ENDBRANCH  17  18
BRANCH  17  20
HETATM   20  C14 UNL     1     -19.998  21.275   1.158  1.00  0.00     0.282 C
HETATM   21  O3  UNL     1     -18.821  21.062   0.772  1.00  0.00    -0.263 OA
BRANCH  20  22
HETATM   22  O4  UNL     1     -20.378  22.581   1.294  1.00  0.00    -0.310 OA
BRANCH  22  23
HETATM   23  C15 UNL     1     -21.169  23.307   0.407  1.00  0.00     0.060 C
HETATM   24  C16 UNL     1     -22.471  23.768   1.004  1.00  0.00     0.045 C
HETATM   25  C17 UNL     1     -21.488  22.553  -0.869  1.00  0.00     0.045 C
HETATM   26  C18 UNL     1     -20.340  24.525  -0.027  1.00  0.00     0.045 C
ENDBRANCH  22  23
ENDBRANCH  20  22
ENDBRANCH  17  20
ENDBRANCH   1  17
TORSDOF 8
ENDMDL