MODEL 2
REMARK VINA RESULT: -8.194503185      0.659      1.030
REMARK  8 active torsions:
REMARK  status: ('A' for Active; 'I' for Inactive)
REMARK    1  A    between atoms: C1_2  and  N1_3
REMARK    2  A    between atoms: C1_2  and  N4_17
REMARK    3  A    between atoms: N1_3  and  N2_5
REMARK    4  A    between atoms: C2_7  and  C3_8
REMARK    5  A    between atoms: C3_8  and  C4_9
REMARK    6  A    between atoms: C4_9  and  C5_10
REMARK    7  A    between atoms: C5_10  and  N3_11
REMARK    8  A    between atoms: N4_17  and  C10_19
ROOT
HETATM    1  N1  UNL     1     -22.218  20.228   0.780  1.00  0.00    -0.277 N
ATOM      2  H1  UNL     1     -21.427  20.582   0.242  1.00  0.00     0.189 HD
ENDROOT
BRANCH   1   3
HETATM    3  C1  UNL     1     -21.955  19.668   2.037  1.00  0.00     0.187 C
HETATM    4  S1  UNL     1     -20.745  18.519   2.039  1.00  0.00    -0.040 SA
BRANCH   3   5
HETATM    5  N4  UNL     1     -22.562  19.944   3.258  1.00  0.00    -0.357 N
ATOM      6  H4  UNL     1     -22.041  20.571   3.872  1.00  0.00     0.162 HD
BRANCH   5   7
HETATM    7  C10 UNL     1     -23.814  19.477   3.780  1.00  0.00     0.117 C
HETATM    8  C11 UNL     1     -24.223  20.459   4.946  1.00  0.00     0.109 C
HETATM    9  C12 UNL     1     -23.689  19.854   6.088  1.00  0.00    -0.180 C
HETATM   10  C13 UNL     1     -23.291  19.644   7.423  1.00  0.00     0.083 C
HETATM   11  C14 UNL     1     -22.747  18.173   7.409  1.00  0.00     0.038 C
HETATM   12  C15 UNL     1     -22.144  17.735   6.144  1.00  0.00    -0.026 C
HETATM   13  C16 UNL     1     -22.857  17.324   4.940  1.00  0.00    -0.006 C
HETATM   14  C17 UNL     1     -23.843  18.062   4.194  1.00  0.00    -0.001 C
ENDBRANCH   5   7
ENDBRANCH   3   5
ENDBRANCH   1   3
BRANCH   1  15
HETATM   15  N2  UNL     1     -23.494  20.332   0.213  1.00  0.00    -0.314 N
HETATM   16  C2  UNL     1     -24.115  21.453   0.110  1.00  0.00     0.080 C
ATOM     17  H2  UNL     1     -23.948  19.486  -0.131  1.00  0.00     0.185 HD
BRANCH  16  18
HETATM   18  C3  UNL     1     -25.463  21.458  -0.505  1.00  0.00     0.048 C
BRANCH  18  19
HETATM   19  C4  UNL     1     -26.436  22.227   0.376  1.00  0.00     0.035 C
BRANCH  19  20
HETATM   20  C5  UNL     1     -26.662  21.506   1.690  1.00  0.00     0.273 C
BRANCH  20  21
HETATM   21  N3  UNL     1     -27.557  22.256   2.554  1.00  0.00     0.092 N
HETATM   22  C6  UNL     1     -28.465  21.406   3.279  1.00  0.00     0.298 C
HETATM   23  C7  UNL     1     -29.288  22.319   4.190  1.00  0.00     0.198 C
HETATM   24  O1  UNL     1     -28.510  22.971   5.123  1.00  0.00    -0.388 OA
HETATM   25  C8  UNL     1     -27.154  22.792   4.924  1.00  0.00     0.198 C
HETATM   26  C9  UNL     1     -26.763  23.028   3.473  1.00  0.00     0.298 C
ENDBRANCH  20  21
ENDBRANCH  19  20
ENDBRANCH  18  19
ENDBRANCH  16  18
ENDBRANCH   1  15
TORSDOF 8
ENDMDL