MODEL 3
REMARK VINA RESULT: -7.603481191      1.110      1.644
REMARK  8 active torsions:
REMARK  status: ('A' for Active; 'I' for Inactive)
REMARK    1  A    between atoms: C2_2  and  C3_3
REMARK    2  A    between atoms: C3_3  and  C4_4
REMARK    3  A    between atoms: C4_4  and  C5_5
REMARK    4  A    between atoms: C5_5  and  N1_6
REMARK    5  A    between atoms: N1_6  and  C6_8
REMARK    6  A    between atoms: C8_13  and  N3_14
REMARK    7  A    between atoms: N3_14  and  C9_16
REMARK    8  A    between atoms: C9_16  and  C10_17
ROOT
HETATM    1  C6  UNL     1     -23.182  20.290   3.167  1.00  0.00     0.119 A
HETATM    2  N2  UNL     1     -23.602  21.468   2.593  1.00  0.00    -0.311 N
ATOM      3  H2  UNL     1     -24.369  22.070   2.894  1.00  0.00     0.176 HD
HETATM    4  S1  UNL     1     -22.580  21.691   1.302  1.00  0.00    -0.009 SA
HETATM    5  C7  UNL     1     -21.601  20.304   1.458  1.00  0.00     0.079 A
HETATM    6  C8  UNL     1     -20.509  19.801   0.723  1.00  0.00     0.120 A
HETATM    7  N5  UNL     1     -19.926  18.652   1.097  1.00  0.00    -0.351 N
ATOM      8  H5  UNL     1     -19.134  18.265   0.583  1.00  0.00     0.166 HD
HETATM    9  C16 UNL     1     -20.424  18.040   2.164  1.00  0.00     0.090 A
HETATM   10  C17 UNL     1     -21.489  18.490   2.916  1.00  0.00     0.034 A
HETATM   11  C18 UNL     1     -22.128  19.691   2.555  1.00  0.00     0.032 A
ENDROOT
BRANCH   6  12
HETATM   12  N3  UNL     1     -20.157  20.507  -0.268  1.00  0.00    -0.375 N
ATOM     13  H3  UNL     1     -20.800  20.502  -1.060  1.00  0.00     0.161 HD
BRANCH  12  14
HETATM   14  C9  UNL     1     -18.994  21.303  -0.427  1.00  0.00     0.127 C
BRANCH  14  15
HETATM   15  C10 UNL     1     -19.263  22.515  -1.304  1.00  0.00     0.021 C
HETATM   16  C11 UNL     1     -20.451  22.294  -2.218  1.00  0.00     0.013 C
HETATM   17  C12 UNL     1     -20.588  23.563  -3.051  1.00  0.00     0.045 C
HETATM   18  C13 UNL     1     -19.366  23.781  -3.874  1.00  0.00     0.057 C
HETATM   19  N4  UNL     1     -18.192  23.139  -3.431  1.00  0.00    -0.397 N
HETATM   20  C14 UNL     1     -17.677  22.108  -4.262  1.00  0.00     0.148 C
HETATM   21  C15 UNL     1     -18.035  22.966  -2.038  1.00  0.00     0.127 C
ENDBRANCH  14  15
ENDBRANCH  12  14
ENDBRANCH   6  12
BRANCH   1  22
HETATM   22  N1  UNL     1     -23.821  19.878   4.212  1.00  0.00    -0.375 N
ATOM     23  H1  UNL     1     -24.096  18.901   4.110  1.00  0.00     0.161 HD
BRANCH  22  24
HETATM   24  C5  UNL     1     -24.233  20.379   5.417  1.00  0.00     0.121 C
BRANCH  24  25
HETATM   25  C4  UNL     1     -23.516  19.648   6.562  1.00  0.00     0.020 C
BRANCH  25  26
HETATM   26  C3  UNL     1     -23.257  18.208   6.194  1.00  0.00     0.001 C
BRANCH  26  27
HETATM   27  C2  UNL     1     -22.186  17.596   7.069  1.00  0.00    -0.004 C
HETATM   28  C1  UNL     1     -20.957  18.451   7.042  1.00  0.00     0.005 C
ENDBRANCH  26  27
ENDBRANCH  25  26
ENDBRANCH  24  25
ENDBRANCH  22  24
ENDBRANCH   1  22
TORSDOF 8
ENDMDL