MODEL 5
REMARK VINA RESULT: -6.876073759      8.060     10.801
REMARK  8 active torsions:
REMARK  status: ('A' for Active; 'I' for Inactive)
REMARK    1  A    between atoms: C2_2  and  S1_3
REMARK    2  A    between atoms: S1_3  and  C3_4
REMARK    3  A    between atoms: C3_4  and  C4_5
REMARK       I    between atoms: C4_5  and  N1_7
REMARK    4  A    between atoms: N1_7  and  C5_8
REMARK    5  A    between atoms: N2_10  and  C7_11
REMARK    6  A    between atoms: C10_14  and  C11_15
REMARK    7  A    between atoms: C11_15  and  C12_16
REMARK    8  A    between atoms: C17_21  and  O2_22
ROOT
HETATM    1  C7  UNL     1     -20.860  20.443   0.884  1.00  0.00     0.108 C
HETATM    2  C8  UNL     1     -21.778  21.059   1.925  1.00  0.00     0.028 C
HETATM    3  C9  UNL     1     -22.587  20.005   2.574  1.00  0.00     0.007 C
HETATM    4  C10 UNL     1     -21.835  18.778   3.060  1.00  0.00    -0.011 C
HETATM    5  C16 UNL     1     -20.668  18.446   2.216  1.00  0.00     0.038 C
HETATM    6  C17 UNL     1     -19.871  19.617   1.730  1.00  0.00     0.141 C
ENDROOT
BRANCH   1   7
HETATM    7  N2  UNL     1     -20.209  21.251   0.038  1.00  0.00    -0.400 N
HETATM    8  C6  UNL     1     -19.303  22.277   0.242  1.00  0.00     0.158 C
HETATM    9  C5  UNL     1     -18.857  22.007  -1.274  1.00  0.00     0.201 C
HETATM   10  C18 UNL     1     -20.319  21.518  -1.311  1.00  0.00     0.158 C
BRANCH   9  11
HETATM   11  N1  UNL     1     -18.408  23.027  -1.985  1.00  0.00    -0.406 NA
HETATM   12  C4  UNL     1     -17.939  24.080  -2.718  1.00  0.00     0.296 C
HETATM   13  O1  UNL     1     -16.808  24.688  -2.612  1.00  0.00    -0.257 OA
BRANCH  12  14
HETATM   14  C3  UNL     1     -18.764  24.679  -3.844  1.00  0.00     0.192 C
BRANCH  14  15
HETATM   15  S1  UNL     1     -20.310  25.356  -3.210  1.00  0.00    -0.159 SA
BRANCH  15  16
HETATM   16  C2  UNL     1     -19.974  26.375  -1.732  1.00  0.00     0.070 C
HETATM   17  C1  UNL     1     -20.556  25.707  -0.526  1.00  0.00     0.016 C
ENDBRANCH  15  16
ENDBRANCH  14  15
ENDBRANCH  12  14
ENDBRANCH   9  11
ENDBRANCH   1   7
BRANCH   6  18
HETATM   18  O2  UNL     1     -18.826  19.218   0.963  1.00  0.00    -0.394 OA
ATOM     19  H2  UNL     1     -18.250  18.655   1.466  1.00  0.00     0.210 HD
ENDBRANCH   6  18
BRANCH   4  20
HETATM   20  C11 UNL     1     -21.683  18.907   4.518  1.00  0.00     0.013 C
BRANCH  20  21
HETATM   21  C12 UNL     1     -22.692  18.481   5.484  1.00  0.00    -0.051 C
HETATM   22  C13 UNL     1     -23.557  17.410   4.724  1.00  0.00     0.014 C
HETATM   23  C14 UNL     1     -23.690  19.524   5.866  1.00  0.00     0.014 C
HETATM   24  C15 UNL     1     -22.204  17.773   6.706  1.00  0.00     0.014 C
ENDBRANCH  20  21
ENDBRANCH   4  20
TORSDOF 8
ENDMDL