MODEL 4
REMARK VINA RESULT: -6.935408250      1.046      1.469
REMARK  8 active torsions:
REMARK  status: ('A' for Active; 'I' for Inactive)
REMARK    1  A    between atoms: C10_10  and  O1_11
REMARK    2  A    between atoms: O1_11  and  C11_12
REMARK    3  A    between atoms: C11_12  and  C12_13
REMARK    4  A    between atoms: C12_13  and  C13_14
REMARK    5  A    between atoms: C13_14  and  C14_15
REMARK    6  A    between atoms: C14_15  and  N1_16
REMARK    7  A    between atoms: C18_20  and  O2_21
REMARK    8  A    between atoms: C20_24  and  O3_25
ROOT
HETATM    1  C1  UNL     1     -26.563  25.307   4.086  1.00  0.00     0.020 C
HETATM    2  C2  UNL     1     -27.031  23.865   4.084  1.00  0.00    -0.015 C
HETATM    3  C3  UNL     1     -28.376  23.896   3.329  1.00  0.00     0.020 C
HETATM    4  C4  UNL     1     -27.371  23.516   5.478  1.00  0.00    -0.017 C
HETATM    5  C5  UNL     1     -26.586  22.722   6.175  1.00  0.00    -0.003 C
HETATM    6  C6  UNL     1     -25.364  22.159   5.579  1.00  0.00     0.004 C
HETATM    7  C7  UNL     1     -25.067  22.445   4.326  1.00  0.00    -0.054 A
HETATM    8  C8  UNL     1     -24.873  22.852   2.920  1.00  0.00     0.024 A
HETATM    9  C9  UNL     1     -23.949  23.962   2.557  1.00  0.00     0.024 C
HETATM   10  C10 UNL     1     -25.321  21.877   1.831  1.00  0.00     0.164 A
HETATM   11  C20 UNL     1     -26.701  21.918   2.421  1.00  0.00     0.163 A
HETATM   12  C21 UNL     1     -26.163  22.915   3.452  1.00  0.00     0.036 A
ENDROOT
BRANCH  10  13
HETATM   13  O1  UNL     1     -24.653  20.677   1.836  1.00  0.00    -0.382 OA
BRANCH  13  14
HETATM   14  C11 UNL     1     -23.596  20.685   0.963  1.00  0.00     0.168 C
BRANCH  14  15
HETATM   15  C12 UNL     1     -22.238  20.767   1.568  1.00  0.00     0.028 C
BRANCH  15  16
HETATM   16  C13 UNL     1     -21.803  19.392   2.010  1.00  0.00     0.032 C
BRANCH  16  17
HETATM   17  C14 UNL     1     -21.564  19.282   3.487  1.00  0.00     0.272 C
BRANCH  17  18
HETATM   18  N1  UNL     1     -22.779  19.393   4.229  1.00  0.00     0.090 N
HETATM   19  C15 UNL     1     -23.625  18.248   4.162  1.00  0.00     0.272 C
HETATM   20  C16 UNL     1     -23.062  17.035   4.886  1.00  0.00     0.033 C
HETATM   21  C17 UNL     1     -23.003  17.414   6.361  1.00  0.00     0.035 C
HETATM   22  C18 UNL     1     -22.100  18.617   6.463  1.00  0.00     0.146 C
HETATM   23  C19 UNL     1     -22.575  19.765   5.606  1.00  0.00     0.303 C
BRANCH  22  24
HETATM   24  O2  UNL     1     -20.809  18.230   6.197  1.00  0.00    -0.394 OA
ATOM     25  H2  UNL     1     -20.564  17.536   6.798  1.00  0.00     0.210 HD
ENDBRANCH  22  24
ENDBRANCH  17  18
ENDBRANCH  16  17
ENDBRANCH  15  16
ENDBRANCH  14  15
ENDBRANCH  13  14
ENDBRANCH  10  13
BRANCH  11  26
HETATM   26  O3  UNL     1     -27.099  20.761   3.100  1.00  0.00    -0.392 OA
ATOM     27  H3  UNL     1     -27.623  20.152   2.595  1.00  0.00     0.210 HD
ENDBRANCH  11  26
TORSDOF 8
ENDMDL