MODEL 5
REMARK VINA RESULT: -7.618385554      1.432      1.706
REMARK  6 active torsions:
REMARK  status: ('A' for Active; 'I' for Inactive)
REMARK    1  A    between atoms: C2_2  and  C3_3
REMARK    2  A    between atoms: C3_3  and  C4_4
REMARK    3  A    between atoms: C4_4  and  C5_5
REMARK    4  A    between atoms: C5_5  and  C6_6
REMARK    5  A    between atoms: C6_6  and  N1_7
REMARK    6  A    between atoms: N4_21  and  C16_22
ROOT
HETATM    1  N1  UNL     1     -25.274  21.135   4.300  1.00  0.00    -0.380 N
ATOM      2  H1  UNL     1     -25.557  20.566   3.502  1.00  0.00     0.160 HD
HETATM    3  C7  UNL     1     -26.080  22.022   4.725  1.00  0.00     0.073 C
HETATM    4  C8  UNL     1     -25.896  22.972   5.868  1.00  0.00     0.078 C
HETATM    5  C9  UNL     1     -27.223  23.716   5.937  1.00  0.00     0.041 C
HETATM    6  C10 UNL     1     -27.743  23.623   4.557  1.00  0.00     0.066 C
HETATM    7  C11 UNL     1     -27.175  24.595   3.583  1.00  0.00     0.034 C
HETATM    8  C12 UNL     1     -28.124  24.546   2.431  1.00  0.00     0.006 C
HETATM    9  C13 UNL     1     -29.361  23.818   2.878  1.00  0.00     0.044 C
HETATM   10  C14 UNL     1     -29.211  23.752   4.401  1.00  0.00     0.139 A
HETATM   11  N2  UNL     1     -29.986  22.707   4.975  1.00  0.00    -0.344 N
ATOM     12  H2  UNL     1     -29.833  21.714   4.795  1.00  0.00     0.163 HD
HETATM   13  C15 UNL     1     -30.906  23.168   5.750  1.00  0.00     0.194 A
HETATM   14  N3  UNL     1     -31.852  22.376   6.477  1.00  0.00    -0.063 NA
HETATM   15  N4  UNL     1     -30.864  24.586   5.794  1.00  0.00    -0.286 N
HETATM   16  C19 UNL     1     -29.797  24.971   4.946  1.00  0.00     0.257 A
HETATM   17  O1  UNL     1     -29.448  26.149   4.726  1.00  0.00    -0.270 OA
HETATM   18  N5  UNL     1     -27.357  22.270   4.152  1.00  0.00    -0.368 N
ATOM     19  H5  UNL     1     -27.899  21.629   3.571  1.00  0.00     0.161 HD
ENDROOT
BRANCH  15  20
HETATM   20  C16 UNL     1     -31.761  25.449   6.573  1.00  0.00     0.087 C
HETATM   21  C17 UNL     1     -30.958  26.588   7.210  1.00  0.00     0.032 C
HETATM   22  C18 UNL     1     -32.818  26.078   5.720  1.00  0.00     0.032 C
ENDBRANCH  15  20
BRANCH   1  23
HETATM   23  C6  UNL     1     -23.967  20.889   4.895  1.00  0.00     0.121 C
BRANCH  23  24
HETATM   24  C5  UNL     1     -24.087  19.896   6.022  1.00  0.00     0.020 C
BRANCH  24  25
HETATM   25  C4  UNL     1     -22.788  19.206   6.241  1.00  0.00     0.002 C
BRANCH  25  26
HETATM   26  C3  UNL     1     -22.910  17.730   6.160  1.00  0.00    -0.000 C
BRANCH  26  27
HETATM   27  C2  UNL     1     -23.460  17.331   4.811  1.00  0.00    -0.005 C
HETATM   28  C1  UNL     1     -22.312  17.404   3.816  1.00  0.00     0.005 C
ENDBRANCH  26  27
ENDBRANCH  25  26
ENDBRANCH  24  25
ENDBRANCH  23  24
ENDBRANCH   1  23
TORSDOF 6
ENDMDL