MODEL 1
REMARK VINA RESULT: -5.402679224      0.000      0.000
REMARK  3 active torsions:
REMARK  status: ('A' for Active; 'I' for Inactive)
REMARK    1  A    between atoms: C3_5  and  C4_6
REMARK    2  A    between atoms: C4_6  and  C5_7
REMARK    3  A    between atoms: C5_7  and  N1_8
ROOT
HETATM    1  C1  UNL     1     -24.374  20.132   9.961  1.00  0.00     0.050 C
HETATM    2  C2  UNL     1     -24.952  21.032   8.895  1.00  0.00     0.102 C
HETATM    3  O1  UNL     1     -24.680  20.513   7.677  1.00  0.00    -0.303 OA
HETATM    4  S1  UNL     1     -25.288  21.622   6.485  1.00  0.00     0.028 SA
HETATM    5  C3  UNL     1     -26.182  22.848   7.527  1.00  0.00     0.136 C
HETATM    6  C6  UNL     1     -25.135  23.488   8.378  1.00  0.00     0.059 C
HETATM    7  C7  UNL     1     -24.380  22.423   9.144  1.00  0.00     0.027 C
HETATM    8  C8  UNL     1     -24.837  22.567  10.607  1.00  0.00     0.010 C
HETATM    9  C9  UNL     1     -26.251  22.035  10.560  1.00  0.00     0.035 C
HETATM   10  C10 UNL     1     -26.387  21.290   9.223  1.00  0.00     0.159 C
HETATM   11  O2  UNL     1     -27.046  22.098   8.317  1.00  0.00    -0.359 OA
ENDROOT
BRANCH   5  12
HETATM   12  C4  UNL     1     -26.904  23.760   6.620  1.00  0.00     0.079 C
BRANCH  12  13
HETATM   13  C5  UNL     1     -28.141  23.195   6.003  1.00  0.00     0.233 C
BRANCH  13  14
HETATM   14  N1  UNL     1     -29.229  23.359   6.974  1.00  0.00    -0.079 N
ATOM     15  H13 UNL     1     -28.989  23.990   7.738  1.00  0.00     0.274 HD
ATOM     16  H12 UNL     1     -30.016  23.893   6.604  1.00  0.00     0.274 HD
ATOM     17  H11 UNL     1     -29.495  22.428   7.294  1.00  0.00     0.274 HD
ENDBRANCH  13  14
ENDBRANCH  12  13
ENDBRANCH   5  12
TORSDOF 3
ENDMDL