MODEL 1
REMARK VINA RESULT: -5.676385339      0.000      0.000
REMARK  3 active torsions:
REMARK  status: ('A' for Active; 'I' for Inactive)
REMARK    1  A    between atoms: C2_2  and  O1_4
REMARK    2  A    between atoms: O1_4  and  C4_5
REMARK    3  A    between atoms: C5_6  and  O2_7
ROOT
HETATM    1  C4  UNL     1     -25.356  22.470   7.554  1.00  0.00     0.188 C
HETATM    2  C5  UNL     1     -26.615  22.948   8.226  1.00  0.00     0.152 C
HETATM    3  C6  UNL     1     -27.590  22.912   7.038  1.00  0.00     0.069 C
HETATM    4  C7  UNL     1     -26.783  23.747   6.063  1.00  0.00     0.159 C
HETATM    5  O3  UNL     1     -27.161  23.526   4.750  1.00  0.00    -0.348 OA
HETATM    6  C8  UNL     1     -26.248  22.690   4.176  1.00  0.00     0.158 C
HETATM    7  C9  UNL     1     -26.975  21.489   3.586  1.00  0.00     0.078 C
HETATM    8  C10 UNL     1     -25.544  23.421   3.053  1.00  0.00     0.078 C
HETATM    9  O4  UNL     1     -25.364  22.255   5.149  1.00  0.00    -0.345 OA
HETATM   10  C11 UNL     1     -25.413  23.137   6.200  1.00  0.00     0.186 C
ENDROOT
BRANCH   1  11
HETATM   11  O1  UNL     1     -25.353  21.065   7.455  1.00  0.00    -0.346 OA
BRANCH  11  12
HETATM   12  C2  UNL     1     -24.359  20.283   8.039  1.00  0.00     0.034 C
HETATM   13  C1  UNL     1     -24.064  20.338   9.316  1.00  0.00     0.045 C
HETATM   14  C3  UNL     1     -23.611  19.348   7.153  1.00  0.00     0.075 C
ENDBRANCH  11  12
ENDBRANCH   1  11
BRANCH   2  15
HETATM   15  O2  UNL     1     -27.043  22.189   9.278  1.00  0.00    -0.393 OA
ATOM     16  H2  UNL     1     -27.741  22.570   9.799  1.00  0.00     0.210 HD
ENDBRANCH   2  15
TORSDOF 3
ENDMDL