MODEL 2
REMARK VINA RESULT: -6.124930942      3.126      4.402
REMARK  1 active torsions:
REMARK  status: ('A' for Active; 'I' for Inactive)
REMARK    1  A    between atoms: C9_11  and  C10_12
ROOT
HETATM    1  C1  UNL     1     -29.793  23.873   4.699  1.00  0.00     0.081 C
HETATM    2  C2  UNL     1     -28.527  24.703   4.609  1.00  0.00     0.193 C
HETATM    3  C3  UNL     1     -28.588  25.664   3.463  1.00  0.00     0.081 C
HETATM    4  O1  UNL     1     -28.291  25.431   5.768  1.00  0.00    -0.198 OA
HETATM    5  O2  UNL     1     -26.990  25.332   5.946  1.00  0.00    -0.197 OA
HETATM    6  C4  UNL     1     -26.834  23.930   5.780  1.00  0.00     0.213 C
HETATM    7  C5  UNL     1     -27.676  23.295   6.839  1.00  0.00     0.072 C
HETATM    8  C6  UNL     1     -26.939  22.706   7.991  1.00  0.00     0.006 C
HETATM    9  C7  UNL     1     -25.600  22.144   7.682  1.00  0.00     0.001 C
HETATM   10  C8  UNL     1     -25.350  22.063   6.191  1.00  0.00     0.021 C
HETATM   11  C9  UNL     1     -25.429  23.534   5.736  1.00  0.00     0.152 C
HETATM   12  O5  UNL     1     -27.425  23.812   4.523  1.00  0.00    -0.313 OA
ENDROOT
BRANCH  11  13
HETATM   13  C10 UNL     1     -24.829  23.602   4.421  1.00  0.00     0.182 C
HETATM   14  O3  UNL     1     -24.664  24.634   3.782  1.00  0.00    -0.648 OA
HETATM   15  O4  UNL     1     -24.400  22.403   3.827  1.00  0.00    -0.648 OA
ENDBRANCH  11  13
TORSDOF 1
ENDMDL