MODEL 4
REMARK VINA RESULT: -6.116440913      3.751      5.652
REMARK  2 active torsions:
REMARK  status: ('A' for Active; 'I' for Inactive)
REMARK    1  A    between atoms: O1_1  and  C1_3
REMARK    2  A    between atoms: C5_10  and  C6_11
ROOT
HETATM    1  C1  UNL     1     -25.386  22.880   3.868  1.00  0.00     0.110 C
HETATM    2  C2  UNL     1     -26.187  23.531   2.761  1.00  0.00     0.208 C
HETATM    3  O2  UNL     1     -26.259  22.611   1.722  1.00  0.00    -0.386 OA
HETATM    4  C3  UNL     1     -25.991  21.362   2.233  1.00  0.00     0.196 C
HETATM    5  C4  UNL     1     -25.948  21.461   3.725  1.00  0.00     0.143 C
HETATM    6  N1  UNL     1     -25.167  20.467   4.365  1.00  0.00    -0.372 N
ATOM      7  H1  UNL     1     -24.845  19.651   3.845  1.00  0.00     0.160 HD
HETATM    8  C5  UNL     1     -24.870  20.602   5.606  1.00  0.00     0.100 C
HETATM    9  S1  UNL     1     -25.470  22.062   6.458  1.00  0.00    -0.107 SA
HETATM   10  C10 UNL     1     -25.754  23.388   5.236  1.00  0.00     0.123 C
ENDROOT
BRANCH   8  11
HETATM   11  C6  UNL     1     -24.065  19.610   6.332  1.00  0.00     0.108 A
HETATM   12  C7  UNL     1     -23.599  18.419   5.828  1.00  0.00     0.042 A
HETATM   13  C8  UNL     1     -22.888  17.769   6.808  1.00  0.00     0.027 A
HETATM   14  C9  UNL     1     -22.950  18.617   7.904  1.00  0.00     0.142 A
HETATM   15  O3  UNL     1     -23.645  19.667   7.567  1.00  0.00    -0.320 OA
ENDBRANCH   8  11
BRANCH   1  16
HETATM   16  O1  UNL     1     -24.038  22.922   3.602  1.00  0.00    -0.385 OA
ATOM     17  H1  UNL     1     -23.837  23.560   2.928  1.00  0.00     0.210 HD
ENDBRANCH   1  16
TORSDOF 2
ENDMDL