MODEL 2
REMARK VINA RESULT: -7.129798164      3.949      6.371
REMARK  1 active torsions:
REMARK  status: ('A' for Active; 'I' for Inactive)
REMARK    1  A    between atoms: C2_2  and  C3_3
ROOT
HETATM    1  C1  UNL     1     -25.127  21.496   7.266  1.00  0.00     0.011 C
HETATM    2  C2  UNL     1     -24.394  20.426   7.489  1.00  0.00     0.039 C
HETATM    3  N1  UNL     1     -24.063  20.442   8.865  1.00  0.00    -0.335 N
ATOM      4  H1  UNL     1     -23.324  19.881   9.288  1.00  0.00     0.165 HD
HETATM    5  C7  UNL     1     -24.917  21.368   9.596  1.00  0.00     0.252 C
HETATM    6  C8  UNL     1     -25.338  22.301   8.483  1.00  0.00     0.123 C
HETATM    7  O1  UNL     1     -25.977  20.670  10.148  1.00  0.00    -0.336 OA
HETATM    8  C9  UNL     1     -26.488  21.568  11.095  1.00  0.00     0.199 C
HETATM    9  C10 UNL     1     -25.343  22.522  11.369  1.00  0.00     0.199 C
HETATM   10  O2  UNL     1     -24.259  22.008  10.624  1.00  0.00    -0.336 OA
ENDROOT
BRANCH   2  11
HETATM   11  C3  UNL     1     -23.992  19.402   6.475  1.00  0.00    -0.003 A
HETATM   12  C4  UNL     1     -23.195  18.354   6.764  1.00  0.00     0.021 A
HETATM   13  C5  UNL     1     -22.899  17.486   5.753  1.00  0.00     0.050 A
HETATM   14  S1  UNL     1     -23.733  18.148   4.424  1.00  0.00    -0.113 SA
HETATM   15  C6  UNL     1     -24.433  19.500   5.180  1.00  0.00     0.063 A
ENDBRANCH   2  11
TORSDOF 1
ENDMDL