MODEL 3
REMARK VINA RESULT: -5.616990608      1.540      4.742
REMARK  2 active torsions:
REMARK  status: ('A' for Active; 'I' for Inactive)
REMARK    1  A    between atoms: O1_2  and  C2_3
REMARK    2  A    between atoms: C10_11  and  O2_13
ROOT
HETATM    1  C2  UNL     1     -25.288  21.386   9.319  1.00  0.00     0.319 C
HETATM    2  C3  UNL     1     -24.779  20.702   8.072  1.00  0.00     0.032 C
HETATM    3  C4  UNL     1     -24.955  21.190   6.847  1.00  0.00    -0.016 C
HETATM    4  C5  UNL     1     -25.638  22.435   6.397  1.00  0.00     0.074 C
HETATM    5  C6  UNL     1     -27.002  22.457   7.018  1.00  0.00     0.171 C
HETATM    6  C7  UNL     1     -27.887  23.542   6.501  1.00  0.00     0.036 C
HETATM    7  C8  UNL     1     -27.770  23.812   5.046  1.00  0.00     0.006 C
HETATM    8  C9  UNL     1     -26.378  23.772   4.504  1.00  0.00     0.038 C
HETATM    9  C10 UNL     1     -25.644  22.506   4.901  1.00  0.00     0.063 C
HETATM   10  C11 UNL     1     -26.263  21.325   4.236  1.00  0.00     0.046 C
HETATM   11  O3  UNL     1     -26.835  22.680   8.396  1.00  0.00    -0.232 OA
HETATM   12  O4  UNL     1     -26.667  21.576   9.065  1.00  0.00    -0.203 OA
ENDROOT
BRANCH   9  13
HETATM   13  O2  UNL     1     -24.318  22.662   4.483  1.00  0.00    -0.389 OA
ATOM     14  H2  UNL     1     -24.153  22.013   3.808  1.00  0.00     0.210 HD
ENDBRANCH   9  13
BRANCH   1  15
HETATM   15  O1  UNL     1     -24.718  22.650   9.319  1.00  0.00    -0.360 OA
HETATM   16  C1  UNL     1     -24.066  22.947  10.500  1.00  0.00     0.205 C
ENDBRANCH   1  15
TORSDOF 2
ENDMDL