MODEL 4
REMARK VINA RESULT: -5.705191879      3.835      4.678
REMARK  1 active torsions:
REMARK  status: ('A' for Active; 'I' for Inactive)
REMARK    1  A    between atoms: C3_4  and  C4_5
ROOT
HETATM    1  C4  UNL     1     -26.461  23.014   7.597  1.00  0.00     0.115 C
HETATM    2  C5  UNL     1     -26.024  22.545   6.199  1.00  0.00     0.039 C
HETATM    3  C6  UNL     1     -27.029  23.326   5.379  1.00  0.00     0.045 C
HETATM    4  C7  UNL     1     -27.326  22.825   4.045  1.00  0.00     0.022 C
HETATM    5  C8  UNL     1     -28.714  23.082   3.618  1.00  0.00     0.081 C
HETATM    6  S2  UNL     1     -29.609  23.363   5.185  1.00  0.00    -0.117 SA
HETATM    7  C9  UNL     1     -28.207  23.214   6.265  1.00  0.00     0.047 C
HETATM    8  N1  UNL     1     -27.869  23.045   7.469  1.00  0.00    -0.380 N
ATOM      9  H1  UNL     1     -28.524  22.944   8.245  1.00  0.00     0.160 HD
ENDROOT
BRANCH   1  10
HETATM   10  C3  UNL     1     -25.940  22.109   8.663  1.00  0.00     0.165 C
HETATM   11  S1  UNL     1     -24.571  22.870   9.583  1.00  0.00    -0.137 SA
HETATM   12  C2  UNL     1     -25.162  22.297  11.212  1.00  0.00     0.120 C
HETATM   13  C1  UNL     1     -26.606  22.087  10.921  1.00  0.00     0.067 C
HETATM   14  N2  UNL     1     -26.850  21.676   9.623  1.00  0.00    -0.386 N
ATOM     15  H2  UNL     1     -27.649  21.090   9.383  1.00  0.00     0.159 HD
ENDBRANCH   1  10
TORSDOF 1
ENDMDL