MODEL 5
REMARK VINA RESULT: -5.249097996      2.595      4.960
REMARK  2 active torsions:
REMARK  status: ('A' for Active; 'I' for Inactive)
REMARK    1  A    between atoms: C8_11  and  C9_12
REMARK    2  A    between atoms: C9_12  and  O4_13
ROOT
HETATM    1  C1  UNL     1     -24.705  20.766   7.215  1.00  0.00     0.049 C
HETATM    2  C2  UNL     1     -25.555  21.749   7.062  1.00  0.00     0.077 C
HETATM    3  O1  UNL     1     -26.210  22.142   5.912  1.00  0.00    -0.316 OA
HETATM    4  C3  UNL     1     -27.059  23.238   6.302  1.00  0.00     0.175 C
HETATM    5  C4  UNL     1     -28.321  23.281   5.505  1.00  0.00     0.095 C
HETATM    6  C5  UNL     1     -28.800  24.692   5.265  1.00  0.00     0.173 C
HETATM    7  O2  UNL     1     -27.881  25.490   4.632  1.00  0.00    -0.391 OA
HETATM    8  C6  UNL     1     -26.592  25.030   4.724  1.00  0.00     0.173 C
HETATM    9  C7  UNL     1     -26.313  24.548   6.146  1.00  0.00     0.095 C
HETATM   10  O3  UNL     1     -27.297  22.992   7.667  1.00  0.00    -0.335 OA
HETATM   11  C8  UNL     1     -26.013  22.678   8.115  1.00  0.00     0.248 C
ENDROOT
BRANCH  11  12
HETATM   12  C9  UNL     1     -25.987  22.128   9.460  1.00  0.00     0.146 C
HETATM   13  S1  UNL     1     -24.698  22.416  10.419  1.00  0.00    -0.055 SA
BRANCH  12  14
HETATM   14  O4  UNL     1     -27.007  21.353  10.005  1.00  0.00    -0.352 OA
ATOM     15  H4  UNL     1     -26.993  20.998  10.886  1.00  0.00     0.218 HD
ENDBRANCH  12  14
ENDBRANCH  11  12
TORSDOF 2
ENDMDL