MODEL 4
REMARK VINA RESULT: -7.641604550      0.209      1.200
REMARK  4 active torsions:
REMARK  status: ('A' for Active; 'I' for Inactive)
REMARK    1  A    between atoms: C1_2  and  O2_3
REMARK    2  A    between atoms: C1_2  and  C8_12
REMARK    3  A    between atoms: O2_3  and  C2_4
REMARK    4  A    between atoms: C5_7  and  O3_8
ROOT
HETATM    1  O2  UNL     1     -23.758  18.166   4.775  1.00  0.00    -0.279 OA
ENDROOT
BRANCH   1   2
HETATM    2  C1  UNL     1     -22.932  18.642   3.758  1.00  0.00     0.273 C
HETATM    3  O1  UNL     1     -23.489  19.423   2.916  1.00  0.00    -0.264 OA
BRANCH   2   4
HETATM    4  C8  UNL     1     -21.512  18.283   3.643  1.00  0.00     0.144 C
HETATM    5  C9  UNL     1     -21.303  16.807   3.656  1.00  0.00     0.138 C
HETATM    6  C10 UNL     1     -19.799  16.643   3.502  1.00  0.00     0.035 C
HETATM    7  O4  UNL     1     -21.735  16.804   2.310  1.00  0.00    -0.379 OA
HETATM    8  C11 UNL     1     -19.635  17.617   2.315  1.00  0.00     0.035 C
HETATM    9  C12 UNL     1     -21.080  18.054   2.229  1.00  0.00     0.138 C
ENDBRANCH   2   4
ENDBRANCH   1   2
BRANCH   1  10
HETATM   10  C2  UNL     1     -23.748  18.721   6.054  1.00  0.00     0.079 A
HETATM   11  C3  UNL     1     -24.457  19.859   6.380  1.00  0.00     0.040 A
HETATM   12  C4  UNL     1     -24.449  20.410   7.649  1.00  0.00     0.039 A
HETATM   13  C5  UNL     1     -23.704  19.804   8.642  1.00  0.00     0.065 A
HETATM   14  C6  UNL     1     -22.990  18.668   8.337  1.00  0.00     0.039 A
HETATM   15  C7  UNL     1     -23.007  18.131   7.071  1.00  0.00     0.040 A
BRANCH  13  16
HETATM   16  O3  UNL     1     -23.681  20.345   9.932  1.00  0.00    -0.361 OA
ATOM     17  H3  UNL     1     -24.276  21.048  10.164  1.00  0.00     0.217 HD
ENDBRANCH  13  16
ENDBRANCH   1  10
TORSDOF 4
ENDMDL