MODEL 2
REMARK VINA RESULT: -6.040848044      4.258      6.175
REMARK  2 active torsions:
REMARK  status: ('A' for Active; 'I' for Inactive)
REMARK    1  A    between atoms: O1_2  and  C2_3
REMARK    2  A    between atoms: C6_8  and  N1_9
ROOT
HETATM    1  C2  UNL     1     -24.393  22.004   3.688  1.00  0.00     0.296 C
HETATM    2  O2  UNL     1     -23.820  20.783   4.037  1.00  0.00    -0.322 OA
HETATM    3  C3  UNL     1     -24.780  20.102   4.780  1.00  0.00     0.168 C
HETATM    4  C4  UNL     1     -24.605  18.613   4.655  1.00  0.00     0.070 C
HETATM    5  C5  UNL     1     -23.360  18.115   5.340  1.00  0.00     0.038 C
HETATM    6  C6  UNL     1     -22.986  18.889   6.554  1.00  0.00     0.183 C
HETATM    7  C7  UNL     1     -24.087  19.696   7.157  1.00  0.00     0.038 C
HETATM    8  C8  UNL     1     -24.813  20.578   6.192  1.00  0.00     0.070 C
HETATM    9  O3  UNL     1     -26.021  20.413   4.192  1.00  0.00    -0.340 OA
HETATM   10  C9  UNL     1     -25.850  21.625   3.539  1.00  0.00     0.107 C
HETATM   11  C10 UNL     1     -26.259  21.440   2.109  1.00  0.00     0.051 C
HETATM   12  C11 UNL     1     -26.746  22.655   4.200  1.00  0.00     0.051 C
ENDROOT
BRANCH   1  13
HETATM   13  O1  UNL     1     -23.901  22.535   2.523  1.00  0.00    -0.363 OA
HETATM   14  C1  UNL     1     -23.460  23.841   2.766  1.00  0.00     0.204 C
ENDBRANCH   1  13
BRANCH   6  15
HETATM   15  N1  UNL     1     -22.531  17.955   7.571  1.00  0.00    -0.075 N
ATOM     16  H13 UNL     1     -22.698  18.294   8.518  1.00  0.00     0.274 HD
ATOM     17  H12 UNL     1     -23.110  17.116   7.621  1.00  0.00     0.274 HD
ATOM     18  H11 UNL     1     -21.548  17.744   7.398  1.00  0.00     0.274 HD
ENDBRANCH   6  15
TORSDOF 2
ENDMDL