MODEL 4
REMARK VINA RESULT: -7.783381300      1.825      1.900
REMARK  4 active torsions:
REMARK  status: ('A' for Active; 'I' for Inactive)
REMARK    1  A    between atoms: C5_5  and  C6_6
REMARK    2  A    between atoms: C6_6  and  C7_8
REMARK    3  A    between atoms: C9_14  and  N2_15
REMARK    4  A    between atoms: N3_17  and  N4_19
ROOT
HETATM    1  C7  UNL     1     -25.593  21.338   2.610  1.00  0.00     0.101 A
HETATM    2  S1  UNL     1     -27.278  21.292   2.840  1.00  0.00    -0.022 SA
HETATM    3  C8  UNL     1     -27.757  21.607   1.237  1.00  0.00     0.290 A
HETATM    4  O2  UNL     1     -28.943  21.702   0.756  1.00  0.00    -0.260 OA
HETATM    5  N1  UNL     1     -26.596  21.735   0.594  1.00  0.00    -0.301 N
ATOM      6  H1  UNL     1     -26.575  21.931  -0.406  1.00  0.00     0.171 HD
HETATM    7  C9  UNL     1     -25.487  21.602   1.270  1.00  0.00     0.145 A
ENDROOT
BRANCH   1   8
HETATM    8  C6  UNL     1     -24.497  21.148   3.584  1.00  0.00     0.174 C
HETATM    9  O1  UNL     1     -23.604  22.029   3.630  1.00  0.00    -0.291 OA
BRANCH   8  10
HETATM   10  C5  UNL     1     -24.479  19.948   4.462  1.00  0.00     0.061 C
HETATM   11  C4  UNL     1     -23.540  18.923   3.912  1.00  0.00     0.013 C
HETATM   12  C3  UNL     1     -23.163  17.829   4.851  1.00  0.00     0.005 C
HETATM   13  C2  UNL     1     -23.331  18.195   6.306  1.00  0.00    -0.019 C
HETATM   14  C1  UNL     1     -22.384  17.364   7.140  1.00  0.00     0.010 C
HETATM   15  C11 UNL     1     -22.981  19.680   6.412  1.00  0.00     0.005 C
HETATM   16  C10 UNL     1     -24.211  20.384   5.852  1.00  0.00     0.013 C
ENDBRANCH   8  10
ENDBRANCH   1   8
BRANCH   7  17
HETATM   17  N2  UNL     1     -24.183  21.733   0.611  1.00  0.00    -0.270 N
HETATM   18  N3  UNL     1     -23.409  20.732   0.563  1.00  0.00    -0.248 N
ATOM     19  H3  UNL     1     -23.691  19.844   0.979  1.00  0.00     0.207 HD
ATOM     20  H2  UNL     1     -23.904  22.621   0.195  1.00  0.00     0.190 HD
BRANCH  18  21
HETATM   21  N4  UNL     1     -22.168  20.852  -0.064  1.00  0.00    -0.331 N
ATOM     22  H42 UNL     1     -22.112  21.303  -0.977  1.00  0.00     0.178 HD
ATOM     23  H41 UNL     1     -21.335  20.487   0.397  1.00  0.00     0.178 HD
ENDBRANCH  18  21
ENDBRANCH   7  17
TORSDOF 4
ENDMDL