MODEL 4
REMARK VINA RESULT: -8.143243315      1.477      1.998
REMARK  4 active torsions:
REMARK  status: ('A' for Active; 'I' for Inactive)
REMARK    1  A    between atoms: C3_6  and  N2_7
REMARK    2  A    between atoms: N2_7  and  C4_9
REMARK    3  A    between atoms: C4_9  and  C6_11
REMARK    4  A    between atoms: C7_16  and  C8_17
ROOT
HETATM    1  C6  UNL     1     -22.055  19.736   2.443  1.00  0.00     0.120 A
HETATM    2  N3  UNL     1     -21.231  18.700   2.613  1.00  0.00    -0.286 N
ATOM      3  H3  UNL     1     -20.551  18.374   1.927  1.00  0.00     0.188 HD
HETATM    4  N4  UNL     1     -21.423  18.168   3.784  1.00  0.00    -0.287 N
ATOM      5  H4  UNL     1     -20.922  17.365   4.163  1.00  0.00     0.188 HD
HETATM    6  C7  UNL     1     -22.394  18.857   4.412  1.00  0.00     0.101 A
HETATM    7  N5  UNL     1     -22.776  19.818   3.582  1.00  0.00    -0.331 N
ATOM      8  H5  UNL     1     -23.501  20.510   3.774  1.00  0.00     0.168 HD
ENDROOT
BRANCH   1   9
HETATM    9  C4  UNL     1     -22.109  20.570   1.235  1.00  0.00     0.148 C
HETATM   10  C5  UNL     1     -23.521  21.128   1.047  1.00  0.00     0.040 C
BRANCH   9  11
HETATM   11  N2  UNL     1     -21.218  21.713   1.311  1.00  0.00    -0.358 N
ATOM     12  H2  UNL     1     -21.420  22.526   1.892  1.00  0.00     0.162 HD
BRANCH  11  13
HETATM   13  C3  UNL     1     -20.131  21.622   0.576  1.00  0.00     0.163 A
HETATM   14  S1  UNL     1     -18.673  20.785   0.855  1.00  0.00     0.024 SA
HETATM   15  N1  UNL     1     -17.877  21.215  -0.560  1.00  0.00    -0.313 N
HETATM   16  C2  UNL     1     -18.766  21.984  -1.188  1.00  0.00     0.085 A
ATOM     17  H1  UNL     1     -16.940  20.952  -0.864  1.00  0.00     0.175 HD
HETATM   18  C1  UNL     1     -18.410  22.583  -2.540  1.00  0.00     0.089 C
HETATM   19  N6  UNL     1     -19.916  22.194  -0.613  1.00  0.00    -0.325 N
ATOM     20  H6  UNL     1     -20.629  22.776  -1.054  1.00  0.00     0.169 HD
ENDBRANCH  11  13
ENDBRANCH   9  11
ENDBRANCH   1   9
BRANCH   6  21
HETATM   21  C8  UNL     1     -22.891  18.549   5.768  1.00  0.00     0.055 C
HETATM   22  C9  UNL     1     -23.503  19.721   6.508  1.00  0.00     0.012 C
HETATM   23  C10 UNL     1     -22.820  19.183   7.770  1.00  0.00     0.002 C
HETATM   24  C11 UNL     1     -21.801  18.537   6.843  1.00  0.00     0.012 C
ENDBRANCH   6  21
TORSDOF 4
ENDMDL