MODEL 2
REMARK VINA RESULT: -7.505795798      1.017      1.960
REMARK  3 active torsions:
REMARK  status: ('A' for Active; 'I' for Inactive)
REMARK    1  A    between atoms: C2_2  and  N1_4
REMARK    2  A    between atoms: C4_6  and  C6_9
REMARK    3  A    between atoms: C6_9  and  C7_13
ROOT
HETATM    1  N1  UNL     1     -23.175  20.702   1.474  1.00  0.00    -0.376 N
ATOM      2  H1  UNL     1     -24.013  20.433   1.989  1.00  0.00     0.160 HD
HETATM    3  C4  UNL     1     -22.049  20.130   1.807  1.00  0.00     0.133 C
HETATM    4  C5  UNL     1     -20.924  20.557   1.042  1.00  0.00     0.119 C
HETATM    5  N2  UNL     1     -20.023  20.936   0.414  1.00  0.00    -0.190 NA
ENDROOT
BRANCH   3   6
HETATM    6  C6  UNL     1     -22.002  19.181   2.881  1.00  0.00     0.057 C
HETATM    7  N3  UNL     1     -20.840  18.724   3.200  1.00  0.00    -0.399 N
ATOM      8  H32 UNL     1     -20.010  19.020   2.685  1.00  0.00     0.156 HD
ATOM      9  H31 UNL     1     -20.806  18.049   3.964  1.00  0.00     0.156 HD
BRANCH   6  10
HETATM   10  C7  UNL     1     -23.193  18.756   3.620  1.00  0.00     0.152 C
HETATM   11  C8  UNL     1     -23.631  19.691   4.691  1.00  0.00    -0.002 C
HETATM   12  N4  UNL     1     -24.716  20.316   4.596  1.00  0.00    -0.405 N
HETATM   13  C9  UNL     1     -22.789  19.873   5.914  1.00  0.00     0.062 C
ATOM     14  H42 UNL     1     -25.290  20.192   3.762  1.00  0.00     0.155 HD
ATOM     15  H41 UNL     1     -25.016  20.957   5.331  1.00  0.00     0.155 HD
HETATM   16  C10 UNL     1     -22.492  18.529   6.543  1.00  0.00    -0.036 C
HETATM   17  C11 UNL     1     -21.004  18.450   6.787  1.00  0.00     0.015 C
HETATM   18  C12 UNL     1     -23.136  18.459   7.945  1.00  0.00     0.015 C
HETATM   19  C13 UNL     1     -23.003  17.361   5.776  1.00  0.00     0.088 C
HETATM   20  C14 UNL     1     -22.982  17.441   4.315  1.00  0.00     0.143 C
HETATM   21  O1  UNL     1     -22.788  16.397   3.689  1.00  0.00    -0.297 OA
ENDBRANCH   6  10
ENDBRANCH   3   6
BRANCH   1  22
HETATM   22  C2  UNL     1     -23.317  21.682   0.436  1.00  0.00     0.074 C
HETATM   23  C1  UNL     1     -23.716  22.986   1.107  1.00  0.00     0.031 C
HETATM   24  C3  UNL     1     -24.367  21.305  -0.580  1.00  0.00     0.031 C
ENDBRANCH   1  22
TORSDOF 3
ENDMDL