MODEL 2
REMARK VINA RESULT: -9.292729403      1.152      4.516
REMARK  4 active torsions:
REMARK  status: ('A' for Active; 'I' for Inactive)
REMARK    1  A    between atoms: N1_1  and  C1_4
REMARK    2  A    between atoms: C2_10  and  C3_11
REMARK    3  A    between atoms: C4_14  and  C5_15
REMARK    4  A    between atoms: C11_21  and  C12_22
ROOT
HETATM    1  C3  UNL     1     -21.980  19.607   3.552  1.00  0.00     0.139 A
HETATM    2  N4  UNL     1     -23.145  20.197   3.246  1.00  0.00    -0.344 N
ATOM      3  H4  UNL     1     -23.281  20.511   2.285  1.00  0.00     0.167 HD
HETATM    4  C4  UNL     1     -24.145  20.401   4.119  1.00  0.00     0.017 A
HETATM    5  C10 UNL     1     -23.941  19.971   5.409  1.00  0.00     0.050 A
HETATM    6  C11 UNL     1     -22.764  19.357   5.786  1.00  0.00     0.017 A
HETATM    7  N5  UNL     1     -21.823  19.197   4.838  1.00  0.00    -0.344 N
ATOM      8  H5  UNL     1     -20.947  18.745   5.098  1.00  0.00     0.167 HD
ENDROOT
BRANCH   1   9
HETATM    9  C2  UNL     1     -20.941  19.419   2.553  1.00  0.00     0.145 A
HETATM   10  C1  UNL     1     -20.464  18.265   1.988  1.00  0.00     0.154 A
HETATM   11  N2  UNL     1     -19.487  18.609   1.100  1.00  0.00    -0.224 N
HETATM   12  O1  UNL     1     -19.397  19.904   1.142  1.00  0.00    -0.155 OA
ATOM     13  H2  UNL     1     -18.937  17.976   0.518  1.00  0.00     0.198 HD
HETATM   14  N3  UNL     1     -20.244  20.416   1.993  1.00  0.00    -0.234 N
ATOM     15  H3  UNL     1     -20.356  21.409   2.197  1.00  0.00     0.197 HD
BRANCH  10  16
HETATM   16  N1  UNL     1     -20.910  17.094   2.294  1.00  0.00    -0.382 N
ATOM     17  H12 UNL     1     -20.306  16.327   2.589  1.00  0.00     0.157 HD
ATOM     18  H11 UNL     1     -21.871  16.752   2.294  1.00  0.00     0.157 HD
ENDBRANCH  10  16
ENDBRANCH   1   9
BRANCH   4  19
HETATM   19  C5  UNL     1     -25.367  21.061   3.645  1.00  0.00     0.036 C
HETATM   20  C6  UNL     1     -25.117  21.536   2.238  1.00  0.00     0.011 C
HETATM   21  C7  UNL     1     -25.188  23.045   2.320  1.00  0.00     0.001 C
HETATM   22  C8  UNL     1     -26.202  23.264   3.395  1.00  0.00     0.001 C
HETATM   23  C9  UNL     1     -25.738  22.270   4.470  1.00  0.00     0.011 C
ENDBRANCH   4  19
BRANCH   6  24
HETATM   24  C12 UNL     1     -22.555  18.893   7.192  1.00  0.00     0.036 A
HETATM   25  C13 UNL     1     -21.283  18.256   7.590  1.00  0.00     0.011 A
HETATM   26  C14 UNL     1     -22.449  17.395   7.315  1.00  0.00     0.011 A
ENDBRANCH   6  24
TORSDOF 4
ENDMDL