MODEL 2
REMARK VINA RESULT: -6.647395247      4.197      6.349
REMARK  4 active torsions:
REMARK  status: ('A' for Active; 'I' for Inactive)
REMARK    1  A    between atoms: O1_2  and  C2_3
REMARK    2  A    between atoms: C6_8  and  O3_9
REMARK    3  A    between atoms: N1_11  and  C7_12
REMARK    4  A    between atoms: C10_15  and  O4_16
ROOT
HETATM    1  C2  UNL     1     -29.650  23.998   5.594  1.00  0.00     0.269 C
HETATM    2  O2  UNL     1     -29.029  25.146   5.104  1.00  0.00    -0.350 OA
HETATM    3  C3  UNL     1     -27.754  24.810   4.728  1.00  0.00     0.171 C
HETATM    4  C4  UNL     1     -27.836  23.841   3.595  1.00  0.00     0.034 A
HETATM    5  C5  UNL     1     -28.357  22.663   4.098  1.00  0.00     0.016 A
HETATM    6  C6  UNL     1     -28.438  21.747   3.053  1.00  0.00     0.152 A
HETATM    7  N1  UNL     1     -27.977  22.358   1.942  1.00  0.00    -0.303 N
HETATM    8  C10 UNL     1     -27.609  23.618   2.240  1.00  0.00     0.154 A
HETATM    9  C11 UNL     1     -28.594  22.917   5.528  1.00  0.00     0.089 C
HETATM   10  C12 UNL     1     -27.376  23.809   5.843  1.00  0.00    -0.005 C
HETATM   11  C13 UNL     1     -26.091  23.117   5.552  1.00  0.00     0.018 C
HETATM   12  C14 UNL     1     -27.479  24.418   7.193  1.00  0.00     0.018 C
ENDROOT
BRANCH   7  13
HETATM   13  C7  UNL     1     -27.894  21.754   0.647  1.00  0.00     0.086 C
HETATM   14  C8  UNL     1     -26.466  21.754   0.107  1.00  0.00     0.032 C
HETATM   15  C9  UNL     1     -28.747  22.438  -0.393  1.00  0.00     0.032 C
ENDBRANCH   7  13
BRANCH   6  16
HETATM   16  O3  UNL     1     -28.919  20.444   3.190  1.00  0.00    -0.345 OA
ATOM     17  H3  UNL     1     -28.643  19.715   2.646  1.00  0.00     0.219 HD
ENDBRANCH   6  16
BRANCH   8  18
HETATM   18  O4  UNL     1     -27.081  24.585   1.378  1.00  0.00    -0.345 OA
ATOM     19  H4  UNL     1     -26.411  24.399   0.731  1.00  0.00     0.219 HD
ENDBRANCH   8  18
BRANCH   1  20
HETATM   20  O1  UNL     1     -30.733  23.733   4.785  1.00  0.00    -0.365 OA
HETATM   21  C1  UNL     1     -31.789  23.315   5.588  1.00  0.00     0.204 C
ENDBRANCH   1  20
TORSDOF 4
ENDMDL