MODEL 1
REMARK VINA RESULT: -7.890056083      0.000      0.000
REMARK  4 active torsions:
REMARK  status: ('A' for Active; 'I' for Inactive)
REMARK    1  A    between atoms: C3_3  and  C4_4
REMARK    2  A    between atoms: C4_4  and  O1_5
REMARK    3  A    between atoms: C4_4  and  C5_7
REMARK    4  A    between atoms: C12_16  and  N1_17
ROOT
HETATM    1  C4  UNL     1     -22.818  18.083   3.422  1.00  0.00     0.189 C
ENDROOT
BRANCH   1   2
HETATM    2  C3  UNL     1     -21.822  18.906   2.677  1.00  0.00     0.039 A
HETATM    3  C2  UNL     1     -21.985  20.088   2.001  1.00  0.00     0.025 A
HETATM    4  C1  UNL     1     -23.315  20.829   2.184  1.00  0.00     0.069 C
HETATM    5  N2  UNL     1     -21.003  20.529   1.282  1.00  0.00    -0.335 N
HETATM    6  C12 UNL     1     -19.878  19.828   1.205  1.00  0.00     0.144 A
HETATM    7  C13 UNL     1     -21.045  21.873   0.634  1.00  0.00     0.158 C
HETATM    8  S1  UNL     1     -20.236  18.468   2.233  1.00  0.00    -0.054 SA
BRANCH   6   9
HETATM    9  N1  UNL     1     -18.815  20.039   0.526  1.00  0.00    -0.379 N
ATOM     10  H12 UNL     1     -17.847  19.777   0.714  1.00  0.00     0.158 HD
ATOM     11  H11 UNL     1     -18.722  20.564  -0.343  1.00  0.00     0.158 HD
ENDBRANCH   6   9
ENDBRANCH   1   2
BRANCH   1  12
HETATM   12  O1  UNL     1     -22.205  16.759   3.473  1.00  0.00    -0.388 OA
ATOM     13  H1  UNL     1     -22.424  16.377   2.631  1.00  0.00     0.210 HD
ENDBRANCH   1  12
BRANCH   1  14
HETATM   14  C5  UNL     1     -22.949  18.431   4.852  1.00  0.00     0.155 C
HETATM   15  C6  UNL     1     -24.019  19.243   5.388  1.00  0.00     0.035 C
HETATM   16  C7  UNL     1     -23.602  20.035   6.629  1.00  0.00     0.003 C
HETATM   17  C8  UNL     1     -23.223  19.186   7.779  1.00  0.00     0.002 C
HETATM   18  C9  UNL     1     -22.634  17.852   7.462  1.00  0.00     0.031 C
HETATM   19  C10 UNL     1     -21.502  17.880   6.490  1.00  0.00     0.118 C
HETATM   20  C11 UNL     1     -20.242  18.291   7.263  1.00  0.00     0.039 C
HETATM   21  O2  UNL     1     -21.718  18.694   5.415  1.00  0.00    -0.378 OA
ENDBRANCH   1  14
TORSDOF 4
ENDMDL