MODEL 2
REMARK VINA RESULT: -7.243576574      0.964      1.023
REMARK  4 active torsions:
REMARK  status: ('A' for Active; 'I' for Inactive)
REMARK    1  A    between atoms: C2_2  and  C4_4
REMARK    2  A    between atoms: C8_11  and  S2_12
REMARK    3  A    between atoms: S2_12  and  C9_13
REMARK    4  A    between atoms: C11_18  and  N4_19
ROOT
HETATM    1  C9  UNL     1     -28.175  21.232   2.889  1.00  0.00     0.206 C
HETATM    2  C10 UNL     1     -28.430  21.541   1.475  1.00  0.00     0.069 C
HETATM    3  N2  UNL     1     -28.615  21.793   0.356  1.00  0.00    -0.197 NA
ENDROOT
BRANCH   1   4
HETATM    4  S2  UNL     1     -26.810  22.308   3.444  1.00  0.00    -0.080 SA
BRANCH   4   5
HETATM    5  C8  UNL     1     -25.299  21.321   3.385  1.00  0.00     0.147 A
HETATM    6  N1  UNL     1     -25.109  20.307   4.214  1.00  0.00    -0.339 N
HETATM    7  C7  UNL     1     -23.990  19.515   4.226  1.00  0.00     0.037 A
ATOM      8  H1  UNL     1     -25.844  20.101   4.889  1.00  0.00     0.168 HD
HETATM    9  C4  UNL     1     -23.663  18.392   5.094  1.00  0.00     0.050 C
HETATM   10  C6  UNL     1     -23.046  19.847   3.295  1.00  0.00     0.067 A
HETATM   11  C5  UNL     1     -22.760  17.415   4.380  1.00  0.00     0.090 C
HETATM   12  S1  UNL     1     -21.724  18.670   3.493  1.00  0.00    -0.123 SA
HETATM   13  C11 UNL     1     -23.222  20.886   2.435  1.00  0.00     0.119 A
HETATM   14  N3  UNL     1     -24.366  21.644   2.470  1.00  0.00    -0.322 N
ATOM     15  H3  UNL     1     -24.504  22.424   1.827  1.00  0.00     0.169 HD
BRANCH   9  16
HETATM   16  C2  UNL     1     -22.902  18.859   6.321  1.00  0.00    -0.012 C
HETATM   17  C1  UNL     1     -23.710  19.858   7.088  1.00  0.00     0.010 C
HETATM   18  C3  UNL     1     -22.489  17.670   7.126  1.00  0.00     0.010 C
ENDBRANCH   9  16
BRANCH  13  19
HETATM   19  N4  UNL     1     -22.349  21.219   1.550  1.00  0.00    -0.384 N
ATOM     20  H42 UNL     1     -21.426  21.473   1.903  1.00  0.00     0.157 HD
ATOM     21  H41 UNL     1     -22.549  21.233   0.550  1.00  0.00     0.157 HD
ENDBRANCH  13  19
ENDBRANCH   4   5
ENDBRANCH   1   4
TORSDOF 4
ENDMDL