MODEL 1
REMARK VINA RESULT: -8.441755129      0.000      0.000
REMARK  5 active torsions:
REMARK  status: ('A' for Active; 'I' for Inactive)
REMARK    1  A    between atoms: C3_4  and  C4_5
REMARK    2  A    between atoms: C4_5  and  O1_8
REMARK    3  A    between atoms: O1_8  and  O2_9
REMARK    4  A    between atoms: O2_9  and  C7_10
REMARK    5  A    between atoms: C11_14  and  O3_15
ROOT
HETATM    1  C7  UNL     1     -22.734  19.349   4.616  1.00  0.00     0.194 C
HETATM    2  C8  UNL     1     -23.686  18.257   4.156  1.00  0.00     0.082 C
HETATM    3  C9  UNL     1     -23.573  20.401   5.299  1.00  0.00     0.073 C
HETATM    4  C10 UNL     1     -23.974  19.999   6.694  1.00  0.00     0.040 C
HETATM    5  C11 UNL     1     -22.758  19.505   7.425  1.00  0.00     0.152 C
HETATM    6  C12 UNL     1     -21.920  18.554   6.640  1.00  0.00     0.083 C
HETATM    7  C13 UNL     1     -20.546  18.496   7.327  1.00  0.00     0.048 C
HETATM    8  C14 UNL     1     -22.515  17.169   6.797  1.00  0.00     0.048 C
HETATM    9  O4  UNL     1     -21.684  18.901   5.347  1.00  0.00    -0.340 OA
ENDROOT
BRANCH   1  10
HETATM   10  O2  UNL     1     -22.235  19.946   3.449  1.00  0.00    -0.200 OA
BRANCH  10  11
HETATM   11  O1  UNL     1     -20.957  19.698   3.286  1.00  0.00    -0.225 OA
BRANCH  11  12
HETATM   12  C4  UNL     1     -20.725  19.465   1.945  1.00  0.00     0.122 C
HETATM   13  C5  UNL     1     -20.754  17.945   1.762  1.00  0.00     0.051 C
HETATM   14  C6  UNL     1     -21.763  20.054   1.045  1.00  0.00     0.051 C
BRANCH  12  15
HETATM   15  C3  UNL     1     -19.351  19.912   1.505  1.00  0.00     0.287 A
HETATM   16  N1  UNL     1     -19.283  21.058   0.653  1.00  0.00     0.096 N
HETATM   17  C1  UNL     1     -18.205  21.262  -0.262  1.00  0.00     0.310 C
HETATM   18  C2  UNL     1     -18.905  21.243   2.063  1.00  0.00     0.311 A
ENDBRANCH  12  15
ENDBRANCH  11  12
ENDBRANCH  10  11
ENDBRANCH   1  10
BRANCH   5  19
HETATM   19  O3  UNL     1     -23.229  18.847   8.579  1.00  0.00    -0.393 OA
ATOM     20  H3  UNL     1     -23.453  17.965   8.310  1.00  0.00     0.210 HD
ENDBRANCH   5  19
TORSDOF 5
ENDMDL