MODEL 1
REMARK VINA RESULT: -8.628979513      0.000      0.000
REMARK  3 active torsions:
REMARK  status: ('A' for Active; 'I' for Inactive)
REMARK    1  A    between atoms: C2_2  and  C10_17
REMARK    2  A    between atoms: C3_3  and  C4_4
REMARK    3  A    between atoms: C4_4  and  N1_5
ROOT
HETATM    1  N1  UNL     1     -26.918  22.640   4.523  1.00  0.00    -0.326 N
HETATM    2  C5  UNL     1     -27.859  21.948   3.758  1.00  0.00     0.195 A
HETATM    3  N2  UNL     1     -27.399  20.950   2.847  1.00  0.00    -0.063 NA
HETATM    4  N3  UNL     1     -29.159  22.168   3.831  1.00  0.00    -0.305 N
ATOM      5  H3  UNL     1     -29.829  21.653   3.261  1.00  0.00     0.171 HD
HETATM    6  C6  UNL     1     -29.563  23.167   4.753  1.00  0.00     0.192 A
HETATM    7  N4  UNL     1     -30.960  23.494   4.922  1.00  0.00    -0.063 NA
HETATM    8  N5  UNL     1     -28.746  23.821   5.472  1.00  0.00    -0.338 N
ATOM      9  H5  UNL     1     -29.132  24.520   6.107  1.00  0.00     0.164 HD
HETATM   10  C7  UNL     1     -27.356  23.658   5.460  1.00  0.00     0.103 A
HETATM   11  C8  UNL     1     -26.588  24.950   5.273  1.00  0.00     0.063 C
HETATM   12  C9  UNL     1     -26.918  23.155   6.852  1.00  0.00     0.063 C
ENDROOT
BRANCH   1  13
HETATM   13  C4  UNL     1     -25.475  22.420   4.454  1.00  0.00     0.155 C
BRANCH  13  14
HETATM   14  C3  UNL     1     -24.944  21.354   5.263  1.00  0.00    -0.004 C
HETATM   15  C2  UNL     1     -24.166  20.400   4.819  1.00  0.00    -0.082 C
HETATM   16  C1  UNL     1     -23.761  20.336   3.388  1.00  0.00     0.043 C
BRANCH  15  17
HETATM   17  C10 UNL     1     -23.626  19.316   5.691  1.00  0.00     0.014 C
HETATM   18  C11 UNL     1     -22.219  18.925   5.358  1.00  0.00     0.009 C
HETATM   19  C12 UNL     1     -21.877  18.090   6.603  1.00  0.00     0.001 C
HETATM   20  C13 UNL     1     -22.270  19.075   7.692  1.00  0.00     0.001 C
HETATM   21  C14 UNL     1     -23.578  19.658   7.141  1.00  0.00     0.009 C
ENDBRANCH  15  17
ENDBRANCH  13  14
ENDBRANCH   1  13
TORSDOF 3
ENDMDL