MODEL 2
REMARK VINA RESULT: -7.275783444      2.460      6.267
REMARK  6 active torsions:
REMARK  status: ('A' for Active; 'I' for Inactive)
REMARK    1  A    between atoms: C2_2  and  C4_4
REMARK    2  A    between atoms: C4_4  and  C5_5
REMARK    3  A    between atoms: C5_5  and  N1_7
REMARK    4  A    between atoms: N1_7  and  C7_9
REMARK    5  A    between atoms: C8_12  and  N3_13
REMARK    6  A    between atoms: C12_17  and  N4_18
ROOT
HETATM    1  C7  UNL     1     -24.394  20.433   3.742  1.00  0.00     0.679 A
HETATM    2  N2  UNL     1     -25.704  20.779   3.607  1.00  0.00    -0.175 N
ATOM      3  H2  UNL     1     -26.398  20.193   4.071  1.00  0.00     0.186 HD
HETATM    4  C8  UNL     1     -26.146  21.829   2.910  1.00  0.00     0.144 A
HETATM    5  C13 UNL     1     -25.150  22.583   2.305  1.00  0.00     0.094 A
HETATM    6 CL1  UNL     1     -25.658  23.975   1.377  1.00  0.00    -0.079 Cl
HETATM    7  C14 UNL     1     -23.826  22.254   2.430  1.00  0.00     0.133 A
HETATM    8  N5  UNL     1     -23.461  21.181   3.148  1.00  0.00    -0.200 N
ATOM      9  H5  UNL     1     -22.475  20.939   3.239  1.00  0.00     0.183 HD
ENDROOT
BRANCH   4  10
HETATM   10  N3  UNL     1     -27.502  22.177   2.776  1.00  0.00    -0.338 N
HETATM   11  C9  UNL     1     -28.289  23.114   3.502  1.00  0.00     0.127 C
HETATM   12  C10 UNL     1     -29.475  23.442   2.611  1.00  0.00     0.024 C
HETATM   13  C11 UNL     1     -29.130  22.802   1.284  1.00  0.00     0.056 C
HETATM   14  C12 UNL     1     -28.377  21.564   1.771  1.00  0.00     0.285 C
BRANCH  14  15
HETATM   15  N4  UNL     1     -29.369  20.715   2.411  1.00  0.00    -0.058 N
ATOM     16  H43 UNL     1     -30.081  20.399   1.751  1.00  0.00     0.276 HD
ATOM     17  H42 UNL     1     -28.984  19.806   2.664  1.00  0.00     0.276 HD
ATOM     18  H41 UNL     1     -29.780  21.191   3.214  1.00  0.00     0.276 HD
ENDBRANCH  14  15
ENDBRANCH   4  10
BRANCH   1  19
HETATM   19  N1  UNL     1     -24.090  19.418   4.425  1.00  0.00    -0.222 N
ATOM     20  H1  UNL     1     -24.780  19.184   5.139  1.00  0.00     0.178 HD
BRANCH  19  21
HETATM   21  C5  UNL     1     -22.981  18.539   4.397  1.00  0.00     0.095 C
HETATM   22  C6  UNL     1     -23.328  17.090   4.312  1.00  0.00     0.032 C
BRANCH  21  23
HETATM   23  C4  UNL     1     -21.923  18.911   5.383  1.00  0.00     0.029 C
BRANCH  23  24
HETATM   24  C2  UNL     1     -22.009  18.319   6.734  1.00  0.00    -0.021 C
HETATM   25  C1  UNL     1     -20.746  18.120   7.489  1.00  0.00     0.009 C
HETATM   26  C3  UNL     1     -22.969  19.055   7.652  1.00  0.00     0.009 C
ENDBRANCH  23  24
ENDBRANCH  21  23
ENDBRANCH  19  21
ENDBRANCH   1  19
TORSDOF 6
ENDMDL