MODEL 1
REMARK VINA RESULT: -7.862805490      0.000      0.000
REMARK  6 active torsions:
REMARK  status: ('A' for Active; 'I' for Inactive)
REMARK    1  A    between atoms: O1_2  and  C2_3
REMARK    2  A    between atoms: C2_3  and  C3_4
REMARK    3  A    between atoms: C3_4  and  N1_5
REMARK    4  A    between atoms: N1_5  and  C4_7
REMARK    5  A    between atoms: C5_10  and  N3_11
REMARK    6  A    between atoms: C7_17  and  C8_18
ROOT
HETATM    1  C4  UNL     1     -22.370  19.927   1.473  1.00  0.00     0.146 A
HETATM    2  N2  UNL     1     -21.336  19.081   1.297  1.00  0.00    -0.175 N
ATOM      3  H2  UNL     1     -20.926  18.995   0.367  1.00  0.00     0.186 HD
HETATM    4  C5  UNL     1     -20.825  18.350   2.298  1.00  0.00     0.678 A
HETATM    5  N4  UNL     1     -21.373  18.474   3.520  1.00  0.00    -0.189 N
ATOM      6  H4  UNL     1     -20.998  17.927   4.294  1.00  0.00     0.184 HD
HETATM    7  C6  UNL     1     -22.409  19.308   3.741  1.00  0.00     0.086 A
HETATM    8  C7  UNL     1     -23.001  19.452   4.999  1.00  0.00    -0.023 A
HETATM    9  C11 UNL     1     -24.067  20.322   5.164  1.00  0.00     0.034 A
HETATM   10  C12 UNL     1     -24.574  21.063   4.118  1.00  0.00     0.006 A
HETATM   11  C13 UNL     1     -25.730  22.008   4.303  1.00  0.00     0.068 C
HETATM   12  N5  UNL     1     -23.988  20.906   2.922  1.00  0.00    -0.355 N
ATOM     13  H5  UNL     1     -24.343  21.441   2.130  1.00  0.00     0.166 HD
HETATM   14  C14 UNL     1     -22.953  20.073   2.724  1.00  0.00     0.105 A
ENDROOT
BRANCH   1  15
HETATM   15  N1  UNL     1     -22.861  20.627   0.504  1.00  0.00    -0.372 N
ATOM     16  H1  UNL     1     -23.642  20.230  -0.019  1.00  0.00     0.161 HD
BRANCH  15  17
HETATM   17  C3  UNL     1     -22.382  21.932   0.110  1.00  0.00     0.147 C
BRANCH  17  18
HETATM   18  C2  UNL     1     -21.588  21.750  -1.169  1.00  0.00     0.186 C
BRANCH  18  19
HETATM   19  O1  UNL     1     -20.403  21.102  -0.968  1.00  0.00    -0.394 OA
HETATM   20  C1  UNL     1     -19.271  21.867  -0.941  1.00  0.00     0.201 C
ENDBRANCH  18  19
ENDBRANCH  17  18
ENDBRANCH  15  17
ENDBRANCH   1  15
BRANCH   4  21
HETATM   21  N3  UNL     1     -19.819  17.531   2.101  1.00  0.00    -0.234 N
ATOM     22  H32 UNL     1     -19.139  17.716   1.365  1.00  0.00     0.174 HD
ATOM     23  H31 UNL     1     -19.692  16.697   2.675  1.00  0.00     0.174 HD
ENDBRANCH   4  21
BRANCH   8  24
HETATM   24  C8  UNL     1     -22.457  18.641   6.103  1.00  0.00     0.013 C
HETATM   25  C9  UNL     1     -22.796  19.177   7.477  1.00  0.00     0.015 C
HETATM   26  C10 UNL     1     -22.986  17.214   6.082  1.00  0.00     0.015 C
ENDBRANCH   8  24
TORSDOF 6
ENDMDL