MODEL 5
REMARK VINA RESULT: -8.248798343      3.766      5.764
REMARK  5 active torsions:
REMARK  status: ('A' for Active; 'I' for Inactive)
REMARK    1  A    between atoms: C4_4  and  C5_5
REMARK    2  A    between atoms: C6_6  and  O1_7
REMARK    3  A    between atoms: N2_13  and  C8_14
REMARK    4  A    between atoms: C8_14  and  C9_15
REMARK    5  A    between atoms: C9_15  and  C10_16
ROOT
HETATM    1  C5  UNL     1     -24.680  22.200   4.612  1.00  0.00     0.084 A
HETATM    2  C6  UNL     1     -24.191  22.127   3.335  1.00  0.00     0.160 A
HETATM    3  N1  UNL     1     -23.554  20.986   2.921  1.00  0.00    -0.288 N
ATOM      4  H1  UNL     1     -23.187  20.927   1.970  1.00  0.00     0.172 HD
HETATM    5  C7  UNL     1     -23.408  19.939   3.764  1.00  0.00     0.331 A
HETATM    6  O2  UNL     1     -22.817  18.911   3.347  1.00  0.00    -0.246 OA
HETATM    7  N2  UNL     1     -23.878  19.978   5.027  1.00  0.00    -0.265 N
HETATM    8  C12 UNL     1     -24.504  21.104   5.428  1.00  0.00     0.266 A
HETATM    9  O3  UNL     1     -24.954  21.169   6.602  1.00  0.00    -0.267 OA
ENDROOT
BRANCH   1  10
HETATM   10  C4  UNL     1     -25.320  23.391   5.101  1.00  0.00     0.029 C
HETATM   11  C3  UNL     1     -26.578  23.673   5.201  1.00  0.00    -0.049 C
HETATM   12  C2  UNL     1     -27.787  22.939   4.867  1.00  0.00    -0.028 C
HETATM   13  C13 UNL     1     -27.140  24.953   5.794  1.00  0.00     0.042 C
HETATM   14  C1  UNL     1     -27.924  22.104   3.854  1.00  0.00     0.022 C
HETATM   15  C15 UNL     1     -28.848  23.309   5.826  1.00  0.00     0.203 C
HETATM   16  C14 UNL     1     -28.192  24.338   6.704  1.00  0.00     0.047 C
HETATM   17  F1  UNL     1     -29.906  23.961   5.180  1.00  0.00    -0.244 F
ENDBRANCH   1  10
BRANCH   2  18
HETATM   18  O1  UNL     1     -24.309  23.157   2.416  1.00  0.00    -0.345 OA
ATOM     19  H1  UNL     1     -23.585  23.721   2.171  1.00  0.00     0.219 HD
ENDBRANCH   2  18
BRANCH   7  20
HETATM   20  C8  UNL     1     -23.744  18.894   5.948  1.00  0.00     0.137 C
BRANCH  20  21
HETATM   21  C9  UNL     1     -22.652  19.093   6.969  1.00  0.00     0.020 C
BRANCH  21  22
HETATM   22  C10 UNL     1     -21.881  17.772   7.033  1.00  0.00    -0.003 C
HETATM   23  C11 UNL     1     -20.497  18.026   7.600  1.00  0.00     0.005 C
ENDBRANCH  21  22
ENDBRANCH  20  21
ENDBRANCH   7  20
TORSDOF 5
ENDMDL