MODEL 4
REMARK VINA RESULT: -7.245598242      3.212      4.911
REMARK  6 active torsions:
REMARK  status: ('A' for Active; 'I' for Inactive)
REMARK    1  A    between atoms: C4_5  and  O1_6
REMARK    2  A    between atoms: C6_9  and  C7_10
REMARK    3  A    between atoms: C12_15  and  S1_16
REMARK    4  A    between atoms: S1_16  and  C13_18
REMARK    5  A    between atoms: C13_18  and  C14_19
REMARK    6  A    between atoms: C14_19  and  O3_20
ROOT
HETATM    1  C1  UNL     1     -23.249  18.450   3.464  1.00  0.00     0.053 C
HETATM    2  C2  UNL     1     -23.705  19.187   4.703  1.00  0.00    -0.001 A
HETATM    3  C3  UNL     1     -23.376  18.779   5.941  1.00  0.00     0.156 A
HETATM    4  F1  UNL     1     -22.711  17.608   6.157  1.00  0.00    -0.203 F
HETATM    5  C4  UNL     1     -23.732  19.543   7.062  1.00  0.00     0.105 A
HETATM    6  C5  UNL     1     -24.440  20.746   6.881  1.00  0.00     0.048 A
HETATM    7  C6  UNL     1     -24.800  21.187   5.621  1.00  0.00    -0.031 A
HETATM    8  C12 UNL     1     -24.391  20.344   4.545  1.00  0.00     0.047 A
ENDROOT
BRANCH   8   9
HETATM    9  S1  UNL     1     -24.738  20.976   2.980  1.00  0.00     0.053 S
HETATM   10  O2  UNL     1     -26.111  20.669   2.211  1.00  0.00    -0.253 OA
BRANCH   9  11
HETATM   11  C13 UNL     1     -23.352  21.588   2.133  1.00  0.00     0.140 C
BRANCH  11  12
HETATM   12  C14 UNL     1     -23.181  21.144   0.691  1.00  0.00     0.177 C
BRANCH  12  13
HETATM   13  O3  UNL     1     -23.673  19.840   0.485  1.00  0.00    -0.400 OA
ATOM     14  H3  UNL     1     -23.108  19.338  -0.089  1.00  0.00     0.209 HD
ENDBRANCH  12  13
ENDBRANCH  11  12
ENDBRANCH   9  11
ENDBRANCH   8   9
BRANCH   7  15
HETATM   15  C7  UNL     1     -25.701  22.301   5.497  1.00  0.00     0.020 C
HETATM   16  C8  UNL     1     -25.228  23.689   5.400  1.00  0.00     0.009 C
HETATM   17  C9  UNL     1     -26.639  24.356   5.348  1.00  0.00     0.001 C
HETATM   18  C10 UNL     1     -27.245  23.774   6.637  1.00  0.00     0.001 C
HETATM   19  C11 UNL     1     -26.431  22.498   6.916  1.00  0.00     0.009 C
ENDBRANCH   7  15
BRANCH   5  20
HETATM   20  O1  UNL     1     -23.388  19.103   8.338  1.00  0.00    -0.358 OA
ATOM     21  H1  UNL     1     -23.237  19.734   9.031  1.00  0.00     0.217 HD
ENDBRANCH   5  20
TORSDOF 6
ENDMDL