MODEL 1
REMARK VINA RESULT: -8.205103370      0.000      0.000
REMARK  4 active torsions:
REMARK  status: ('A' for Active; 'I' for Inactive)
REMARK    1  A    between atoms: C7_9  and  C8_10
REMARK    2  A    between atoms: C8_10  and  C9_11
REMARK    3  A    between atoms: C9_11  and  C10_12
REMARK    4  A    between atoms: C10_12  and  N2_13
ROOT
HETATM    1  N1  UNL     1     -23.053  18.878   8.309  1.00  0.00    -0.102 NA
HETATM    2  C1  UNL     1     -23.149  19.106   6.908  1.00  0.00     0.050 A
HETATM    3  C2  UNL     1     -22.401  18.396   5.993  1.00  0.00     0.071 A
HETATM    4  C3  UNL     1     -22.523  18.655   4.653  1.00  0.00     0.145 A
HETATM    5  F1  UNL     1     -21.801  17.976   3.703  1.00  0.00    -0.204 F
HETATM    6  C4  UNL     1     -23.386  19.632   4.138  1.00  0.00     0.080 A
HETATM    7  C5  UNL     1     -24.136  20.343   5.044  1.00  0.00    -0.022 A
HETATM    8  C6  UNL     1     -24.001  20.069   6.390  1.00  0.00     0.036 A
HETATM    9  C7  UNL     1     -25.085  21.346   4.527  1.00  0.00     0.030 C
HETATM   10  C15 UNL     1     -24.526  22.031   3.345  1.00  0.00     0.112 C
HETATM   11  C16 UNL     1     -24.324  20.950   2.298  1.00  0.00     0.222 C
HETATM   12  O1  UNL     1     -24.843  20.950   1.186  1.00  0.00    -0.273 OA
HETATM   13  N3  UNL     1     -23.441  19.894   2.736  1.00  0.00    -0.324 N
ATOM     14  H3  UNL     1     -22.882  19.358   2.072  1.00  0.00     0.169 HD
ENDROOT
BRANCH   9  15
HETATM   15  C8  UNL     1     -25.674  22.195   5.616  1.00  0.00     0.011 C
BRANCH  15  16
HETATM   16  C9  UNL     1     -26.616  23.195   5.060  1.00  0.00     0.031 C
BRANCH  16  17
HETATM   17  C10 UNL     1     -28.068  22.856   5.068  1.00  0.00     0.272 C
BRANCH  17  18
HETATM   18  N2  UNL     1     -28.702  22.720   3.803  1.00  0.00     0.088 N
HETATM   19  C11 UNL     1     -28.573  21.331   3.316  1.00  0.00     0.272 C
HETATM   20  C12 UNL     1     -28.714  21.458   1.809  1.00  0.00     0.032 C
HETATM   21  C13 UNL     1     -27.831  22.668   1.576  1.00  0.00     0.032 C
HETATM   22  C14 UNL     1     -28.143  23.533   2.775  1.00  0.00     0.272 C
ENDBRANCH  17  18
ENDBRANCH  16  17
ENDBRANCH  15  16
ENDBRANCH   9  15
TORSDOF 4
ENDMDL