MODEL 5
REMARK VINA RESULT: -7.849570644      2.371      2.636
REMARK  4 active torsions:
REMARK  status: ('A' for Active; 'I' for Inactive)
REMARK    1  A    between atoms: C2_2  and  C3_3
REMARK    2  A    between atoms: C3_3  and  O1_4
REMARK    3  A    between atoms: O1_4  and  C4_5
REMARK    4  A    between atoms: C9_10  and  O2_11
ROOT
HETATM    1  C4  UNL     1     -23.092  18.578   4.439  1.00  0.00     0.102 A
HETATM    2  C5  UNL     1     -24.194  19.387   4.667  1.00  0.00     0.047 A
HETATM    3  C6  UNL     1     -24.459  20.445   3.815  1.00  0.00    -0.043 A
HETATM    4  C7  UNL     1     -23.657  20.728   2.732  1.00  0.00    -0.031 A
HETATM    5  C8  UNL     1     -22.565  19.914   2.523  1.00  0.00     0.049 A
HETATM    6  C9  UNL     1     -22.273  18.844   3.361  1.00  0.00     0.102 A
HETATM    7  C11 UNL     1     -23.776  21.790   1.734  1.00  0.00     0.160 C
HETATM    8  N1  UNL     1     -25.116  22.077   1.321  1.00  0.00    -0.371 N
ATOM      9  H1  UNL     1     -25.178  22.637   0.471  1.00  0.00     0.161 HD
HETATM   10  C12 UNL     1     -26.371  21.729   1.876  1.00  0.00     0.110 A
HETATM   11  N2  UNL     1     -27.510  21.765   1.139  1.00  0.00    -0.319 N
ATOM     12  H2  UNL     1     -27.579  22.031   0.157  1.00  0.00     0.169 HD
HETATM   13  C13 UNL     1     -28.531  21.387   1.928  1.00  0.00     0.190 A
HETATM   14  F1  UNL     1     -29.845  21.287   1.574  1.00  0.00    -0.186 F
HETATM   15  C14 UNL     1     -28.015  21.108   3.193  1.00  0.00     0.072 A
HETATM   16  C15 UNL     1     -26.655  21.326   3.152  1.00  0.00    -0.006 A
HETATM   17  C16 UNL     1     -25.685  21.159   4.263  1.00  0.00     0.082 C
ENDROOT
BRANCH   1  18
HETATM   18  O1  UNL     1     -22.807  17.512   5.283  1.00  0.00    -0.345 OA
BRANCH  18  19
HETATM   19  C3  UNL     1     -22.692  17.731   6.662  1.00  0.00     0.202 C
BRANCH  19  20
HETATM   20  C2  UNL     1     -21.480  18.529   6.927  1.00  0.00    -0.011 C
HETATM   21  C1  UNL     1     -20.506  18.027   7.654  1.00  0.00     0.009 C
ENDBRANCH  19  20
ENDBRANCH  18  19
ENDBRANCH   1  18
BRANCH   6  22
HETATM   22  O2  UNL     1     -21.182  18.019   3.162  1.00  0.00    -0.353 OA
HETATM   23  C10 UNL     1     -20.472  18.028   1.943  1.00  0.00     0.210 C
ENDBRANCH   6  22
TORSDOF 4
ENDMDL