MODEL 3
REMARK VINA RESULT: -8.520238150      1.760      2.813
REMARK  5 active torsions:
REMARK  status: ('A' for Active; 'I' for Inactive)
REMARK    1  A    between atoms: N1_1  and  C1_4
REMARK    2  A    between atoms: C5_11  and  C6_12
REMARK    3  A    between atoms: C6_12  and  O1_13
REMARK    4  A    between atoms: O1_13  and  C7_14
REMARK    5  A    between atoms: C7_14  and  C8_15
ROOT
HETATM    1  C6  UNL     1     -24.472  20.023   4.837  1.00  0.00     0.210 C
ENDROOT
BRANCH   1   2
HETATM    2  C5  UNL     1     -23.371  19.490   5.638  1.00  0.00     0.009 A
HETATM    3  C1  UNL     1     -22.159  19.173   5.003  1.00  0.00     0.109 A
HETATM    4  N2  UNL     1     -21.150  18.642   5.691  1.00  0.00    -0.319 N
HETATM    5  C2  UNL     1     -21.208  18.376   7.011  1.00  0.00     0.189 A
ATOM      6  H2  UNL     1     -20.287  18.426   5.192  1.00  0.00     0.169 HD
HETATM    7  F1  UNL     1     -20.186  17.839   7.710  1.00  0.00    -0.186 F
HETATM    8  C3  UNL     1     -22.365  18.661   7.694  1.00  0.00     0.062 A
HETATM    9  C4  UNL     1     -23.434  19.219   6.978  1.00  0.00     0.017 A
BRANCH   3  10
HETATM   10  N1  UNL     1     -22.014  19.398   3.722  1.00  0.00    -0.385 N
ATOM     11  H12 UNL     1     -21.226  19.953   3.388  1.00  0.00     0.157 HD
ATOM     12  H11 UNL     1     -22.695  19.013   3.067  1.00  0.00     0.157 HD
ENDBRANCH   3  10
ENDBRANCH   1   2
BRANCH   1  13
HETATM   13  O1  UNL     1     -24.491  21.366   4.582  1.00  0.00    -0.384 OA
BRANCH  13  14
HETATM   14  C7  UNL     1     -25.518  21.706   3.757  1.00  0.00     0.206 C
BRANCH  14  15
HETATM   15  C8  UNL     1     -26.445  22.755   4.343  1.00  0.00     0.083 C
HETATM   16  C9  UNL     1     -27.857  22.258   4.113  1.00  0.00     0.045 C
HETATM   17  C10 UNL     1     -28.818  23.261   4.710  1.00  0.00    -0.009 C
HETATM   18  C11 UNL     1     -28.485  23.401   6.174  1.00  0.00     0.009 C
HETATM   19  C15 UNL     1     -28.600  24.568   3.960  1.00  0.00     0.037 C
HETATM   20  C12 UNL     1     -27.100  23.949   6.360  1.00  0.00    -0.009 C
HETATM   21  C13 UNL     1     -26.943  25.237   5.598  1.00  0.00     0.037 C
HETATM   22  C16 UNL     1     -26.116  22.934   5.788  1.00  0.00     0.045 C
HETATM   23  C14 UNL     1     -27.130  24.929   4.133  1.00  0.00     0.123 C
HETATM   24  O2  UNL     1     -26.287  23.958   3.666  1.00  0.00    -0.373 OA
ENDBRANCH  14  15
ENDBRANCH  13  14
ENDBRANCH   1  13
TORSDOF 5
ENDMDL