MODEL 2
REMARK VINA RESULT: -7.260386345      1.533      2.380
REMARK  5 active torsions:
REMARK  status: ('A' for Active; 'I' for Inactive)
REMARK    1  A    between atoms: C2_2  and  N1_3
REMARK    2  A    between atoms: C6_7  and  C7_8
REMARK    3  A    between atoms: C7_8  and  O1_10
REMARK    4  A    between atoms: C7_8  and  N2_12
REMARK    5  A    between atoms: N2_12  and  C9_14
ROOT
HETATM    1  C7  UNL     1     -25.293  21.561   4.435  1.00  0.00     0.152 C
HETATM    2  C8  UNL     1     -25.780  21.001   3.166  1.00  0.00     0.076 C
ENDROOT
BRANCH   1   3
HETATM    3  C6  UNL     1     -26.315  22.537   4.977  1.00  0.00     0.013 C
HETATM    4  C5  UNL     1     -26.303  22.811   6.283  1.00  0.00    -0.014 C
HETATM    5  C4  UNL     1     -27.315  23.779   6.804  1.00  0.00     0.047 C
HETATM    6  C3  UNL     1     -27.158  24.986   5.828  1.00  0.00     0.128 C
HETATM    7  N1  UNL     1     -27.661  24.512   4.596  1.00  0.00    -0.368 N
HETATM    8  C14 UNL     1     -27.327  23.205   4.168  1.00  0.00     0.134 C
HETATM    9  C15 UNL     1     -26.995  23.344   2.697  1.00  0.00     0.062 C
HETATM   10 CL1  UNL     1     -28.823  22.183   4.215  1.00  0.00    -0.090 Cl
BRANCH   7  11
HETATM   11  C2  UNL     1     -28.781  25.159   4.072  1.00  0.00     0.056 C
HETATM   12  C1  UNL     1     -29.931  25.351   5.047  1.00  0.00     0.054 C
ENDBRANCH   7  11
ENDBRANCH   1   3
BRANCH   1  13
HETATM   13  O1  UNL     1     -24.193  22.479   4.133  1.00  0.00    -0.367 OA
ATOM     14  H1  UNL     1     -23.538  22.163   4.744  1.00  0.00     0.213 HD
ENDBRANCH   1  13
BRANCH   1  15
HETATM   15  N2  UNL     1     -24.813  20.795   5.471  1.00  0.00    -0.384 N
ATOM     16  H2  UNL     1     -25.335  20.923   6.337  1.00  0.00     0.157 HD
BRANCH  15  17
HETATM   17  C9  UNL     1     -23.801  19.910   5.592  1.00  0.00     0.079 C
HETATM   18  C10 UNL     1     -23.439  19.558   7.008  1.00  0.00     0.025 C
HETATM   19  C11 UNL     1     -22.676  18.256   6.896  1.00  0.00     0.002 C
HETATM   20  C12 UNL     1     -23.121  17.596   5.639  1.00  0.00     0.002 C
HETATM   21  C13 UNL     1     -23.912  18.609   4.844  1.00  0.00     0.025 C
ENDBRANCH  15  17
ENDBRANCH   1  15
TORSDOF 5
ENDMDL