MODEL 5
REMARK VINA RESULT: -7.389013714      3.326      6.478
REMARK  5 active torsions:
REMARK  status: ('A' for Active; 'I' for Inactive)
REMARK    1  A    between atoms: C2_2  and  C3_3
REMARK    2  A    between atoms: N1_6  and  C6_7
REMARK    3  A    between atoms: C11_12  and  N2_13
REMARK    4  A    between atoms: C12_18  and  O1_19
REMARK    5  A    between atoms: O1_19  and  C13_20
ROOT
HETATM    1  C3  UNL     1     -27.159  21.932   2.248  1.00  0.00    -0.031 A
HETATM    2  C4  UNL     1     -25.797  21.475   1.828  1.00  0.00     0.030 C
HETATM    3  C5  UNL     1     -24.682  21.933   2.698  1.00  0.00     0.128 C
HETATM    4  N1  UNL     1     -25.122  21.569   4.079  1.00  0.00    -0.340 N
HETATM    5  C12 UNL     1     -26.159  22.414   4.527  1.00  0.00     0.230 C
HETATM    6  C14 UNL     1     -27.373  22.370   3.607  1.00  0.00     0.044 A
HETATM    7  C15 UNL     1     -27.872  21.045   3.183  1.00  0.00     0.020 A
ENDROOT
BRANCH   4   8
HETATM    8  C6  UNL     1     -24.533  20.461   4.724  1.00  0.00     0.107 A
HETATM    9  C7  UNL     1     -24.182  19.277   4.126  1.00  0.00     0.055 A
HETATM   10  C8  UNL     1     -23.569  18.213   4.792  1.00  0.00    -0.055 A
HETATM   11  C9  UNL     1     -23.234  16.977   4.043  1.00  0.00     0.048 C
HETATM   12  C10 UNL     1     -23.305  18.370   6.127  1.00  0.00     0.054 A
HETATM   13  C11 UNL     1     -23.644  19.537   6.745  1.00  0.00     0.100 A
HETATM   14  N3  UNL     1     -24.230  20.529   6.062  1.00  0.00    -0.329 N
ATOM     15  H3  UNL     1     -24.465  21.385   6.564  1.00  0.00     0.169 HD
BRANCH  13  16
HETATM   16  N2  UNL     1     -23.372  19.634   8.007  1.00  0.00    -0.385 N
ATOM     17  H22 UNL     1     -23.182  18.817   8.587  1.00  0.00     0.157 HD
ATOM     18  H21 UNL     1     -23.356  20.572   8.406  1.00  0.00     0.157 HD
ENDBRANCH  13  16
ENDBRANCH   4   8
BRANCH   5  19
HETATM   19  O1  UNL     1     -26.628  22.331   5.796  1.00  0.00    -0.352 OA
BRANCH  19  20
HETATM   20  C13 UNL     1     -26.383  23.512   6.507  1.00  0.00     0.284 C
HETATM   21 CL1  UNL     1     -27.898  24.334   6.883  1.00  0.00    -0.102 Cl
ENDBRANCH  19  20
ENDBRANCH   5  19
BRANCH   1  22
HETATM   22  C2  UNL     1     -27.879  22.707   1.172  1.00  0.00     0.005 C
HETATM   23  C1  UNL     1     -28.651  21.906   0.211  1.00  0.00     0.006 C
ENDBRANCH   1  22
TORSDOF 5
ENDMDL