MODEL 5
REMARK VINA RESULT: -6.167558674      2.785      3.914
REMARK  3 active torsions:
REMARK  status: ('A' for Active; 'I' for Inactive)
REMARK    1  A    between atoms: S1_2  and  C2_3
REMARK    2  A    between atoms: C3_4  and  C4_5
REMARK    3  A    between atoms: C4_5  and  C5_6
ROOT
HETATM    1  C2  UNL     1      73.870  33.571  -1.791  1.00  0.00     0.025 A
HETATM    2  C3  UNL     1      75.160  33.041  -1.625  1.00  0.00     0.037 A
HETATM    3  C6  UNL     1      75.346  31.879  -0.925  1.00  0.00     0.254 A
HETATM    4  O3  UNL     1      76.495  31.373  -0.757  1.00  0.00    -0.268 OA
HETATM    5  N1  UNL     1      74.237  31.283  -0.413  1.00  0.00    -0.322 N
ATOM      6  H1  UNL     1      74.351  30.417   0.114  1.00  0.00     0.169 HD
HETATM    7  C7  UNL     1      72.991  31.782  -0.568  1.00  0.00     0.047 A
HETATM    8  C8  UNL     1      71.926  31.099  -0.031  1.00  0.00     0.039 A
HETATM    9  C9  UNL     1      70.665  31.584  -0.201  1.00  0.00    -0.037 A
HETATM   10  C10 UNL     1      69.482  30.889   0.351  1.00  0.00     0.050 C
HETATM   11  C11 UNL     1      70.462  32.735  -0.898  1.00  0.00     0.046 A
HETATM   12 CL1  UNL     1      68.839  33.354  -1.117  1.00  0.00    -0.083 Cl
HETATM   13  C12 UNL     1      71.502  33.488  -1.475  1.00  0.00    -0.026 A
HETATM   14  C13 UNL     1      71.248  34.687  -2.264  1.00  0.00     0.051 C
HETATM   15  C14 UNL     1      72.763  32.964  -1.277  1.00  0.00     0.016 A
ENDROOT
BRANCH   2  16
HETATM   16  C4  UNL     1      76.311  33.733  -2.237  1.00  0.00     0.159 C
BRANCH  16  17
HETATM   17  C5  UNL     1      76.780  32.971  -3.439  1.00  0.00     0.177 C
HETATM   18  O1  UNL     1      78.014  32.643  -3.491  1.00  0.00    -0.648 OA
HETATM   19  O2  UNL     1      75.865  32.664  -4.415  1.00  0.00    -0.648 OA
ENDBRANCH  16  17
ENDBRANCH   2  16
BRANCH   1  20
HETATM   20  S1  UNL     1      73.784  35.095  -2.673  1.00  0.00    -0.133 SA
HETATM   21  C1  UNL     1      74.182  36.534  -1.638  1.00  0.00     0.095 C
ENDBRANCH   1  20
TORSDOF 3
ENDMDL