MODEL 2
REMARK VINA RESULT: -5.497791923      2.029      3.239
REMARK  5 active torsions:
REMARK  status: ('A' for Active; 'I' for Inactive)
REMARK    1  A    between atoms: C3_3  and  C4_4
REMARK    2  A    between atoms: C4_4  and  C5_5
REMARK    3  A    between atoms: C8_9  and  C9_10
REMARK    4  A    between atoms: C11_12  and  O1_13
REMARK    5  A    between atoms: N1_18  and  C14_19
ROOT
HETATM    1  C4  UNL     1      73.286  33.690  -2.364  1.00  0.00     0.030 C
ENDROOT
BRANCH   1   2
HETATM    2  C3  UNL     1      73.289  34.995  -2.311  1.00  0.00     0.014 A
HETATM    3  C2  UNL     1      73.226  35.827  -3.440  1.00  0.00     0.037 A
HETATM    4  C1  UNL     1      73.154  35.404  -4.696  1.00  0.00     0.044 C
HETATM    5  N1  UNL     1      73.247  37.100  -3.047  1.00  0.00    -0.351 N
HETATM    6  C13 UNL     1      73.323  37.110  -1.709  1.00  0.00     0.116 A
HETATM    7  C12 UNL     1      73.350  35.828  -1.214  1.00  0.00     0.062 A
HETATM    8 CL1  UNL     1      73.451  35.333   0.474  1.00  0.00    -0.082 Cl
BRANCH   5   9
HETATM    9  C14 UNL     1      73.197  38.247  -3.968  1.00  0.00     0.081 C
HETATM   10  C15 UNL     1      72.136  39.226  -3.556  1.00  0.00     0.032 C
HETATM   11  C16 UNL     1      74.536  38.982  -3.952  1.00  0.00     0.032 C
ENDBRANCH   5   9
ENDBRANCH   1   2
BRANCH   1  12
HETATM   12  C5  UNL     1      72.448  32.819  -1.497  1.00  0.00     0.012 A
HETATM   13  C6  UNL     1      73.006  31.844  -0.712  1.00  0.00    -0.008 A
HETATM   14  C7  UNL     1      74.479  31.513  -0.584  1.00  0.00     0.057 C
HETATM   15  S1  UNL     1      71.658  31.134   0.042  1.00  0.00    -0.096 SA
HETATM   16  C8  UNL     1      70.424  32.078  -0.643  1.00  0.00     0.017 A
HETATM   17  C11 UNL     1      71.103  32.942  -1.460  1.00  0.00     0.090 A
BRANCH  16  18
HETATM   18  C9  UNL     1      68.938  31.969  -0.398  1.00  0.00     0.045 C
HETATM   19  C10 UNL     1      68.418  30.596  -0.658  1.00  0.00     0.010 C
ENDBRANCH  16  18
BRANCH  17  20
HETATM   20  O1  UNL     1      70.349  33.897  -2.205  1.00  0.00    -0.359 OA
ATOM     21  H1  UNL     1      70.569  34.203  -3.078  1.00  0.00     0.217 HD
ENDBRANCH  17  20
ENDBRANCH   1  12
TORSDOF 5
ENDMDL