MODEL 4
REMARK VINA RESULT: -5.474644126      4.056      6.720
REMARK  2 active torsions:
REMARK  status: ('A' for Active; 'I' for Inactive)
REMARK    1  A    between atoms: N1_2  and  C3_4
REMARK    2  A    between atoms: C6_7  and  C7_8
ROOT
HETATM    1  C7  UNL     1      73.241  36.674  -4.080  1.00  0.00     0.143 C
HETATM    2  N2  UNL     1      72.149  37.092  -4.933  1.00  0.00    -0.217 N
ATOM      3  H2  UNL     1      71.282  36.555  -4.976  1.00  0.00     0.178 HD
HETATM    4  C8  UNL     1      72.320  38.266  -5.706  1.00  0.00     0.668 C
HETATM    5  N3  UNL     1      71.344  39.000  -6.100  1.00  0.00    -0.235 N
ATOM      6  H31 UNL     1      71.467  39.846  -6.657  1.00  0.00     0.174 HD
ATOM      7  H32 UNL     1      70.377  38.768  -5.869  1.00  0.00     0.174 HD
HETATM    8  N4  UNL     1      73.679  38.592  -6.031  1.00  0.00    -0.217 N
ATOM      9  H4  UNL     1      73.853  39.306  -6.738  1.00  0.00     0.178 HD
HETATM   10  C9  UNL     1      74.798  37.962  -5.410  1.00  0.00     0.049 C
HETATM   11  C10 UNL     1      75.353  38.881  -4.339  1.00  0.00     0.039 C
HETATM   12  C11 UNL     1      75.888  37.815  -6.468  1.00  0.00     0.039 C
HETATM   13  C12 UNL     1      74.484  36.574  -4.845  1.00  0.00     0.003 C
HETATM   14  C13 UNL     1      75.707  36.258  -3.982  1.00  0.00     0.020 C
HETATM   15  C14 UNL     1      74.416  35.648  -6.041  1.00  0.00     0.020 C
ENDROOT
BRANCH   1  16
HETATM   16  C6  UNL     1      72.764  35.522  -3.318  1.00  0.00    -0.032 A
HETATM   17  C5  UNL     1      72.270  34.350  -3.782  1.00  0.00     0.011 A
HETATM   18  C4  UNL     1      71.868  33.353  -2.916  1.00  0.00     0.031 A
HETATM   19  C3  UNL     1      71.943  33.479  -1.533  1.00  0.00     0.051 A
HETATM   20  C16 UNL     1      72.444  34.665  -1.064  1.00  0.00     0.061 A
HETATM   21  C15 UNL     1      72.843  35.658  -1.940  1.00  0.00     0.035 A
HETATM   22 CL1  UNL     1      72.586  34.918   0.667  1.00  0.00    -0.082 Cl
BRANCH  19  23
HETATM   23  N1  UNL     1      71.493  32.396  -0.734  1.00  0.00    -0.388 N
HETATM   24  C1  UNL     1      70.052  32.280  -0.470  1.00  0.00     0.149 C
HETATM   25  C2  UNL     1      72.327  31.387  -0.137  1.00  0.00     0.149 C
ENDBRANCH  19  23
ENDBRANCH   1  16
TORSDOF 2
ENDMDL