MODEL 5
REMARK VINA RESULT: -6.442225809      2.876      3.437
REMARK  3 active torsions:
REMARK  status: ('A' for Active; 'I' for Inactive)
REMARK    1  A    between atoms: C6_6  and  O1_7
REMARK    2  A    between atoms: O1_7  and  C7_8
REMARK    3  A    between atoms: C11_15  and  S1_16
ROOT
HETATM    1  C7  UNL     1      74.340  33.615  -3.097  1.00  0.00     0.174 A
HETATM    2  N1  UNL     1      75.149  32.674  -3.604  1.00  0.00    -0.338 N
ATOM      3  H1  UNL     1      75.312  31.763  -3.177  1.00  0.00     0.168 HD
HETATM    4  C8  UNL     1      75.726  33.097  -4.764  1.00  0.00     0.031 A
HETATM    5  C9  UNL     1      76.680  32.273  -5.572  1.00  0.00     0.070 C
HETATM    6  C10 UNL     1      75.278  34.358  -5.021  1.00  0.00     0.085 A
HETATM    7 CL1  UNL     1      75.721  35.365  -6.412  1.00  0.00    -0.080 Cl
HETATM    8  C11 UNL     1      74.424  34.683  -3.998  1.00  0.00     0.155 A
ENDROOT
BRANCH   1   9
HETATM    9  O1  UNL     1      73.556  33.663  -1.984  1.00  0.00    -0.292 OA
BRANCH   9  10
HETATM   10  C6  UNL     1      72.826  32.816  -1.270  1.00  0.00     0.084 A
HETATM   11  C5  UNL     1      73.230  31.715  -0.548  1.00  0.00     0.038 A
HETATM   12  C4  UNL     1      72.369  30.887   0.168  1.00  0.00     0.003 A
HETATM   13  C3  UNL     1      71.031  31.169   0.170  1.00  0.00     0.007 A
HETATM   14  C2  UNL     1      70.563  32.254  -0.530  1.00  0.00    -0.053 A
HETATM   15  C1  UNL     1      69.110  32.564  -0.532  1.00  0.00     0.049 C
HETATM   16  C12 UNL     1      71.434  33.055  -1.231  1.00  0.00    -0.022 A
HETATM   17  C13 UNL     1      70.935  34.207  -1.992  1.00  0.00     0.052 C
ENDBRANCH   9  10
ENDBRANCH   1   9
BRANCH   8  18
HETATM   18  S1  UNL     1      73.630  36.228  -3.873  1.00  0.00     0.143 S
HETATM   19  O2  UNL     1      73.372  36.577  -2.419  1.00  0.00    -0.591 OA
HETATM   20  O3  UNL     1      72.290  36.193  -4.522  1.00  0.00    -0.591 OA
HETATM   21  O4  UNL     1      74.542  37.446  -4.527  1.00  0.00    -0.591 OA
ENDBRANCH   8  18
TORSDOF 3
ENDMDL