MODEL 2
REMARK VINA RESULT: -8.146021206      0.178      1.274
REMARK  3 active torsions:
REMARK  status: ('A' for Active; 'I' for Inactive)
REMARK    1  A    between atoms: C3_5  and  S1_6
REMARK    2  A    between atoms: S1_6  and  C4_7
REMARK    3  A    between atoms: C4_7  and  C5_8
ROOT
HETATM    1  S1  UNL     1      68.459  31.826  -0.398  1.00  0.00    -0.086 SA
ENDROOT
BRANCH   1   2
HETATM    2  C3  UNL     1      70.233  31.892  -0.621  1.00  0.00     0.145 A
HETATM    3  N1  UNL     1      71.017  31.171   0.109  1.00  0.00    -0.336 N
HETATM    4  C2  UNL     1      72.417  31.206  -0.050  1.00  0.00     0.048 A
ATOM      5  H1  UNL     1      70.613  30.560   0.818  1.00  0.00     0.168 HD
HETATM    6  C1  UNL     1      73.237  30.469   0.695  1.00  0.00     0.045 C
HETATM    7  C14 UNL     1      72.976  32.086  -1.068  1.00  0.00     0.082 A
HETATM    8  C12 UNL     1      72.147  32.826  -1.817  1.00  0.00     0.031 A
HETATM    9 CL1  UNL     1      74.692  32.228  -1.372  1.00  0.00    -0.080 Cl
HETATM   10  N4  UNL     1      70.747  32.758  -1.622  1.00  0.00    -0.339 N
HETATM   11  C13 UNL     1      72.719  33.728  -2.860  1.00  0.00     0.070 C
ATOM     12  H4  UNL     1      70.117  33.323  -2.192  1.00  0.00     0.168 HD
ENDBRANCH   1   2
BRANCH   1  13
HETATM   13  C4  UNL     1      67.798  30.249  -0.960  1.00  0.00     0.158 C
BRANCH  13  14
HETATM   14  C5  UNL     1      66.874  29.732   0.096  1.00  0.00     0.092 A
HETATM   15  N2  UNL     1      66.978  29.893   1.424  1.00  0.00    -0.343 N
HETATM   16  C6  UNL     1      65.958  29.285   2.051  1.00  0.00     0.060 A
ATOM     17  H2  UNL     1      67.727  30.405   1.891  1.00  0.00     0.167 HD
HETATM   18  C7  UNL     1      65.566  29.127   3.361  1.00  0.00     0.032 A
HETATM   19  C11 UNL     1      65.154  28.700   1.067  1.00  0.00     0.060 A
HETATM   20  C8  UNL     1      64.434  28.427   3.714  1.00  0.00     0.002 A
HETATM   21  C9  UNL     1      63.648  27.853   2.732  1.00  0.00     0.002 A
HETATM   22  C10 UNL     1      64.018  27.997   1.415  1.00  0.00     0.032 A
HETATM   23  N3  UNL     1      65.761  29.006  -0.098  1.00  0.00    -0.343 N
ATOM     24  H3  UNL     1      65.418  28.720  -1.014  1.00  0.00     0.167 HD
ENDBRANCH  13  14
ENDBRANCH   1  13
TORSDOF 3
ENDMDL