MODEL 2
REMARK VINA RESULT: -6.341265855      1.319      1.963
REMARK  4 active torsions:
REMARK  status: ('A' for Active; 'I' for Inactive)
REMARK    1  A    between atoms: C3_4  and  C4_5
REMARK    2  A    between atoms: C4_5  and  N1_6
REMARK    3  A    between atoms: N1_6  and  C6_8
REMARK    4  A    between atoms: C7_11  and  N3_12
ROOT
HETATM    1  C6  UNL     1      67.291  30.011   0.357  1.00  0.00     0.681 A
HETATM    2  N2  UNL     1      66.297  29.424  -0.367  1.00  0.00    -0.177 N
ATOM      3  H2  UNL     1      66.378  29.411  -1.384  1.00  0.00     0.185 HD
HETATM    4  C7  UNL     1      65.224  28.867   0.192  1.00  0.00     0.116 A
HETATM    5  C8  UNL     1      65.097  28.874   1.555  1.00  0.00     0.066 A
HETATM    6  C9  UNL     1      66.081  29.458   2.321  1.00  0.00     0.110 A
HETATM    7  N4  UNL     1      67.135  30.000   1.692  1.00  0.00    -0.202 N
ATOM      8  H4  UNL     1      67.863  30.431   2.262  1.00  0.00     0.183 HD
ENDROOT
BRANCH   1   9
HETATM    9  N1  UNL     1      68.420  30.597  -0.270  1.00  0.00    -0.216 N
HETATM   10  C5  UNL     1      68.863  30.031  -1.525  1.00  0.00     0.169 C
BRANCH   9  11
HETATM   11  C4  UNL     1      69.059  31.714   0.368  1.00  0.00     0.206 C
BRANCH  11  12
HETATM   12  C3  UNL     1      70.049  32.383  -0.512  1.00  0.00     0.079 A
HETATM   13  O1  UNL     1      69.858  33.340  -1.387  1.00  0.00    -0.316 OA
HETATM   14  C2  UNL     1      70.978  33.679  -1.980  1.00  0.00     0.067 A
HETATM   15  C1  UNL     1      71.061  34.750  -3.031  1.00  0.00     0.078 C
HETATM   16  C12 UNL     1      71.978  32.903  -1.476  1.00  0.00     0.048 A
HETATM   17  C10 UNL     1      71.392  32.077  -0.541  1.00  0.00    -0.011 A
HETATM   18 BR1  UNL     1      73.816  32.959  -1.971  1.00  0.00    -0.048 Br
HETATM   19  C11 UNL     1      72.132  31.059   0.260  1.00  0.00     0.052 C
ENDBRANCH  11  12
ENDBRANCH   9  11
ENDBRANCH   1   9
BRANCH   4  20
HETATM   20  N3  UNL     1      64.309  28.322  -0.549  1.00  0.00    -0.385 N
ATOM     21  H32 UNL     1      63.692  28.903  -1.117  1.00  0.00     0.157 HD
ATOM     22  H31 UNL     1      64.201  27.308  -0.569  1.00  0.00     0.157 HD
ENDBRANCH   4  20
TORSDOF 4
ENDMDL