MODEL 1
REMARK VINA RESULT: -7.070590445      0.000      0.000
REMARK  4 active torsions:
REMARK  status: ('A' for Active; 'I' for Inactive)
REMARK    1  A    between atoms: C5_12  and  N4_13
REMARK    2  A    between atoms: N4_13  and  C6_15
REMARK    3  A    between atoms: C6_15  and  C7_16
REMARK    4  A    between atoms: C13_24  and  C14_25
ROOT
HETATM    1  C1  UNL     1      74.685  34.913  -4.893  1.00  0.00     0.068 C
HETATM    2  C2  UNL     1      74.923  33.979  -3.758  1.00  0.00     0.014 A
HETATM    3  N1  UNL     1      76.122  33.397  -3.586  1.00  0.00    -0.345 N
ATOM      4  H1  UNL     1      76.947  33.539  -4.169  1.00  0.00     0.167 HD
HETATM    5  C3  UNL     1      76.042  32.603  -2.521  1.00  0.00     0.122 A
HETATM    6  N2  UNL     1      76.949  31.823  -1.890  1.00  0.00    -0.318 N
ATOM      7  H2  UNL     1      77.894  31.758  -2.268  1.00  0.00     0.170 HD
HETATM    8  C4  UNL     1      76.642  31.140  -0.789  1.00  0.00     0.182 A
HETATM    9 CL1  UNL     1      77.871  30.139  -0.068  1.00  0.00    -0.045 Cl
HETATM   10  N3  UNL     1      75.414  31.185  -0.237  1.00  0.00    -0.318 N
ATOM     11  H3  UNL     1      75.200  30.658   0.610  1.00  0.00     0.170 HD
HETATM   12  C5  UNL     1      74.465  31.956  -0.842  1.00  0.00     0.118 A
HETATM   13  C12 UNL     1      74.742  32.666  -1.978  1.00  0.00     0.060 A
HETATM   14  C13 UNL     1      74.031  33.563  -2.801  1.00  0.00    -0.015 A
ENDROOT
BRANCH  12  15
HETATM   15  N4  UNL     1      73.301  32.095  -0.259  1.00  0.00    -0.371 N
ATOM     16  H4  UNL     1      73.029  33.025   0.061  1.00  0.00     0.161 HD
BRANCH  15  17
HETATM   17  C6  UNL     1      72.387  31.010  -0.046  1.00  0.00     0.160 C
BRANCH  17  18
HETATM   18  C7  UNL     1      70.973  31.326  -0.292  1.00  0.00    -0.038 A
HETATM   19  C8  UNL     1      70.522  32.645  -0.367  1.00  0.00     0.025 A
HETATM   20  C9  UNL     1      69.190  32.931  -0.539  1.00  0.00     0.088 A
HETATM   21  N5  UNL     1      68.297  31.915  -0.639  1.00  0.00    -0.375 N
HETATM   22  C10 UNL     1      68.665  30.626  -0.577  1.00  0.00     0.088 A
ATOM     23  H5  UNL     1      67.310  32.139  -0.765  1.00  0.00     0.164 HD
HETATM   24  C11 UNL     1      70.005  30.360  -0.404  1.00  0.00     0.025 A
ENDBRANCH  17  18
ENDBRANCH  15  17
ENDBRANCH  12  15
BRANCH  14  25
HETATM   25  C14 UNL     1      72.692  34.053  -2.606  1.00  0.00     0.013 C
HETATM   26  C15 UNL     1      71.843  33.854  -3.879  1.00  0.00     0.015 C
HETATM   27  C16 UNL     1      72.481  35.444  -2.140  1.00  0.00     0.015 C
ENDBRANCH  14  25
TORSDOF 4
ENDMDL