MODEL 3
REMARK VINA RESULT: -7.282181350      3.936      8.703
REMARK  5 active torsions:
REMARK  status: ('A' for Active; 'I' for Inactive)
REMARK    1  A    between atoms: C2_2  and  C3_3
REMARK    2  A    between atoms: C5_5  and  O1_6
REMARK    3  A    between atoms: C6_8  and  C7_9
REMARK    4  A    between atoms: N1_11  and  N2_13
REMARK    5  A    between atoms: N2_13  and  C9_15
ROOT
HETATM    1  C7  UNL     1      69.424  31.845  -0.758  1.00  0.00     0.035 C
HETATM    2  C8  UNL     1      68.643  33.096  -0.776  1.00  0.00     0.070 C
HETATM    3  N1  UNL     1      68.754  30.720  -0.728  1.00  0.00    -0.290 N
ATOM      4  H1  UNL     1      69.258  29.833  -0.714  1.00  0.00     0.187 HD
ENDROOT
BRANCH   3   5
HETATM    5  N2  UNL     1      67.381  30.721  -0.715  1.00  0.00    -0.132 N
ATOM      6  H2  UNL     1      66.899  31.338  -1.370  1.00  0.00     0.205 HD
BRANCH   5   7
HETATM    7  C9  UNL     1      66.660  29.993   0.074  1.00  0.00     0.697 A
HETATM    8  N3  UNL     1      65.688  29.184  -0.385  1.00  0.00    -0.194 N
HETATM    9  C10 UNL     1      64.930  28.420   0.440  1.00  0.00     0.024 A
ATOM     10  H3  UNL     1      65.514  29.143  -1.389  1.00  0.00     0.184 HD
HETATM   11  C11 UNL     1      63.870  27.545  -0.121  1.00  0.00     0.068 C
HETATM   12  C12 UNL     1      65.145  28.454   1.802  1.00  0.00     0.050 A
HETATM   13  C13 UNL     1      66.137  29.279   2.269  1.00  0.00     0.024 A
HETATM   14  C14 UNL     1      66.382  29.329   3.743  1.00  0.00     0.068 C
HETATM   15  N4  UNL     1      66.856  30.013   1.413  1.00  0.00    -0.194 N
ATOM     16  H4  UNL     1      67.587  30.618   1.788  1.00  0.00     0.184 HD
ENDBRANCH   5   7
ENDBRANCH   3   5
BRANCH   1  17
HETATM   17  C6  UNL     1      70.884  31.817  -0.771  1.00  0.00     0.022 A
HETATM   18  C5  UNL     1      71.616  32.616  -1.611  1.00  0.00     0.078 A
HETATM   19  C4  UNL     1      73.007  32.585  -1.620  1.00  0.00     0.046 A
HETATM   20  C3  UNL     1      73.638  31.735  -0.770  1.00  0.00    -0.034 A
HETATM   21  C16 UNL     1      72.940  30.906   0.101  1.00  0.00     0.041 A
HETATM   22  C15 UNL     1      71.551  30.966   0.080  1.00  0.00     0.040 A
HETATM   23 CL1  UNL     1      73.730  29.808   1.199  1.00  0.00    -0.084 Cl
BRANCH  18  24
HETATM   24  O1  UNL     1      71.018  33.488  -2.485  1.00  0.00    -0.360 OA
ATOM     25  H1  UNL     1      70.094  33.656  -2.348  1.00  0.00     0.217 HD
ENDBRANCH  18  24
BRANCH  20  26
HETATM   26  C2  UNL     1      75.116  31.637  -0.714  1.00  0.00     0.036 C
HETATM   27  C1  UNL     1      75.769  32.069  -2.000  1.00  0.00     0.010 C
ENDBRANCH  20  26
ENDBRANCH   1  17
TORSDOF 5
ENDMDL