MODEL 4
REMARK VINA RESULT: -5.277486255      3.943      5.928
REMARK  4 active torsions:
REMARK  status: ('A' for Active; 'I' for Inactive)
REMARK    1  A    between atoms: C3_4  and  N1_5
REMARK       I    between atoms: N1_5  and  C4_7
REMARK    2  A    between atoms: C4_7  and  C5_9
REMARK    3  A    between atoms: C5_9  and  C6_10
REMARK    4  A    between atoms: C6_10  and  O2_13
ROOT
HETATM    1  N1  UNL     1      72.704  34.302  -1.989  1.00  0.00    -0.321 N
ATOM      2  H1  UNL     1      73.341  34.064  -1.228  1.00  0.00     0.169 HD
HETATM    3  C4  UNL     1      71.330  34.062  -1.858  1.00  0.00     0.225 C
HETATM    4  O1  UNL     1      70.553  34.350  -2.784  1.00  0.00    -0.273 OA
ENDROOT
BRANCH   1   5
HETATM    5  C3  UNL     1      73.215  34.889  -3.211  1.00  0.00     0.084 A
HETATM    6  S1  UNL     1      73.922  34.122  -4.557  1.00  0.00    -0.075 SA
HETATM    7  C2  UNL     1      74.234  35.482  -5.524  1.00  0.00    -0.001 A
HETATM    8  C1  UNL     1      74.865  35.538  -6.888  1.00  0.00     0.057 C
HETATM    9  C11 UNL     1      73.772  36.521  -4.763  1.00  0.00     0.032 A
HETATM   10  C9  UNL     1      73.241  36.205  -3.558  1.00  0.00    -0.010 A
HETATM   11 BR1  UNL     1      73.905  38.349  -5.453  1.00  0.00    -0.049 Br
HETATM   12  C10 UNL     1      72.689  37.263  -2.610  1.00  0.00     0.052 C
ENDBRANCH   1   5
BRANCH   3  13
HETATM   13  C5  UNL     1      70.778  33.469  -0.639  1.00  0.00     0.140 C
BRANCH  13  14
HETATM   14  C6  UNL     1      70.657  31.963  -0.725  1.00  0.00     0.059 C
HETATM   15  C7  UNL     1      71.686  31.269   0.108  1.00  0.00     0.045 C
HETATM   16  C8  UNL     1      69.285  31.495  -0.299  1.00  0.00     0.045 C
BRANCH  14  17
HETATM   17  O2  UNL     1      70.807  31.575  -2.073  1.00  0.00    -0.390 OA
ATOM     18  H2  UNL     1      70.817  30.626  -2.116  1.00  0.00     0.210 HD
ENDBRANCH  14  17
ENDBRANCH  13  14
ENDBRANCH   3  13
TORSDOF 4
ENDMDL