MODEL 4
REMARK VINA RESULT: -6.611381560      5.115      6.866
REMARK  4 active torsions:
REMARK  status: ('A' for Active; 'I' for Inactive)
REMARK    1  A    between atoms: C2_2  and  C3_3
REMARK    2  A    between atoms: C4_6  and  N2_7
REMARK    3  A    between atoms: N2_7  and  C5_9
REMARK    4  A    between atoms: C15_22  and  C16_23
ROOT
HETATM    1  C3  UNL     1      74.263  35.438   2.514  1.00  0.00     0.044 A
HETATM    2  N1  UNL     1      73.733  34.540   1.674  1.00  0.00    -0.342 N
ATOM      3  H1  UNL     1      72.980  33.946   2.020  1.00  0.00     0.167 HD
HETATM    4  C4  UNL     1      74.144  34.372   0.373  1.00  0.00     0.128 A
HETATM    5  C13 UNL     1      75.157  35.174  -0.084  1.00  0.00     0.050 A
HETATM    6  C14 UNL     1      75.682  35.078  -1.489  1.00  0.00     0.072 C
HETATM    7  N3  UNL     1      75.690  36.075   0.756  1.00  0.00    -0.350 N
ATOM      8  H3  UNL     1      76.443  36.672   0.412  1.00  0.00     0.166 HD
HETATM    9  C15 UNL     1      75.274  36.236   2.051  1.00  0.00     0.133 A
ENDROOT
BRANCH   4  10
HETATM   10  N2  UNL     1      73.548  33.498  -0.267  1.00  0.00    -0.340 N
ATOM     11  H2  UNL     1      74.141  33.199  -1.041  1.00  0.00     0.167 HD
BRANCH  10  12
HETATM   12  C5  UNL     1      72.391  32.794  -0.309  1.00  0.00     0.040 A
HETATM   13  C6  UNL     1      71.166  33.368  -0.623  1.00  0.00     0.038 A
HETATM   14  C7  UNL     1      69.972  32.690  -0.656  1.00  0.00    -0.038 A
HETATM   15  C8  UNL     1      68.697  33.378  -1.004  1.00  0.00     0.050 C
HETATM   16  C9  UNL     1      70.005  31.341  -0.353  1.00  0.00     0.040 A
HETATM   17 CL1  UNL     1      68.497  30.474  -0.391  1.00  0.00    -0.084 Cl
HETATM   18  C10 UNL     1      71.197  30.706  -0.031  1.00  0.00     0.033 A
HETATM   19  C11 UNL     1      72.366  31.423  -0.011  1.00  0.00    -0.034 A
HETATM   20  C12 UNL     1      73.620  30.694   0.342  1.00  0.00     0.050 C
ENDBRANCH  10  12
ENDBRANCH   4  10
BRANCH   1  21
HETATM   21  C2  UNL     1      73.774  35.546   3.910  1.00  0.00     0.055 C
HETATM   22  C1  UNL     1      74.455  34.603   4.866  1.00  0.00     0.011 C
ENDBRANCH   1  21
BRANCH   9  23
HETATM   23  C16 UNL     1      75.948  37.269   2.813  1.00  0.00     0.228 C
HETATM   24  O1  UNL     1      75.548  38.485   2.750  1.00  0.00    -0.643 OA
HETATM   25  O2  UNL     1      77.025  37.070   3.637  1.00  0.00    -0.643 OA
ENDBRANCH   9  23
TORSDOF 4
ENDMDL