MODEL 4
REMARK VINA RESULT: -6.246659658      1.705      3.904
REMARK  3 active torsions:
REMARK  status: ('A' for Active; 'I' for Inactive)
REMARK    1  A    between atoms: C10_11  and  C11_12
REMARK    2  A    between atoms: C14_19  and  C15_20
REMARK    3  A    between atoms: C15_20  and  C16_21
ROOT
HETATM    1  C1  UNL     1      73.685  29.946   0.794  1.00  0.00     0.049 C
HETATM    2  C2  UNL     1      73.103  31.052  -0.042  1.00  0.00    -0.052 A
HETATM    3  C3  UNL     1      71.751  31.315  -0.017  1.00  0.00     0.015 A
HETATM    4  C4  UNL     1      71.106  32.275  -0.759  1.00  0.00    -0.045 A
HETATM    5  C5  UNL     1      69.651  32.468  -0.657  1.00  0.00     0.049 C
HETATM    6  C6  UNL     1      71.903  33.050  -1.615  1.00  0.00     0.048 A
HETATM    7  C7  UNL     1      71.309  33.986  -2.409  1.00  0.00     0.198 A
HETATM    8  O1  UNL     1      70.089  34.194  -2.361  1.00  0.00    -0.286 OA
HETATM    9  C8  UNL     1      72.084  34.741  -3.311  1.00  0.00     0.050 A
HETATM   10  C9  UNL     1      71.675  35.686  -4.182  1.00  0.00     0.034 A
HETATM   11  C10 UNL     1      72.615  36.263  -4.978  1.00  0.00    -0.001 A
HETATM   12  S1  UNL     1      74.064  35.481  -4.492  1.00  0.00    -0.075 SA
HETATM   13  C12 UNL     1      73.422  34.452  -3.304  1.00  0.00     0.089 A
HETATM   14  N1  UNL     1      73.982  33.514  -2.498  1.00  0.00    -0.348 N
ATOM     15  H1  UNL     1      74.989  33.360  -2.550  1.00  0.00     0.166 HD
HETATM   16  C13 UNL     1      73.253  32.778  -1.629  1.00  0.00     0.055 A
HETATM   17  C14 UNL     1      73.871  31.808  -0.873  1.00  0.00    -0.015 A
ENDROOT
BRANCH  17  18
HETATM   18  C15 UNL     1      75.325  31.581  -0.982  1.00  0.00     0.154 C
BRANCH  18  19
HETATM   19  C16 UNL     1      76.128  32.819  -0.880  1.00  0.00     0.177 C
HETATM   20  O2  UNL     1      77.040  33.029  -1.717  1.00  0.00    -0.648 OA
HETATM   21  O3  UNL     1      75.902  33.778   0.129  1.00  0.00    -0.648 OA
ENDBRANCH  18  19
ENDBRANCH  17  18
BRANCH  11  22
HETATM   22  C11 UNL     1      72.430  37.329  -6.031  1.00  0.00     0.160 C
HETATM   23 CL1  UNL     1      73.904  37.343  -7.052  1.00  0.00    -0.125 Cl
ENDBRANCH  11  22
TORSDOF 3
ENDMDL