MODEL 4
REMARK VINA RESULT: -6.342100990      2.409      7.455
REMARK  3 active torsions:
REMARK  status: ('A' for Active; 'I' for Inactive)
REMARK    1  A    between atoms: O1_2  and  C2_3
REMARK    2  A    between atoms: C10_14  and  C11_15
REMARK    3  A    between atoms: C11_15  and  N2_16
ROOT
HETATM    1  C2  UNL     1      73.011  35.294  -4.143  1.00  0.00     0.078 A
HETATM    2  C3  UNL     1      73.653  35.163  -5.350  1.00  0.00     0.051 A
HETATM    3  C4  UNL     1      74.604  34.223  -5.604  1.00  0.00    -0.003 A
HETATM    4  C5  UNL     1      75.385  33.878  -6.687  1.00  0.00     0.038 A
HETATM    5  C6  UNL     1      76.191  32.809  -6.337  1.00  0.00     0.006 A
HETATM    6  C7  UNL     1      77.194  32.106  -7.197  1.00  0.00     0.068 C
HETATM    7  N1  UNL     1      75.884  32.531  -5.058  1.00  0.00    -0.358 N
ATOM      8  H1  UNL     1      76.318  31.784  -4.515  1.00  0.00     0.166 HD
HETATM    9  C8  UNL     1      74.932  33.362  -4.578  1.00  0.00     0.065 A
HETATM   10  C9  UNL     1      74.310  33.449  -3.327  1.00  0.00     0.072 A
HETATM   11 CL1  UNL     1      74.818  32.305  -2.129  1.00  0.00    -0.081 Cl
HETATM   12  C10 UNL     1      73.362  34.405  -3.117  1.00  0.00     0.017 A
ENDROOT
BRANCH  12  13
HETATM   13  C11 UNL     1      72.688  34.526  -1.812  1.00  0.00     0.164 C
BRANCH  13  14
HETATM   14  N2  UNL     1      71.350  34.000  -1.895  1.00  0.00    -0.372 N
HETATM   15  C12 UNL     1      71.086  32.964  -1.165  1.00  0.00     0.104 A
HETATM   16  C13 UNL     1      72.069  32.422  -0.361  1.00  0.00     0.072 A
HETATM   17  N4  UNL     1      69.871  32.430  -1.196  1.00  0.00    -0.333 N
HETATM   18  C14 UNL     1      71.738  31.319   0.397  1.00  0.00     0.010 A
HETATM   19  C15 UNL     1      72.762  30.695   1.282  1.00  0.00     0.068 C
HETATM   20  N3  UNL     1      70.474  30.808   0.328  1.00  0.00    -0.350 N
HETATM   21  C16 UNL     1      69.532  31.351  -0.463  1.00  0.00     0.078 A
ATOM     22  H3  UNL     1      70.238  29.991   0.891  1.00  0.00     0.167 HD
HETATM   23  C17 UNL     1      68.147  30.770  -0.520  1.00  0.00     0.089 C
ATOM     24  H4  UNL     1      69.167  32.852  -1.800  1.00  0.00     0.168 HD
ATOM     25  H2  UNL     1      70.646  34.422  -2.499  1.00  0.00     0.161 HD
ENDBRANCH  13  14
ENDBRANCH  12  13
BRANCH   1  26
HETATM   26  O1  UNL     1      72.041  36.269  -3.924  1.00  0.00    -0.355 OA
HETATM   27  C1  UNL     1      72.381  37.585  -3.611  1.00  0.00     0.210 C
ENDBRANCH   1  26
TORSDOF 3
ENDMDL