MODEL 4
REMARK VINA RESULT: -7.029590677      1.649      2.098
REMARK  4 active torsions:
REMARK  status: ('A' for Active; 'I' for Inactive)
REMARK    1  A    between atoms: N1_2  and  C2_4
REMARK    2  A    between atoms: C3_8  and  C4_9
REMARK    3  A    between atoms: C4_9  and  S2_10
REMARK    4  A    between atoms: S2_10  and  C5_11
ROOT
HETATM    1  S2  UNL     1      68.317  30.481  -1.074  1.00  0.00    -0.088 SA
ENDROOT
BRANCH   1   2
HETATM    2  C4  UNL     1      68.937  32.037  -0.396  1.00  0.00     0.141 C
BRANCH   2   3
HETATM    3  C3  UNL     1      70.438  31.944  -0.171  1.00  0.00     0.045 A
HETATM    4  N2  UNL     1      70.928  31.056   0.687  1.00  0.00    -0.326 N
HETATM    5  S1  UNL     1      72.588  31.296   0.622  1.00  0.00     0.005 SA
ATOM      6  H2  UNL     1      70.415  30.384   1.256  1.00  0.00     0.174 HD
HETATM    7  C2  UNL     1      72.636  32.554  -0.525  1.00  0.00     0.105 A
HETATM    8  C12 UNL     1      71.312  32.743  -0.821  1.00  0.00     0.069 A
HETATM    9 BR1  UNL     1      70.783  34.106  -2.117  1.00  0.00    -0.046 Br
BRANCH   7  10
HETATM   10  N1  UNL     1      73.665  33.204  -1.023  1.00  0.00    -0.386 N
HETATM   11  C1  UNL     1      74.368  32.535  -2.102  1.00  0.00     0.147 C
ATOM     12  H1  UNL     1      73.951  34.118  -0.673  1.00  0.00     0.159 HD
ENDBRANCH   7  10
ENDBRANCH   2   3
ENDBRANCH   1   2
BRANCH   1  13
HETATM   13  C5  UNL     1      67.109  29.761   0.013  1.00  0.00     0.145 A
HETATM   14  N3  UNL     1      66.053  28.994  -0.335  1.00  0.00    -0.335 N
HETATM   15  C6  UNL     1      65.353  28.626   0.749  1.00  0.00     0.061 A
ATOM     16  H3  UNL     1      65.818  28.730  -1.293  1.00  0.00     0.168 HD
HETATM   17  C7  UNL     1      64.215  27.856   0.909  1.00  0.00     0.032 A
HETATM   18  C11 UNL     1      65.985  29.180   1.835  1.00  0.00     0.061 A
HETATM   19  C8  UNL     1      63.706  27.641   2.187  1.00  0.00     0.002 A
HETATM   20  C9  UNL     1      64.325  28.189   3.296  1.00  0.00     0.002 A
HETATM   21  C10 UNL     1      65.450  28.945   3.089  1.00  0.00     0.032 A
HETATM   22  N4  UNL     1      67.043  29.862   1.366  1.00  0.00    -0.335 N
ATOM     23  H4  UNL     1      67.704  30.382   1.944  1.00  0.00     0.168 HD
ENDBRANCH   1  13
TORSDOF 4
ENDMDL