MODEL 1
REMARK VINA RESULT: -6.371449479      0.000      0.000
REMARK  6 active torsions:
REMARK  status: ('A' for Active; 'I' for Inactive)
REMARK    1  A    between atoms: C2_2  and  C3_3
REMARK    2  A    between atoms: C4_6  and  N2_7
REMARK    3  A    between atoms: C5_12  and  S1_13
REMARK    4  A    between atoms: S1_13  and  C6_14
REMARK    5  A    between atoms: C6_14  and  C7_15
REMARK    6  A    between atoms: C8_16  and  C9_17
ROOT
HETATM    1  C3  UNL     1      75.126  35.128   1.698  1.00  0.00     0.050 A
HETATM    2  N1  UNL     1      76.280  34.570   2.147  1.00  0.00    -0.194 N
ATOM      3  H1  UNL     1      76.446  34.503   3.151  1.00  0.00     0.184 HD
HETATM    4  C4  UNL     1      77.194  34.114   1.309  1.00  0.00     0.677 A
HETATM    5  N3  UNL     1      77.036  34.168  -0.003  1.00  0.00    -0.184 N
ATOM      6  H3  UNL     1      77.758  33.807  -0.627  1.00  0.00     0.185 HD
HETATM    7  C5  UNL     1      75.867  34.727  -0.521  1.00  0.00     0.109 A
HETATM    8  C16 UNL     1      74.931  35.199   0.323  1.00  0.00     0.101 A
HETATM    9  C17 UNL     1      73.679  35.729  -0.185  1.00  0.00     0.104 C
HETATM   10  N4  UNL     1      72.675  36.135  -0.544  1.00  0.00    -0.191 NA
ENDROOT
BRANCH   1  11
HETATM   11  C2  UNL     1      74.161  35.743   2.615  1.00  0.00     0.055 C
HETATM   12  C1  UNL     1      74.201  35.103   4.003  1.00  0.00     0.011 C
ENDBRANCH   1  11
BRANCH   7  13
HETATM   13  S1  UNL     1      75.824  34.741  -2.296  1.00  0.00    -0.098 SA
BRANCH  13  14
HETATM   14  C6  UNL     1      75.359  33.142  -2.963  1.00  0.00     0.175 C
BRANCH  14  15
HETATM   15  C7  UNL     1      74.020  32.809  -2.393  1.00  0.00    -0.090 C
HETATM   16  C8  UNL     1      72.949  32.583  -1.871  1.00  0.00    -0.064 C
BRANCH  16  17
HETATM   17  C9  UNL     1      71.714  32.358  -1.200  1.00  0.00     0.045 A
HETATM   18  C10 UNL     1      71.628  31.327  -0.235  1.00  0.00    -0.042 A
HETATM   19  C11 UNL     1      72.898  30.561  -0.021  1.00  0.00     0.049 C
HETATM   20  C12 UNL     1      70.479  31.061   0.430  1.00  0.00     0.008 A
HETATM   21  C13 UNL     1      69.343  31.793   0.183  1.00  0.00     0.002 A
HETATM   22  C14 UNL     1      69.384  32.800  -0.747  1.00  0.00     0.025 A
HETATM   23  C15 UNL     1      70.553  33.056  -1.408  1.00  0.00     0.053 A
HETATM   24 CL1  UNL     1      70.632  34.334  -2.617  1.00  0.00    -0.083 Cl
ENDBRANCH  16  17
ENDBRANCH  14  15
ENDBRANCH  13  14
ENDBRANCH   7  13
BRANCH   4  25
HETATM   25  N2  UNL     1      78.312  33.607   1.787  1.00  0.00    -0.234 N
ATOM     26  H22 UNL     1      79.064  34.246   2.043  1.00  0.00     0.174 HD
ATOM     27  H21 UNL     1      78.393  32.597   1.906  1.00  0.00     0.174 HD
ENDBRANCH   4  25
TORSDOF 6
ENDMDL