MODEL 2
REMARK VINA RESULT: -6.295090833      2.416      2.661
REMARK  5 active torsions:
REMARK  status: ('A' for Active; 'I' for Inactive)
REMARK    1  A    between atoms: C5_5  and  C6_6
REMARK    2  A    between atoms: C6_6  and  C7_7
REMARK    3  A    between atoms: C7_7  and  O1_8
REMARK    4  A    between atoms: C10_12  and  C11_13
REMARK    5  A    between atoms: C11_13  and  O2_14
ROOT
HETATM    1  C1  UNL     1      68.047  30.233  -0.348  1.00  0.00     0.017 C
HETATM    2  C2  UNL     1      69.114  30.794  -0.338  1.00  0.00    -0.083 C
HETATM    3  C3  UNL     1      70.390  31.442  -0.322  1.00  0.00    -0.013 C
HETATM    4  C4  UNL     1      71.620  30.627  -0.408  1.00  0.00     0.057 C
HETATM    5  C5  UNL     1      70.463  32.748  -0.230  1.00  0.00    -0.008 C
ENDROOT
BRANCH   5   6
HETATM    6  C6  UNL     1      71.760  33.408  -0.213  1.00  0.00     0.071 C
BRANCH   6   7
HETATM    7  C7  UNL     1      72.022  34.324  -1.353  1.00  0.00     0.089 C
HETATM    8  C8  UNL     1      70.872  34.440  -2.310  1.00  0.00     0.044 C
HETATM    9  C9  UNL     1      71.204  35.123  -3.590  1.00  0.00     0.015 C
HETATM   10  C10 UNL     1      72.587  35.725  -3.636  1.00  0.00     0.050 C
HETATM   11  C12 UNL     1      73.533  34.623  -3.218  1.00  0.00    -0.001 A
HETATM   12  S1  UNL     1      74.974  33.940  -3.810  1.00  0.00    -0.086 SA
HETATM   13  C15 UNL     1      73.282  33.902  -2.084  1.00  0.00    -0.008 A
HETATM   14  C13 UNL     1      75.229  32.758  -2.612  1.00  0.00     0.052 A
HETATM   15 BR1  UNL     1      76.643  31.465  -2.428  1.00  0.00    -0.043 Br
HETATM   16  C14 UNL     1      74.162  32.933  -1.767  1.00  0.00     0.038 A
BRANCH   7  17
HETATM   17  O1  UNL     1      72.291  35.593  -0.835  1.00  0.00    -0.385 OA
ATOM     18  H1  UNL     1      72.036  36.236  -1.486  1.00  0.00     0.211 HD
ENDBRANCH   7  17
BRANCH  10  19
HETATM   19  C11 UNL     1      72.878  36.066  -5.084  1.00  0.00     0.173 C
BRANCH  19  20
HETATM   20  O2  UNL     1      71.980  37.003  -5.589  1.00  0.00    -0.400 OA
ATOM     21  H2  UNL     1      72.421  37.688  -6.078  1.00  0.00     0.209 HD
ENDBRANCH  19  20
ENDBRANCH  10  19
ENDBRANCH   6   7
ENDBRANCH   5   6
TORSDOF 5
ENDMDL