MODEL 1
REMARK VINA RESULT: -6.093164507      0.000      0.000
REMARK  3 active torsions:
REMARK  status: ('A' for Active; 'I' for Inactive)
REMARK    1  A    between atoms: C6_6  and  N1_7
REMARK    2  A    between atoms: N1_7  and  C7_9
REMARK    3  A    between atoms: C7_9  and  C8_10
ROOT
HETATM    1  C1  UNL     1      68.708  31.753  -0.060  1.00  0.00     0.037 C
HETATM    2  C2  UNL     1      70.135  31.677  -0.662  1.00  0.00     0.019 C
HETATM    3  C3  UNL     1      70.058  30.443  -1.568  1.00  0.00     0.037 C
HETATM    4  C4  UNL     1      70.997  31.323   0.489  1.00  0.00     0.032 C
HETATM    5  C5  UNL     1      72.448  31.578   0.332  1.00  0.00     0.027 C
HETATM    6  C6  UNL     1      72.688  33.054   0.501  1.00  0.00     0.079 C
HETATM    7  C12 UNL     1      72.469  33.905  -0.666  1.00  0.00     0.054 C
HETATM    8  C13 UNL     1      71.506  33.426  -1.715  1.00  0.00     0.021 C
HETATM    9  C14 UNL     1      71.100  34.758  -2.407  1.00  0.00     0.037 C
HETATM   10  C15 UNL     1      72.237  32.673  -2.825  1.00  0.00     0.037 C
HETATM   11  N2  UNL     1      70.309  32.883  -1.298  1.00  0.00    -0.405 N
ATOM     12  H2  UNL     1      69.469  33.431  -1.480  1.00  0.00     0.154 HD
ENDROOT
BRANCH   6  13
HETATM   13  N1  UNL     1      73.982  33.249   1.087  1.00  0.00    -0.413 N
ATOM     14  H1  UNL     1      74.391  32.575   1.733  1.00  0.00     0.153 HD
BRANCH  13  15
HETATM   15  C7  UNL     1      74.661  34.446   0.711  1.00  0.00     0.153 C
BRANCH  15  16
HETATM   16  C8  UNL     1      74.403  35.427   1.849  1.00  0.00    -0.033 A
HETATM   17  C9  UNL     1      74.767  35.105   3.132  1.00  0.00     0.059 A
HETATM   18  S1  UNL     1      74.291  36.476   4.023  1.00  0.00    -0.094 SA
HETATM   19  C10 UNL     1      73.646  37.417   2.763  1.00  0.00     0.051 A
HETATM   20 BR1  UNL     1      72.851  39.175   2.826  1.00  0.00    -0.043 Br
HETATM   21  C11 UNL     1      73.822  36.625   1.660  1.00  0.00     0.036 A
ENDBRANCH  15  16
ENDBRANCH  13  15
ENDBRANCH   6  13
TORSDOF 3
ENDMDL