MODEL 3
REMARK VINA RESULT: -6.214147740      0.842      1.034
REMARK  4 active torsions:
REMARK  status: ('A' for Active; 'I' for Inactive)
REMARK    1  A    between atoms: C2_2  and  C3_3
REMARK    2  A    between atoms: C5_5  and  C6_6
REMARK    3  A    between atoms: C10_18  and  N5_19
REMARK    4  A    between atoms: N5_19  and  C11_21
ROOT
HETATM    1  C6  UNL     1      74.177  32.092  -1.375  1.00  0.00     0.076 A
HETATM    2  N1  UNL     1      74.794  31.374  -0.360  1.00  0.00    -0.297 N
ATOM      3  H1  UNL     1      75.797  31.281  -0.201  1.00  0.00     0.187 HD
HETATM    4  N2  UNL     1      73.848  30.844   0.347  1.00  0.00    -0.284 N
ATOM      5  H2  UNL     1      74.016  30.255   1.163  1.00  0.00     0.188 HD
HETATM    6  C7  UNL     1      72.642  31.144  -0.102  1.00  0.00     0.137 A
HETATM    7  N3  UNL     1      71.409  30.822   0.353  1.00  0.00    -0.330 N
ATOM      8  H3  UNL     1      71.281  30.223   1.169  1.00  0.00     0.168 HD
HETATM    9  C8  UNL     1      70.363  31.326  -0.322  1.00  0.00     0.080 A
HETATM   10  C9  UNL     1      69.008  30.960   0.194  1.00  0.00     0.089 C
HETATM   11  N4  UNL     1      70.509  32.110  -1.388  1.00  0.00    -0.332 N
ATOM     12  H4  UNL     1      69.675  32.463  -1.857  1.00  0.00     0.168 HD
HETATM   13  C10 UNL     1      71.739  32.458  -1.880  1.00  0.00     0.119 A
HETATM   14  C14 UNL     1      72.827  31.961  -1.226  1.00  0.00     0.082 A
ENDROOT
BRANCH   1  15
HETATM   15  C5  UNL     1      75.016  32.843  -2.299  1.00  0.00    -0.006 A
HETATM   16  C4  UNL     1      75.185  32.635  -3.617  1.00  0.00     0.022 A
HETATM   17  C3  UNL     1      75.941  33.452  -4.453  1.00  0.00    -0.035 A
HETATM   18  C18 UNL     1      76.567  34.546  -3.926  1.00  0.00     0.046 A
HETATM   19  C16 UNL     1      76.439  34.821  -2.567  1.00  0.00    -0.039 A
HETATM   20 CL1  UNL     1      77.533  35.625  -4.887  1.00  0.00    -0.083 Cl
HETATM   21  C15 UNL     1      75.687  33.990  -1.796  1.00  0.00     0.022 A
HETATM   22  C17 UNL     1      77.122  36.009  -1.995  1.00  0.00     0.050 C
BRANCH  17  23
HETATM   23  C2  UNL     1      76.054  33.126  -5.888  1.00  0.00     0.036 C
HETATM   24  C1  UNL     1      75.035  33.883  -6.726  1.00  0.00     0.010 C
ENDBRANCH  17  23
ENDBRANCH   1  15
BRANCH  13  25
HETATM   25  N5  UNL     1      71.843  33.254  -2.854  1.00  0.00    -0.371 N
ATOM     26  H5  UNL     1      72.184  32.835  -3.720  1.00  0.00     0.161 HD
BRANCH  25  27
HETATM   27  C11 UNL     1      71.559  34.641  -2.927  1.00  0.00     0.075 C
HETATM   28  C12 UNL     1      72.164  35.457  -1.825  1.00  0.00     0.031 C
HETATM   29  C13 UNL     1      72.020  35.254  -4.250  1.00  0.00     0.031 C
ENDBRANCH  25  27
ENDBRANCH  13  25
TORSDOF 4
ENDMDL