MODEL 2
REMARK VINA RESULT: -6.299805542      5.101      7.614
REMARK  6 active torsions:
REMARK  status: ('A' for Active; 'I' for Inactive)
REMARK    1  A    between atoms: C3_3  and  N1_6
REMARK    2  A    between atoms: N1_6  and  C6_8
REMARK    3  A    between atoms: C6_8  and  C7_9
REMARK    4  A    between atoms: C8_10  and  C9_11
REMARK    5  A    between atoms: C12_14  and  O1_15
REMARK    6  A    between atoms: N2_20  and  O2_22
ROOT
HETATM    1  C1  UNL     1      72.836  30.596  -0.075  1.00  0.00     0.099 C
HETATM    2  C2  UNL     1      71.699  30.934  -0.368  1.00  0.00    -0.157 C
HETATM    3  C3  UNL     1      70.324  31.316  -0.713  1.00  0.00     0.076 C
HETATM    4  C4  UNL     1      69.745  30.283  -1.641  1.00  0.00     0.051 C
HETATM    5  C5  UNL     1      69.515  31.339   0.587  1.00  0.00     0.051 C
ENDROOT
BRANCH   3   6
HETATM    6  N1  UNL     1      70.277  32.604  -1.365  1.00  0.00    -0.356 N
ATOM      7  H1  UNL     1      69.419  32.859  -1.855  1.00  0.00     0.162 HD
BRANCH   6   8
HETATM    8  C6  UNL     1      71.339  33.531  -1.368  1.00  0.00     0.122 C
HETATM    9  N2  UNL     1      72.015  33.743  -2.438  1.00  0.00    -0.253 N
ATOM     10  H2  UNL     1      72.781  34.417  -2.425  1.00  0.00     0.196 HD
BRANCH   8  11
HETATM   11  C7  UNL     1      71.696  34.263  -0.162  1.00  0.00     0.051 C
HETATM   12  C8  UNL     1      72.954  34.474   0.152  1.00  0.00     0.015 C
BRANCH  12  13
HETATM   13  C9  UNL     1      73.352  35.198   1.344  1.00  0.00    -0.035 A
HETATM   14  C10 UNL     1      74.047  34.581   2.371  1.00  0.00     0.014 A
HETATM   15  C11 UNL     1      74.424  35.269   3.501  1.00  0.00     0.039 A
HETATM   16  C12 UNL     1      74.136  36.600   3.679  1.00  0.00     0.085 A
HETATM   17  C14 UNL     1      73.445  37.235   2.674  1.00  0.00     0.045 A
HETATM   18 BR1  UNL     1      73.033  39.082   2.897  1.00  0.00    -0.048 Br
HETATM   19  C15 UNL     1      73.064  36.530   1.524  1.00  0.00     0.033 A
BRANCH  16  20
HETATM   20  O1  UNL     1      74.515  37.275   4.807  1.00  0.00    -0.355 OA
HETATM   21  C13 UNL     1      74.443  36.787   6.110  1.00  0.00     0.210 C
ENDBRANCH  16  20
ENDBRANCH  12  13
ENDBRANCH   8  11
BRANCH   9  22
HETATM   22  O2  UNL     1      71.721  33.078  -3.592  1.00  0.00    -0.288 OA
ATOM     23  H2  UNL     1      72.298  32.399  -3.923  1.00  0.00     0.244 HD
ENDBRANCH   9  22
ENDBRANCH   6   8
ENDBRANCH   3   6
TORSDOF 6
ENDMDL