MODEL 2
REMARK VINA RESULT: -5.999784420      0.294      1.904
REMARK  5 active torsions:
REMARK  status: ('A' for Active; 'I' for Inactive)
REMARK    1  A    between atoms: C6_6  and  C7_7
REMARK    2  A    between atoms: C7_7  and  N1_8
REMARK    3  A    between atoms: C8_9  and  O1_10
REMARK    4  A    between atoms: C11_14  and  C12_15
REMARK    5  A    between atoms: C13_17  and  O2_18
ROOT
HETATM    1  N1  UNL     1      74.979  32.708  -1.572  1.00  0.00    -0.281 N
HETATM    2  C8  UNL     1      74.923  32.714  -2.929  1.00  0.00     0.155 A
HETATM    3  C9  UNL     1      76.046  32.137  -3.483  1.00  0.00     0.001 A
HETATM    4  C10 UNL     1      76.289  31.990  -4.944  1.00  0.00     0.053 C
HETATM    5  C11 UNL     1      76.816  31.764  -2.431  1.00  0.00     0.013 A
HETATM    6  C13 UNL     1      76.173  32.105  -1.275  1.00  0.00     0.156 A
ENDROOT
BRANCH   1   7
HETATM    7  C7  UNL     1      73.992  33.086  -0.597  1.00  0.00     0.113 C
BRANCH   7   8
HETATM    8  C6  UNL     1      72.639  32.603  -0.691  1.00  0.00    -0.008 A
HETATM    9  C4  UNL     1      71.539  33.277  -1.128  1.00  0.00    -0.049 A
HETATM   10  C3  UNL     1      70.246  32.717  -1.151  1.00  0.00     0.014 A
HETATM   11  C5  UNL     1      71.681  34.692  -1.588  1.00  0.00     0.049 C
HETATM   12  C2  UNL     1      70.035  31.445  -0.727  1.00  0.00    -0.061 A
HETATM   13  C1  UNL     1      68.691  30.794  -0.727  1.00  0.00     0.048 C
HETATM   14  C16 UNL     1      71.117  30.737  -0.280  1.00  0.00     0.014 A
HETATM   15  C14 UNL     1      72.388  31.288  -0.256  1.00  0.00    -0.049 A
HETATM   16  C15 UNL     1      73.444  30.465   0.304  1.00  0.00     0.049 C
ENDBRANCH   7   8
ENDBRANCH   1   7
BRANCH   2  17
HETATM   17  O1  UNL     1      73.861  33.242  -3.651  1.00  0.00    -0.345 OA
ATOM     18  H1  UNL     1      73.234  32.710  -4.127  1.00  0.00     0.219 HD
ENDBRANCH   2  17
BRANCH   6  19
HETATM   19  O2  UNL     1      76.739  31.826  -0.028  1.00  0.00    -0.345 OA
ATOM     20  H2  UNL     1      77.101  31.011   0.301  1.00  0.00     0.219 HD
ENDBRANCH   6  19
BRANCH   5  21
HETATM   21  C12 UNL     1      78.142  31.096  -2.547  1.00  0.00     0.129 C
HETATM   22 BR1  UNL     1      78.014  29.203  -2.235  1.00  0.00    -0.091 Br
ENDBRANCH   5  21
TORSDOF 5
ENDMDL