MODEL 1
REMARK VINA RESULT: -8.384689212      0.000      0.000
REMARK  7 active torsions:
REMARK  status: ('A' for Active; 'I' for Inactive)
REMARK    1  A    between atoms: N1_1  and  S1_4
REMARK    2  A    between atoms: S1_4  and  C1_7
REMARK    3  A    between atoms: C4_10  and  C5_11
REMARK    4  A    between atoms: C5_11  and  C6_12
REMARK    5  A    between atoms: C6_12  and  N2_13
REMARK       I    between atoms: N2_13  and  C7_15
REMARK    6  A    between atoms: C7_15  and  C8_17
REMARK    7  A    between atoms: C8_17  and  N3_18
ROOT
HETATM    1  N2  UNL     1      10.584  16.236  24.173  1.00  0.00    -0.359 N
ATOM      2  H2  UNL     1      10.204  15.686  23.403  1.00  0.00     0.162 HD
HETATM    3  C7  UNL     1      11.251  15.583  25.234  1.00  0.00     0.236 C
HETATM    4  O3  UNL     1      11.742  16.187  26.205  1.00  0.00    -0.272 OA
ENDROOT
BRANCH   3   5
HETATM    5  C8  UNL     1      11.364  14.108  25.172  1.00  0.00     0.247 C
BRANCH   5   6
HETATM    6  N3  UNL     1      11.957  13.713  23.907  1.00  0.00    -0.228 N
HETATM    7  C9  UNL     1      13.356  13.803  23.697  1.00  0.00     0.268 A
HETATM    8  O4  UNL     1      14.034  14.247  24.692  1.00  0.00    -0.266 OA
HETATM    9  C10 UNL     1      14.034  13.433  22.463  1.00  0.00     0.045 A
HETATM   10  C11 UNL     1      15.415  13.568  22.383  1.00  0.00     0.018 A
HETATM   11  C19 UNL     1      13.385  12.946  21.341  1.00  0.00     0.013 A
HETATM   12  C12 UNL     1      16.146  13.249  21.265  1.00  0.00     0.002 A
HETATM   13  C13 UNL     1      15.509  12.762  20.143  1.00  0.00     0.012 A
HETATM   14  C14 UNL     1      14.126  12.623  20.215  1.00  0.00    -0.023 A
HETATM   15  C15 UNL     1      13.555  12.128  19.045  1.00  0.00     0.012 A
HETATM   16  C16 UNL     1      12.200  11.954  19.007  1.00  0.00     0.002 A
HETATM   17  C17 UNL     1      11.432  12.260  20.099  1.00  0.00     0.026 A
HETATM   18  C18 UNL     1      12.013  12.757  21.271  1.00  0.00     0.092 A
HETATM   19  S2  UNL     1      10.975  13.122  22.623  1.00  0.00     0.268 S
HETATM   20  O5  UNL     1      10.050  14.229  22.201  1.00  0.00    -0.200 OA
HETATM   21  O6  UNL     1      10.201  11.915  23.069  1.00  0.00    -0.200 OA
ENDBRANCH   5   6
ENDBRANCH   3   5
BRANCH   1  22
HETATM   22  C6  UNL     1      10.433  17.666  24.166  1.00  0.00     0.127 C
BRANCH  22  23
HETATM   23  C5  UNL     1      11.671  18.388  23.730  1.00  0.00     0.058 C
BRANCH  23  24
HETATM   24  C4  UNL     1      11.391  19.484  22.785  1.00  0.00    -0.057 A
HETATM   25  C3  UNL     1      11.496  19.240  21.434  1.00  0.00     0.009 A
HETATM   26  C2  UNL     1      11.244  20.233  20.495  1.00  0.00     0.026 A
HETATM   27  C1  UNL     1      10.882  21.488  20.915  1.00  0.00     0.079 A
HETATM   28  C21 UNL     1      10.779  21.724  22.266  1.00  0.00     0.026 A
HETATM   29  C20 UNL     1      11.030  20.730  23.218  1.00  0.00     0.009 A
BRANCH  27  30
HETATM   30  S1  UNL     1      10.561  22.748  19.729  1.00  0.00     0.256 S
HETATM   31  O1  UNL     1      11.794  23.597  19.594  1.00  0.00    -0.201 OA
HETATM   32  O2  UNL     1       9.427  23.582  20.238  1.00  0.00    -0.201 OA
BRANCH  30  33
HETATM   33  N1  UNL     1      10.173  22.038  18.207  1.00  0.00    -0.324 N
ATOM     34  H12 UNL     1      10.209  22.533  17.316  1.00  0.00     0.169 HD
ATOM     35  H11 UNL     1       9.907  21.062  18.340  1.00  0.00     0.169 HD
ENDBRANCH  30  33
ENDBRANCH  27  30
ENDBRANCH  23  24
ENDBRANCH  22  23
ENDBRANCH   1  22
TORSDOF 7
ENDMDL