MODEL 2
REMARK VINA RESULT: -7.178596153      1.550      2.844
REMARK  8 active torsions:
REMARK  status: ('A' for Active; 'I' for Inactive)
REMARK    1  A    between atoms: N2_3  and  S1_5
REMARK    2  A    between atoms: S1_5  and  N3_6
REMARK    3  A    between atoms: S1_5  and  N4_14
REMARK    4  A    between atoms: N3_6  and  C2_7
REMARK    5  A    between atoms: C9_17  and  C10_18
REMARK    6  A    between atoms: C10_18  and  O2_19
REMARK    7  A    between atoms: C10_18  and  C11_21
REMARK    8  A    between atoms: C10_18  and  C17_27
ROOT
HETATM    1  N1  UNL     1      10.853  17.263  27.189  1.00  0.00    -0.171 NA
HETATM    2  C1  UNL     1      10.657  18.030  26.340  1.00  0.00     0.190 C
HETATM    3  N2  UNL     1      10.442  18.941  25.317  1.00  0.00    -0.246 N
ATOM      4  H2  UNL     1      10.021  19.842  25.545  1.00  0.00     0.188 HD
ENDROOT
BRANCH   3   5
HETATM    5  S1  UNL     1      10.836  18.631  23.769  1.00  0.00     0.075 SA
BRANCH   5   6
HETATM    6  N3  UNL     1      11.841  19.791  22.892  1.00  0.00    -0.146 NA
BRANCH   6   7
HETATM    7  C2  UNL     1      11.087  20.537  21.910  1.00  0.00     0.092 C
HETATM    8  C3  UNL     1      11.720  20.252  20.565  1.00  0.00     0.035 C
HETATM    9  C4  UNL     1      10.678  20.561  19.491  1.00  0.00     0.110 C
HETATM   10  S2  UNL     1      10.362  22.324  19.636  1.00  0.00     0.015 S
HETATM   11  O1  UNL     1       8.753  22.525  20.103  1.00  0.00    -0.258 OA
HETATM   12  C5  UNL     1      11.358  22.875  21.023  1.00  0.00     0.110 C
HETATM   13  C6  UNL     1      10.989  21.998  22.202  1.00  0.00     0.035 C
ENDBRANCH   6   7
ENDBRANCH   5   6
BRANCH   5  14
HETATM   14  N4  UNL     1      10.311  17.111  23.076  1.00  0.00    -0.335 N
HETATM   15  C7  UNL     1      11.218  16.035  23.224  1.00  0.00     0.133 C
HETATM   16  C8  UNL     1      11.478  15.183  22.036  1.00  0.00     0.029 C
HETATM   17  C9  UNL     1      10.382  15.110  21.021  1.00  0.00     0.033 C
HETATM   18  C21 UNL     1       9.129  15.814  21.452  1.00  0.00     0.029 C
HETATM   19  C22 UNL     1       9.599  17.224  21.859  1.00  0.00     0.133 C
BRANCH  17  20
HETATM   20  C10 UNL     1      10.229  13.802  20.354  1.00  0.00     0.122 C
BRANCH  20  21
HETATM   21  O2  UNL     1      11.571  13.323  20.150  1.00  0.00    -0.379 OA
ATOM     22  H2  UNL     1      11.518  12.750  19.393  1.00  0.00     0.211 HD
ENDBRANCH  20  21
BRANCH  20  23
HETATM   23  C11 UNL     1       9.559  12.719  21.064  1.00  0.00    -0.019 A
HETATM   24  C12 UNL     1       8.156  12.675  21.015  1.00  0.00     0.010 A
HETATM   25  C13 UNL     1       7.409  11.723  21.628  1.00  0.00     0.001 A
HETATM   26  C14 UNL     1       8.011  10.733  22.346  1.00  0.00     0.000 A
HETATM   27  C15 UNL     1       9.384  10.716  22.437  1.00  0.00     0.001 A
HETATM   28  C16 UNL     1      10.129  11.709  21.794  1.00  0.00     0.010 A
ENDBRANCH  20  23
BRANCH  20  29
HETATM   29  C17 UNL     1       9.680  13.901  18.955  1.00  0.00     0.022 A
HETATM   30  C18 UNL     1       9.133  14.999  18.343  1.00  0.00     0.018 A
HETATM   31  C19 UNL     1       8.707  14.857  17.084  1.00  0.00     0.008 A
HETATM   32  C20 UNL     1       8.850  13.624  16.503  1.00  0.00     0.050 A
HETATM   33  S3  UNL     1       9.579  12.710  17.747  1.00  0.00    -0.103 SA
ENDBRANCH  20  29
ENDBRANCH  17  20
ENDBRANCH   5  14
ENDBRANCH   3   5
TORSDOF 8
ENDMDL