MODEL 3
REMARK VINA RESULT: -7.746723905      1.827      2.933
REMARK  10 active torsions:
REMARK  status: ('A' for Active; 'I' for Inactive)
REMARK    1  A    between atoms: C7_7  and  N1_8
REMARK    2  A    between atoms: N1_8  and  S1_10
REMARK    3  A    between atoms: S1_10  and  C9_13
REMARK    4  A    between atoms: C12_16  and  C13_17
REMARK    5  A    between atoms: C13_17  and  N2_18
REMARK       I    between atoms: N2_18  and  C14_20
REMARK    6  A    between atoms: C14_20  and  C15_22
REMARK       I    between atoms: C15_22  and  N3_24
REMARK    7  A    between atoms: N3_24  and  N4_26
REMARK    8  A    between atoms: N4_26  and  C17_28
REMARK    9  A    between atoms: C17_28  and  O5_29
REMARK   10  A    between atoms: C17_28  and  C18_31
ROOT
HETATM    1  C13 UNL     1      12.800  16.800  28.454  1.00  0.00     0.161 C
ENDROOT
BRANCH   1   2
HETATM    2  C12 UNL     1      12.492  17.727  29.571  1.00  0.00    -0.040 A
HETATM    3  C11 UNL     1      11.378  17.475  30.381  1.00  0.00     0.010 A
HETATM    4  C10 UNL     1      11.059  18.312  31.429  1.00  0.00     0.026 A
HETATM    5  C9  UNL     1      11.810  19.433  31.732  1.00  0.00     0.080 A
HETATM    6  C25 UNL     1      12.909  19.691  30.940  1.00  0.00     0.026 A
HETATM    7  C24 UNL     1      13.233  18.843  29.880  1.00  0.00     0.010 A
BRANCH   5   8
HETATM    8  S1  UNL     1      11.376  20.477  33.075  1.00  0.00     0.265 S
HETATM    9  O1  UNL     1       9.876  20.536  33.226  1.00  0.00    -0.200 OA
HETATM   10  O2  UNL     1      11.840  21.902  32.836  1.00  0.00    -0.200 OA
BRANCH   8  11
HETATM   11  N1  UNL     1      12.103  19.938  34.543  1.00  0.00    -0.276 N
HETATM   12  C8  UNL     1      11.857  20.779  35.716  1.00  0.00     0.170 C
BRANCH  11  13
HETATM   13  C7  UNL     1      12.889  18.760  34.635  1.00  0.00     0.050 A
HETATM   14  C2  UNL     1      12.236  17.578  34.906  1.00  0.00    -0.035 A
HETATM   15  C1  UNL     1      10.760  17.537  35.093  1.00  0.00     0.050 C
HETATM   16  C3  UNL     1      12.977  16.413  35.003  1.00  0.00     0.009 A
HETATM   17  C4  UNL     1      14.356  16.433  34.832  1.00  0.00     0.001 A
HETATM   18  C5  UNL     1      14.996  17.625  34.561  1.00  0.00     0.002 A
HETATM   19  C6  UNL     1      14.277  18.797  34.461  1.00  0.00     0.031 A
ENDBRANCH  11  13
ENDBRANCH   8  11
ENDBRANCH   5   8
ENDBRANCH   1   2
BRANCH   1  20
HETATM   20  N2  UNL     1      12.462  17.297  27.158  1.00  0.00    -0.349 N
HETATM   21  C14 UNL     1      11.178  17.043  26.625  1.00  0.00     0.311 C
HETATM   22  O3  UNL     1      10.342  16.388  27.277  1.00  0.00    -0.262 OA
ATOM     23  H2  UNL     1      13.144  17.833  26.620  1.00  0.00     0.163 HD
BRANCH  21  24
HETATM   24  C15 UNL     1      10.835  17.550  25.310  1.00  0.00     0.328 C
HETATM   25  O4  UNL     1       9.605  17.615  24.972  1.00  0.00    -0.261 OA
HETATM   26  N3  UNL     1      11.790  17.981  24.370  1.00  0.00    -0.258 N
ATOM     27  H3  UNL     1      12.783  17.946  24.601  1.00  0.00     0.190 HD
BRANCH  26  28
HETATM   28  N4  UNL     1      11.369  18.472  23.082  1.00  0.00    -0.272 N
HETATM   29  C16 UNL     1      11.137  17.507  22.056  1.00  0.00     0.180 C
BRANCH  28  30
HETATM   30  C17 UNL     1      11.221  19.855  22.989  1.00  0.00     0.167 C
BRANCH  30  31
HETATM   31  O5  UNL     1      11.197  20.434  24.178  1.00  0.00    -0.344 OA
ATOM     32  H5  UNL     1      11.754  21.204  24.211  1.00  0.00     0.219 HD
ENDBRANCH  30  31
BRANCH  30  33
HETATM   33  C18 UNL     1      11.094  20.713  21.853  1.00  0.00     0.016 A
HETATM   34  C19 UNL     1      11.062  22.114  22.077  1.00  0.00     0.016 A
HETATM   35  C20 UNL     1      10.958  23.024  21.073  1.00  0.00     0.001 A
HETATM   36  C21 UNL     1      10.881  22.564  19.779  1.00  0.00     0.000 A
HETATM   37  C22 UNL     1      10.907  21.226  19.485  1.00  0.00     0.001 A
HETATM   38  C23 UNL     1      11.015  20.324  20.558  1.00  0.00     0.016 A
ENDBRANCH  30  33
ENDBRANCH  28  30
ENDBRANCH  26  28
ENDBRANCH  21  24
ENDBRANCH   1  20
TORSDOF 10
ENDMDL