MODEL 5
REMARK VINA RESULT: -7.881066085      4.469      9.632
REMARK  9 active torsions:
REMARK  status: ('A' for Active; 'I' for Inactive)
REMARK    1  A    between atoms: N1_2  and  C2_4
REMARK    2  A    between atoms: C2_4  and  C4_6
REMARK    3  A    between atoms: C2_4  and  C18_22
REMARK    4  A    between atoms: C4_6  and  C5_7
REMARK    5  A    between atoms: C8_10  and  C9_11
REMARK    6  A    between atoms: C10_12  and  C11_13
REMARK    7  A    between atoms: C18_22  and  N3_23
REMARK    8  A    between atoms: C18_22  and  N4_33
REMARK       I    between atoms: N3_23  and  C19_25
REMARK    9  A    between atoms: C19_25  and  C20_27
ROOT
HETATM    1  C2  UNL     1      12.025  14.911  27.897  1.00  0.00     0.064 C
HETATM    2  C3  UNL     1      12.946  14.924  26.657  1.00  0.00     0.042 C
ENDROOT
BRANCH   1   3
HETATM    3  N1  UNL     1      11.938  13.577  28.363  1.00  0.00    -0.414 N
HETATM    4  C1  UNL     1      12.378  12.542  27.491  1.00  0.00     0.141 C
ATOM      5  H1  UNL     1      11.573  13.365  29.291  1.00  0.00     0.153 HD
ENDBRANCH   1   3
BRANCH   1   6
HETATM    6  C4  UNL     1      10.701  15.482  27.569  1.00  0.00     0.072 C
BRANCH   6   7
HETATM    7  C5  UNL     1      10.751  16.488  26.467  1.00  0.00    -0.056 A
HETATM    8  C6  UNL     1      10.658  17.810  26.762  1.00  0.00     0.009 A
HETATM    9  C7  UNL     1      10.706  18.731  25.734  1.00  0.00     0.021 A
HETATM   10  C8  UNL     1      10.845  18.383  24.407  1.00  0.00     0.018 A
HETATM   11  C16 UNL     1      10.940  17.039  24.110  1.00  0.00     0.021 A
HETATM   12  C17 UNL     1      10.891  16.104  25.152  1.00  0.00     0.009 A
BRANCH  10  13
HETATM   13  C9  UNL     1      10.893  19.389  23.361  1.00  0.00    -0.061 C
HETATM   14  C10 UNL     1      10.912  20.224  22.484  1.00  0.00    -0.060 C
BRANCH  14  15
HETATM   15  C11 UNL     1      10.914  21.204  21.430  1.00  0.00     0.033 A
HETATM   16  C12 UNL     1      10.770  20.855  20.091  1.00  0.00     0.023 A
HETATM   17  C13 UNL     1      10.772  21.806  19.095  1.00  0.00     0.019 A
HETATM   18  C14 UNL     1      10.919  23.137  19.406  1.00  0.00     0.087 A
HETATM   19  N2  UNL     1      11.057  23.484  20.693  1.00  0.00    -0.374 N
HETATM   20  C15 UNL     1      11.055  22.555  21.666  1.00  0.00     0.108 A
ATOM     21  H2  UNL     1      11.166  24.469  20.939  1.00  0.00     0.164 HD
ENDBRANCH  14  15
ENDBRANCH  10  13
ENDBRANCH   6   7
ENDBRANCH   1   6
BRANCH   1  22
HETATM   22  C18 UNL     1      12.721  15.789  28.937  1.00  0.00     0.211 C
BRANCH  22  23
HETATM   23  N3  UNL     1      11.909  15.846  30.140  1.00  0.00    -0.334 N
HETATM   24  C19 UNL     1      11.430  17.039  30.738  1.00  0.00     0.253 C
HETATM   25  O1  UNL     1      11.735  18.116  30.174  1.00  0.00    -0.268 OA
ATOM     26  H3  UNL     1      11.666  14.963  30.588  1.00  0.00     0.165 HD
BRANCH  24  27
HETATM   27  C20 UNL     1      10.625  17.077  31.935  1.00  0.00     0.032 A
HETATM   28  C21 UNL     1      10.174  15.931  32.548  1.00  0.00     0.017 A
HETATM   29  C22 UNL     1       9.401  15.969  33.706  1.00  0.00     0.001 A
HETATM   30  C23 UNL     1       9.098  17.202  34.225  1.00  0.00     0.000 A
HETATM   31  C24 UNL     1       9.534  18.372  33.636  1.00  0.00     0.001 A
HETATM   32  C25 UNL     1      10.294  18.274  32.494  1.00  0.00     0.017 A
ENDBRANCH  24  27
ENDBRANCH  22  23
BRANCH  22  33
HETATM   33  N4  UNL     1      14.054  15.495  29.045  1.00  0.00    -0.376 N
HETATM   34  C26 UNL     1      14.713  14.567  29.827  1.00  0.00     0.132 A
HETATM   35  C27 UNL     1      15.975  15.440  29.728  1.00  0.00     0.073 A
HETATM   36  C28 UNL     1      16.263  16.180  30.979  1.00  0.00     0.072 C
HETATM   37  C30 UNL     1      15.116  16.406  28.887  1.00  0.00     0.184 A
HETATM   38  N5  UNL     1      15.819  17.373  30.923  1.00  0.00    -0.339 N
HETATM   39  C29 UNL     1      15.184  17.628  29.679  1.00  0.00     0.244 C
ATOM     40  H5  UNL     1      15.907  18.056  31.675  1.00  0.00     0.167 HD
HETATM   41  O2  UNL     1      14.754  18.750  29.335  1.00  0.00    -0.271 OA
ENDBRANCH  22  33
ENDBRANCH   1  22
TORSDOF 9
ENDMDL