MODEL 5
REMARK VINA RESULT: -8.686414066      3.691      8.349
REMARK  7 active torsions:
REMARK  status: ('A' for Active; 'I' for Inactive)
REMARK    1  A    between atoms: N1_2  and  S1_4
REMARK    2  A    between atoms: S1_4  and  C3_7
REMARK    3  A    between atoms: C6_10  and  S2_11
REMARK    4  A    between atoms: S2_11  and  N2_14
REMARK       I    between atoms: C7_16  and  N3_17
REMARK       I    between atoms: C7_16  and  N4_26
REMARK    5  A    between atoms: N3_17  and  C8_19
REMARK    6  A    between atoms: C8_19  and  C9_20
REMARK       I    between atoms: N4_26  and  C15_28
REMARK    7  A    between atoms: C15_28  and  C16_30
ROOT
HETATM    1  N2  UNL     1      10.514  17.158  25.751  1.00  0.00    -0.112 N
ATOM      2  H2  UNL     1      10.116  18.086  25.897  1.00  0.00     0.197 HD
HETATM    3  C7  UNL     1      10.743  16.984  24.552  1.00  0.00     0.691 C
HETATM    4  N3  UNL     1      10.398  18.100  23.667  1.00  0.00    -0.221 N
ATOM      5  H3  UNL     1       9.628  18.035  23.001  1.00  0.00     0.178 HD
HETATM    6  N4  UNL     1      11.333  15.825  24.004  1.00  0.00    -0.155 N
ATOM      7  H4  UNL     1      11.606  15.072  24.635  1.00  0.00     0.187 HD
HETATM    8  C15 UNL     1      11.563  15.660  22.605  1.00  0.00     0.269 C
HETATM    9  O5  UNL     1      11.234  16.574  21.806  1.00  0.00    -0.267 OA
ENDROOT
BRANCH   1  10
HETATM   10  S2  UNL     1      10.645  16.364  27.207  1.00  0.00     0.276 S
HETATM   11  O3  UNL     1       9.680  15.177  27.288  1.00  0.00    -0.200 OA
HETATM   12  O4  UNL     1      10.382  17.255  28.415  1.00  0.00    -0.200 OA
BRANCH  10  13
HETATM   13  C6  UNL     1      12.263  15.711  27.416  1.00  0.00     0.080 A
HETATM   14  C5  UNL     1      13.339  16.501  27.096  1.00  0.00     0.027 A
HETATM   15  C4  UNL     1      14.604  15.956  27.251  1.00  0.00     0.026 A
HETATM   16  C3  UNL     1      14.788  14.666  27.710  1.00  0.00     0.074 A
HETATM   17  C23 UNL     1      13.696  13.911  28.020  1.00  0.00     0.026 A
HETATM   18  C22 UNL     1      12.436  14.430  27.875  1.00  0.00     0.027 A
BRANCH  16  19
HETATM   19  S1  UNL     1      16.415  14.033  27.881  1.00  0.00     0.242 S
HETATM   20  O1  UNL     1      17.151  14.274  26.598  1.00  0.00    -0.206 OA
HETATM   21  O2  UNL     1      16.257  12.538  28.098  1.00  0.00    -0.206 OA
BRANCH  19  22
HETATM   22  N1  UNL     1      17.261  14.667  29.212  1.00  0.00    -0.215 NA
HETATM   23  C1  UNL     1      16.529  14.765  30.426  1.00  0.00     0.129 C
HETATM   24  C2  UNL     1      18.563  14.104  29.410  1.00  0.00     0.129 C
ENDBRANCH  19  22
ENDBRANCH  16  19
ENDBRANCH  10  13
ENDBRANCH   1  10
BRANCH   4  25
HETATM   25  C8  UNL     1      11.188  19.281  23.779  1.00  0.00     0.176 C
BRANCH  25  26
HETATM   26  C9  UNL     1      11.227  20.127  22.587  1.00  0.00    -0.040 A
HETATM   27  C10 UNL     1      11.414  19.702  21.293  1.00  0.00     0.009 A
HETATM   28  C11 UNL     1      11.414  20.608  20.224  1.00  0.00     0.001 A
HETATM   29  C12 UNL     1      11.226  21.960  20.422  1.00  0.00     0.000 A
HETATM   30  C13 UNL     1      11.038  22.390  21.718  1.00  0.00     0.001 A
HETATM   31  C14 UNL     1      11.039  21.492  22.774  1.00  0.00     0.009 A
ENDBRANCH  25  26
ENDBRANCH   4  25
BRANCH   8  32
HETATM   32  C16 UNL     1      12.166  14.471  22.047  1.00  0.00     0.032 A
HETATM   33  C17 UNL     1      11.643  13.845  20.919  1.00  0.00     0.017 A
HETATM   34  C18 UNL     1      12.184  12.719  20.348  1.00  0.00     0.001 A
HETATM   35  C19 UNL     1      13.329  12.167  20.936  1.00  0.00     0.000 A
HETATM   36  C20 UNL     1      13.888  12.750  22.053  1.00  0.00     0.001 A
HETATM   37  C21 UNL     1      13.287  13.892  22.579  1.00  0.00     0.017 A
ENDBRANCH   8  32
TORSDOF 7
ENDMDL