MODEL 5
REMARK VINA RESULT: -7.588931886      1.991      4.768
REMARK  7 active torsions:
REMARK  status: ('A' for Active; 'I' for Inactive)
REMARK    1  A    between atoms: C2_2  and  C3_3
REMARK    2  A    between atoms: N1_11  and  C10_12
REMARK    3  A    between atoms: C10_12  and  C11_13
REMARK    4  A    between atoms: C11_13  and  N2_14
REMARK    5  A    between atoms: N4_28  and  C19_29
REMARK    6  A    between atoms: C19_29  and  C20_30
REMARK    7  A    between atoms: C25_35  and  O5_36
ROOT
HETATM    1  C1  UNL     1       9.510  15.513  27.708  1.00  0.00     0.055 C
HETATM    2  C2  UNL     1      10.900  15.591  27.140  1.00  0.00     0.146 C
HETATM    3  C9  UNL     1      11.591  14.287  27.545  1.00  0.00     0.261 C
HETATM    4  O1  UNL     1      11.068  13.249  27.854  1.00  0.00    -0.270 OA
HETATM    5  N1  UNL     1      12.973  14.632  27.459  1.00  0.00    -0.266 N
HETATM    6  C18 UNL     1      13.028  16.066  27.689  1.00  0.00     0.332 C
HETATM    7  O4  UNL     1      14.032  16.771  27.701  1.00  0.00    -0.246 OA
HETATM    8  N4  UNL     1      11.686  16.531  27.906  1.00  0.00    -0.286 N
ENDROOT
BRANCH   5   9
HETATM    9  C10 UNL     1      14.068  13.724  27.199  1.00  0.00     0.158 C
BRANCH   9  10
HETATM   10  C11 UNL     1      14.623  13.174  28.494  1.00  0.00     0.164 C
BRANCH  10  11
HETATM   11  N2  UNL     1      15.868  13.846  28.808  1.00  0.00    -0.255 N
HETATM   12  C12 UNL     1      16.161  14.774  29.844  1.00  0.00     0.073 A
HETATM   13  C13 UNL     1      15.199  15.368  30.674  1.00  0.00     0.033 A
HETATM   14  C17 UNL     1      17.461  15.074  30.007  1.00  0.00     0.071 A
HETATM   15  C14 UNL     1      15.548  16.257  31.660  1.00  0.00     0.002 A
HETATM   16  C15 UNL     1      16.879  16.568  31.832  1.00  0.00     0.002 A
HETATM   17  C16 UNL     1      17.819  15.983  31.015  1.00  0.00     0.032 A
HETATM   18  N3  UNL     1      18.360  14.434  29.129  1.00  0.00    -0.265 N
HETATM   19  S1  UNL     1      17.367  13.665  27.953  1.00  0.00     0.326 S
ATOM     20  H3  UNL     1      19.378  14.428  29.179  1.00  0.00     0.180 HD
HETATM   21  O2  UNL     1      17.711  12.237  27.738  1.00  0.00    -0.182 OA
HETATM   22  O3  UNL     1      17.305  14.444  26.672  1.00  0.00    -0.182 OA
ENDBRANCH  10  11
ENDBRANCH   9  10
ENDBRANCH   5   9
BRANCH   2  23
HETATM   23  C3  UNL     1      10.925  15.583  25.692  1.00  0.00    -0.021 A
HETATM   24  C4  UNL     1      10.826  16.870  25.114  1.00  0.00     0.010 A
HETATM   25  C5  UNL     1      10.806  17.031  23.762  1.00  0.00     0.001 A
HETATM   26  C6  UNL     1      10.881  15.966  22.899  1.00  0.00     0.000 A
HETATM   27  C7  UNL     1      10.976  14.722  23.475  1.00  0.00     0.001 A
HETATM   28  C8  UNL     1      10.999  14.514  24.849  1.00  0.00     0.010 A
ENDBRANCH   2  23
BRANCH   8  29
HETATM   29  C19 UNL     1      11.186  17.511  28.797  1.00  0.00     0.111 C
BRANCH  29  30
HETATM   30  C20 UNL     1      11.659  17.708  30.131  1.00  0.00     0.013 A
HETATM   31  C21 UNL     1      11.193  17.122  31.261  1.00  0.00     0.015 A
HETATM   32  C22 UNL     1      11.670  17.400  32.541  1.00  0.00     0.001 A
HETATM   33  C23 UNL     1      12.670  18.319  32.710  1.00  0.00     0.003 A
HETATM   34  C24 UNL     1      13.160  18.932  31.578  1.00  0.00     0.037 A
HETATM   35  C25 UNL     1      12.694  18.658  30.324  1.00  0.00     0.077 A
BRANCH  35  36
HETATM   36  O5  UNL     1      13.233  19.311  29.233  1.00  0.00    -0.360 OA
ATOM     37  H5  UNL     1      13.983  19.883  29.351  1.00  0.00     0.217 HD
ENDBRANCH  35  36
ENDBRANCH  29  30
ENDBRANCH   8  29
TORSDOF 7
ENDMDL