MODEL 3
REMARK VINA RESULT: -7.977000536      3.184      7.309
REMARK  8 active torsions:
REMARK  status: ('A' for Active; 'I' for Inactive)
REMARK    1  A    between atoms: C2_5  and  C3_6
REMARK       I    between atoms: C3_6  and  N3_8
REMARK    2  A    between atoms: N3_8  and  C4_10
REMARK    3  A    between atoms: N4_13  and  C6_14
REMARK    4  A    between atoms: C6_14  and  C7_15
REMARK    5  A    between atoms: C15_25  and  C16_26
REMARK    6  A    between atoms: N6_32  and  C22_33
REMARK    7  A    between atoms: C22_33  and  O3_34
REMARK    8  A    between atoms: C22_33  and  C23_36
ROOT
HETATM    1  C4  UNL     1      10.905  13.187  22.298  1.00  0.00     0.189 C
HETATM    2  C5  UNL     1       9.508  13.273  21.792  1.00  0.00     0.244 C
HETATM    3  O2  UNL     1       8.855  12.202  21.830  1.00  0.00    -0.271 OA
HETATM    4  N4  UNL     1       8.811  14.389  21.274  1.00  0.00    -0.343 N
HETATM    5  C12 UNL     1       9.084  15.772  21.512  1.00  0.00     0.153 C
HETATM    6  C13 UNL     1      10.482  16.110  21.810  1.00  0.00    -0.010 C
HETATM    7  C14 UNL     1      11.621  15.438  21.784  1.00  0.00    -0.017 C
HETATM    8  C15 UNL     1      11.772  14.022  21.405  1.00  0.00     0.073 C
ENDROOT
BRANCH   1   9
HETATM    9  N3  UNL     1      10.880  13.618  23.684  1.00  0.00    -0.344 N
HETATM   10  C3  UNL     1      11.669  12.999  24.689  1.00  0.00     0.261 C
HETATM   11  O1  UNL     1      12.409  12.049  24.354  1.00  0.00    -0.269 OA
ATOM     12  H3  UNL     1      10.273  14.394  23.946  1.00  0.00     0.163 HD
BRANCH  10  13
HETATM   13  C2  UNL     1      11.681  13.398  26.115  1.00  0.00     0.289 A
HETATM   14  N2  UNL     1      12.960  13.442  26.654  1.00  0.00    -0.335 N
HETATM   15  C1  UNL     1      13.015  14.692  26.839  1.00  0.00     0.196 A
ATOM     16  H2  UNL     1      13.638  12.704  26.841  1.00  0.00     0.164 HD
HETATM   17  N1  UNL     1      14.068  15.512  27.385  1.00  0.00    -0.063 NA
HETATM   18  N6  UNL     1      11.726  14.864  26.329  1.00  0.00    -0.270 N
BRANCH  18  19
HETATM   19  C22 UNL     1      10.712  15.797  26.033  1.00  0.00     0.157 C
BRANCH  19  20
HETATM   20  O3  UNL     1       9.553  15.434  26.512  1.00  0.00    -0.345 OA
ATOM     21  H3  UNL     1       9.466  15.642  27.435  1.00  0.00     0.219 HD
ENDBRANCH  19  20
BRANCH  19  22
HETATM   22  C23 UNL     1      10.725  17.034  25.322  1.00  0.00     0.015 A
HETATM   23  C24 UNL     1       9.552  17.812  25.343  1.00  0.00     0.016 A
HETATM   24  C25 UNL     1       9.460  19.015  24.694  1.00  0.00     0.001 A
HETATM   25  C26 UNL     1      10.534  19.506  23.990  1.00  0.00     0.000 A
HETATM   26  C27 UNL     1      11.695  18.792  23.938  1.00  0.00     0.001 A
HETATM   27  C28 UNL     1      11.765  17.574  24.604  1.00  0.00     0.016 A
ENDBRANCH  19  22
ENDBRANCH  18  19
ENDBRANCH  10  13
ENDBRANCH   1   9
BRANCH   8  28
HETATM   28  C16 UNL     1      13.171  13.587  21.303  1.00  0.00    -0.048 A
HETATM   29  C17 UNL     1      13.584  12.739  20.294  1.00  0.00     0.008 A
HETATM   30  C18 UNL     1      14.880  12.297  20.144  1.00  0.00     0.001 A
HETATM   31  C19 UNL     1      15.827  12.720  21.051  1.00  0.00     0.000 A
HETATM   32  C20 UNL     1      15.481  13.554  22.067  1.00  0.00     0.001 A
HETATM   33  C21 UNL     1      14.160  13.984  22.191  1.00  0.00     0.008 A
ENDBRANCH   8  28
BRANCH   4  34
HETATM   34  C6  UNL     1       7.662  14.128  20.387  1.00  0.00     0.166 C
BRANCH  34  35
HETATM   35  C7  UNL     1       8.037  13.974  18.985  1.00  0.00    -0.025 A
HETATM   36  C8  UNL     1       7.622  12.872  18.235  1.00  0.00     0.011 A
HETATM   37  C9  UNL     1       7.996  12.781  16.923  1.00  0.00     0.018 A
HETATM   38  C10 UNL     1       8.773  13.742  16.311  1.00  0.00     0.087 A
HETATM   39  N5  UNL     1       9.153  14.785  17.062  1.00  0.00    -0.375 N
HETATM   40  C11 UNL     1       8.811  14.929  18.372  1.00  0.00     0.096 A
ATOM     41  H5  UNL     1       9.729  15.509  16.630  1.00  0.00     0.164 HD
ENDBRANCH  34  35
ENDBRANCH   4  34
TORSDOF 8
ENDMDL