MODEL 2
REMARK VINA RESULT: -9.028942460      1.804      2.360
REMARK  6 active torsions:
REMARK  status: ('A' for Active; 'I' for Inactive)
REMARK    1  A    between atoms: C6_11  and  N4_12
REMARK    2  A    between atoms: N4_12  and  C7_14
REMARK    3  A    between atoms: C10_17  and  S1_18
REMARK    4  A    between atoms: S1_18  and  N5_21
REMARK    5  A    between atoms: N5_21  and  C11_23
REMARK    6  A    between atoms: C11_23  and  C12_24
ROOT
HETATM    1  N4  UNL     1      10.010  13.028  20.121  1.00  0.00    -0.342 N
ATOM      2  H4  UNL     1       9.037  12.901  19.842  1.00  0.00     0.167 HD
ENDROOT
BRANCH   1   3
HETATM    3  C6  UNL     1      10.911  12.390  19.479  1.00  0.00     0.121 A
HETATM    4  N3  UNL     1      12.061  12.079  20.153  1.00  0.00    -0.338 N
HETATM    5  C5  UNL     1      13.038  11.409  19.530  1.00  0.00     0.182 A
ATOM      6  H3  UNL     1      12.173  12.356  21.129  1.00  0.00     0.168 HD
HETATM    7  N2  UNL     1      12.903  11.039  18.249  1.00  0.00    -0.352 N
HETATM    8  C4  UNL     1      11.783  11.328  17.549  1.00  0.00     0.047 A
ATOM      9  H2  UNL     1      13.661  10.531  17.793  1.00  0.00     0.166 HD
HETATM   10  C3  UNL     1      11.764  10.917  16.309  1.00  0.00     0.023 A
HETATM   11  C20 UNL     1      10.739  12.027  18.171  1.00  0.00     0.062 A
HETATM   12  C2  UNL     1      10.623  11.160  15.445  1.00  0.00     0.152 A
HETATM   13  N1  UNL     1       9.584  11.876  16.122  1.00  0.00    -0.380 N
HETATM   14  C1  UNL     1       8.350  12.218  15.415  1.00  0.00     0.150 C
HETATM   15  C21 UNL     1       9.642  12.315  17.501  1.00  0.00     0.057 A
HETATM   16  C22 UNL     1       8.513  13.032  18.056  1.00  0.00    -0.009 A
HETATM   17  C23 UNL     1       8.372  14.404  17.996  1.00  0.00     0.014 A
HETATM   18  C27 UNL     1       7.476  12.326  18.630  1.00  0.00     0.014 A
HETATM   19  C24 UNL     1       7.252  15.048  18.483  1.00  0.00     0.001 A
HETATM   20  C25 UNL     1       6.232  14.313  19.051  1.00  0.00     0.000 A
HETATM   21  C26 UNL     1       6.351  12.951  19.121  1.00  0.00     0.001 A
ENDBRANCH   1   3
BRANCH   1  22
HETATM   22  C7  UNL     1      10.290  13.903  21.202  1.00  0.00     0.033 A
HETATM   23  C8  UNL     1      10.448  13.444  22.475  1.00  0.00     0.031 A
HETATM   24  C9  UNL     1      10.718  14.318  23.500  1.00  0.00     0.027 A
HETATM   25  C10 UNL     1      10.845  15.678  23.320  1.00  0.00     0.079 A
HETATM   26  C18 UNL     1      10.686  16.150  22.033  1.00  0.00     0.027 A
HETATM   27  C19 UNL     1      10.412  15.277  20.987  1.00  0.00     0.031 A
BRANCH  25  28
HETATM   28  S1  UNL     1      11.187  16.682  24.691  1.00  0.00     0.259 S
HETATM   29  O1  UNL     1      12.236  15.978  25.540  1.00  0.00    -0.201 OA
HETATM   30  O2  UNL     1      10.005  16.915  25.559  1.00  0.00    -0.201 OA
BRANCH  28  31
HETATM   31  N5  UNL     1      11.881  18.195  24.230  1.00  0.00    -0.311 N
ATOM     32  H5  UNL     1      12.872  18.337  24.036  1.00  0.00     0.172 HD
BRANCH  31  33
HETATM   33  C11 UNL     1      10.876  19.238  24.154  1.00  0.00     0.170 C
BRANCH  33  34
HETATM   34  C12 UNL     1      11.095  20.002  22.906  1.00  0.00    -0.040 A
HETATM   35  C13 UNL     1      11.476  19.420  21.718  1.00  0.00     0.009 A
HETATM   36  C14 UNL     1      11.668  20.191  20.580  1.00  0.00     0.001 A
HETATM   37  C15 UNL     1      11.489  21.556  20.582  1.00  0.00     0.000 A
HETATM   38  C16 UNL     1      11.109  22.132  21.769  1.00  0.00     0.001 A
HETATM   39  C17 UNL     1      10.916  21.382  22.906  1.00  0.00     0.009 A
ENDBRANCH  33  34
ENDBRANCH  31  33
ENDBRANCH  28  31
ENDBRANCH  25  28
ENDBRANCH   1  22
TORSDOF 6
ENDMDL