MODEL 1
REMARK VINA RESULT: -8.090492254      0.000      0.000
REMARK  9 active torsions:
REMARK  status: ('A' for Active; 'I' for Inactive)
REMARK    1  A    between atoms: C4_7  and  C5_8
REMARK    2  A    between atoms: C5_8  and  C6_9
REMARK    3  A    between atoms: N3_14  and  C8_15
REMARK    4  A    between atoms: N5_24  and  C15_26
REMARK    5  A    between atoms: C18_29  and  C19_30
REMARK    6  A    between atoms: C19_30  and  O3_31
REMARK    7  A    between atoms: C19_30  and  N6_33
REMARK    8  A    between atoms: N6_33  and  C20_34
REMARK    9  A    between atoms: N6_33  and  C23_37
ROOT
HETATM    1  C1  UNL     1      10.639  12.774  18.756  1.00  0.00     0.047 C
HETATM    2  C2  UNL     1      10.435  13.742  19.625  1.00  0.00     0.070 A
HETATM    3  N1  UNL     1       9.334  14.535  19.475  1.00  0.00    -0.319 N
ATOM      4  H1  UNL     1       8.699  14.353  18.698  1.00  0.00     0.169 HD
HETATM    5  C3  UNL     1       9.060  15.546  20.314  1.00  0.00     0.272 A
HETATM    6  O1  UNL     1       8.031  16.240  20.123  1.00  0.00    -0.266 OA
HETATM    7  C4  UNL     1       9.879  15.843  21.381  1.00  0.00     0.104 A
HETATM    8  N4  UNL     1      10.951  15.081  21.537  1.00  0.00    -0.336 N
ATOM      9  H4  UNL     1      11.576  15.279  22.318  1.00  0.00     0.168 HD
HETATM   10  C14 UNL     1      11.267  14.023  20.686  1.00  0.00     0.133 A
HETATM   11  N5  UNL     1      12.266  13.389  20.945  1.00  0.00    -0.341 N
ATOM     12  H5  UNL     1      12.643  13.851  21.773  1.00  0.00     0.167 HD
ENDROOT
BRANCH  11  13
HETATM   13  C15 UNL     1      13.139  12.387  20.704  1.00  0.00     0.033 A
HETATM   14  C16 UNL     1      14.231  12.575  19.847  1.00  0.00     0.030 A
HETATM   15  C17 UNL     1      15.116  11.562  19.605  1.00  0.00     0.018 A
HETATM   16  C18 UNL     1      15.020  10.327  20.158  1.00  0.00     0.015 A
HETATM   17  C26 UNL     1      13.925  10.131  21.016  1.00  0.00     0.018 A
HETATM   18  C27 UNL     1      13.012  11.115  21.288  1.00  0.00     0.030 A
BRANCH  16  19
HETATM   19  C19 UNL     1      15.965   9.265  20.019  1.00  0.00     0.149 C
BRANCH  19  20
HETATM   20  O3  UNL     1      16.299   8.716  21.180  1.00  0.00    -0.346 OA
ATOM     21  H3  UNL     1      16.422   7.775  21.122  1.00  0.00     0.219 HD
ENDBRANCH  19  20
BRANCH  19  22
HETATM   22  N6  UNL     1      16.598   8.702  18.921  1.00  0.00    -0.353 N
BRANCH  22  23
HETATM   23  C20 UNL     1      17.790   9.403  18.395  1.00  0.00     0.078 C
HETATM   24  C21 UNL     1      18.612  10.013  19.485  1.00  0.00     0.032 C
HETATM   25  C22 UNL     1      18.600   8.390  17.580  1.00  0.00     0.032 C
ENDBRANCH  22  23
BRANCH  22  26
HETATM   26  C23 UNL     1      16.171   7.586  18.159  1.00  0.00     0.078 C
HETATM   27  C24 UNL     1      15.847   6.390  19.063  1.00  0.00     0.032 C
HETATM   28  C25 UNL     1      14.853   7.859  17.432  1.00  0.00     0.032 C
ENDBRANCH  22  26
ENDBRANCH  19  22
ENDBRANCH  16  19
ENDBRANCH  11  13
BRANCH   7  29
HETATM   29  C5  UNL     1       9.629  16.833  22.234  1.00  0.00     0.069 C
BRANCH  29  30
HETATM   30  C6  UNL     1      10.431  17.146  23.388  1.00  0.00     0.085 A
HETATM   31  C7  UNL     1      10.594  16.329  24.519  1.00  0.00     0.201 A
HETATM   32  O2  UNL     1      11.393  16.996  25.341  1.00  0.00    -0.232 OA
HETATM   33  N2  UNL     1      11.715  18.129  24.799  1.00  0.00    -0.195 N
HETATM   34  N3  UNL     1      11.155  18.251  23.625  1.00  0.00    -0.235 N
ATOM     35  H2  UNL     1      12.321  18.828  25.229  1.00  0.00     0.217 HD
BRANCH  34  36
HETATM   36  C8  UNL     1      11.271  19.354  22.735  1.00  0.00     0.058 A
HETATM   37  C9  UNL     1      11.692  19.190  21.423  1.00  0.00     0.031 A
HETATM   38  C10 UNL     1      11.805  20.257  20.562  1.00  0.00     0.002 A
HETATM   39  C11 UNL     1      11.499  21.524  20.995  1.00  0.00     0.000 A
HETATM   40  C12 UNL     1      11.080  21.701  22.293  1.00  0.00     0.002 A
HETATM   41  C13 UNL     1      10.963  20.639  23.163  1.00  0.00     0.031 A
ENDBRANCH  34  36
ENDBRANCH  29  30
ENDBRANCH   7  29
TORSDOF 9
ENDMDL