MODEL 5
REMARK VINA RESULT: -6.603332248      2.231      6.585
REMARK  4 active torsions:
REMARK  status: ('A' for Active; 'I' for Inactive)
REMARK    1  A    between atoms: C2_2  and  O1_3
REMARK    2  A    between atoms: C2_2  and  C5_9
REMARK    3  A    between atoms: O1_3  and  N1_4
REMARK    4  A    between atoms: C3_6  and  C4_7
ROOT
HETATM    1  C1  UNL     1      29.232  11.076  11.507  1.00  0.00     0.043 C
HETATM    2  C2  UNL     1      28.956  11.240  13.010  1.00  0.00     0.156 C
ENDROOT
BRANCH   2   3
HETATM    3  O1  UNL     1      28.432  12.531  13.161  1.00  0.00    -0.275 OA
BRANCH   3   4
HETATM    4  N1  UNL     1      29.057  13.572  13.751  1.00  0.00    -0.275 N
HETATM    5  C3  UNL     1      28.719  14.142  14.834  1.00  0.00     0.155 C
ATOM      6  H1  UNL     1      29.884  13.938  13.278  1.00  0.00     0.193 HD
BRANCH   5   7
HETATM    7  C4  UNL     1      29.496  15.258  15.346  1.00  0.00     0.277 C
HETATM    8  O2  UNL     1      30.291  15.923  14.635  1.00  0.00    -0.301 OA
ENDBRANCH   5   7
ENDBRANCH   3   4
ENDBRANCH   2   3
BRANCH   2   9
HETATM    9  C5  UNL     1      28.136  10.150  13.469  1.00  0.00    -0.011 C
HETATM   10  C6  UNL     1      27.309  10.243  14.700  1.00  0.00     0.012 C
HETATM   11  C7  UNL     1      26.651   8.844  14.674  1.00  0.00     0.005 C
HETATM   12  C8  UNL     1      27.273   8.317  13.413  1.00  0.00    -0.013 C
HETATM   13  C9  UNL     1      27.133   9.532  12.484  1.00  0.00     0.017 C
HETATM   14  C10 UNL     1      28.718   8.757  13.568  1.00  0.00     0.017 C
ENDBRANCH   2   9
TORSDOF 4
ENDMDL