MODEL 1
REMARK VINA RESULT: -6.668662531      0.000      0.000
REMARK  3 active torsions:
REMARK  status: ('A' for Active; 'I' for Inactive)
REMARK    1  A    between atoms: O1_2  and  N1_3
REMARK    2  A    between atoms: C2_5  and  C3_6
REMARK    3  A    between atoms: C3_6  and  N2_7
ROOT
HETATM    1  N2  UNL     1      33.836  21.674  17.336  1.00  0.00    -0.277 NA
HETATM    2  C4  UNL     1      35.231  21.818  17.765  1.00  0.00     0.096 C
HETATM    3  C5  UNL     1      36.294  21.744  16.805  1.00  0.00     0.016 C
HETATM    4  C6  UNL     1      36.902  22.996  16.158  1.00  0.00     0.012 C
HETATM    5  C7  UNL     1      35.807  23.871  15.470  1.00  0.00     0.081 C
HETATM    6  C8  UNL     1      34.559  23.447  15.973  1.00  0.00    -0.163 C
HETATM    7  C9  UNL     1      33.410  22.894  16.577  1.00  0.00     0.124 C
HETATM    8  C10 UNL     1      32.671  23.863  17.508  1.00  0.00     0.039 C
ENDROOT
BRANCH   1   9
HETATM    9  C3  UNL     1      33.047  21.391  18.461  1.00  0.00     0.080 C
BRANCH   9  10
HETATM   10  C2  UNL     1      32.256  20.112  18.339  1.00  0.00     0.125 C
HETATM   11  N1  UNL     1      32.912  19.066  18.106  1.00  0.00    -0.278 N
ATOM     12  H1  UNL     1      33.921  19.193  18.020  1.00  0.00     0.193 HD
BRANCH  11  13
HETATM   13  O1  UNL     1      32.478  17.803  17.953  1.00  0.00    -0.286 OA
HETATM   14  C1  UNL     1      31.560  17.440  16.957  1.00  0.00     0.237 C
ENDBRANCH  11  13
ENDBRANCH   9  10
ENDBRANCH   1   9
TORSDOF 3
ENDMDL