MODEL 2
REMARK VINA RESULT: -6.041240160      1.373      4.455
REMARK  3 active torsions:
REMARK  status: ('A' for Active; 'I' for Inactive)
REMARK    1  A    between atoms: C2_2  and  C3_3
REMARK    2  A    between atoms: C6_10  and  O1_11
REMARK    3  A    between atoms: O1_11  and  C7_12
ROOT
HETATM    1  C3  UNL     1      27.864  10.620  14.015  1.00  0.00     0.042 A
HETATM    2  N1  UNL     1      28.305  10.301  12.750  1.00  0.00    -0.346 N
ATOM      3  H1  UNL     1      28.064   9.389  12.362  1.00  0.00     0.167 HD
HETATM    4  C4  UNL     1      29.037  11.138  12.013  1.00  0.00     0.079 A
HETATM    5  C5  UNL     1      29.496  10.754  10.642  1.00  0.00     0.089 C
HETATM    6  N2  UNL     1      29.367  12.352  12.510  1.00  0.00    -0.326 N
ATOM      7  H2  UNL     1      29.928  12.985  11.938  1.00  0.00     0.169 HD
HETATM    8  C6  UNL     1      28.982  12.749  13.729  1.00  0.00     0.151 A
HETATM    9  C9  UNL     1      28.216  11.862  14.492  1.00  0.00     0.016 A
HETATM   10  C10 UNL     1      27.789  12.373  15.817  1.00  0.00     0.055 C
ENDROOT
BRANCH   8  11
HETATM   11  O1  UNL     1      29.311  13.984  14.253  1.00  0.00    -0.336 OA
BRANCH  11  12
HETATM   12  C7  UNL     1      30.133  14.925  13.655  1.00  0.00     0.173 C
HETATM   13  C8  UNL     1      30.317  16.131  14.562  1.00  0.00     0.034 C
ENDBRANCH  11  12
ENDBRANCH   8  11
BRANCH   1  14
HETATM   14  C2  UNL     1      27.057   9.665  14.743  1.00  0.00     0.020 C
HETATM   15  C1  UNL     1      26.825   8.417  14.525  1.00  0.00     0.013 C
ENDBRANCH   1  14
TORSDOF 3
ENDMDL