MODEL 4
REMARK VINA RESULT: -6.438411565      4.630      6.367
REMARK  5 active torsions:
REMARK  status: ('A' for Active; 'I' for Inactive)
REMARK    1  A    between atoms: C2_2  and  O1_4
REMARK    2  A    between atoms: O1_4  and  N1_5
REMARK    3  A    between atoms: N1_5  and  C4_7
REMARK    4  A    between atoms: N2_10  and  N3_11
REMARK    5  A    between atoms: N3_11  and  N4_13
ROOT
HETATM    1  C4  UNL     1      28.603  12.717  14.018  1.00  0.00     0.031 C
HETATM    2  C5  UNL     1      27.973  11.914  15.074  1.00  0.00     0.077 C
HETATM    3  C6  UNL     1      28.271  10.497  14.568  1.00  0.00     0.150 C
HETATM    4  N2  UNL     1      27.879  10.649  13.179  1.00  0.00    -0.307 N
HETATM    5  C7  UNL     1      28.421  11.928  12.760  1.00  0.00     0.198 C
ENDROOT
BRANCH   4   6
HETATM    6  N3  UNL     1      27.135   9.711  12.467  1.00  0.00    -0.231 N
ATOM      7  H3  UNL     1      26.320   9.975  11.913  1.00  0.00     0.209 HD
BRANCH   6   8
HETATM    8  N4  UNL     1      27.523   8.526  12.548  1.00  0.00    -0.235 N
HETATM    9  N5  UNL     1      27.496   7.384  13.006  1.00  0.00    -0.330 N
ATOM     10  H52 UNL     1      26.742   7.472  13.687  1.00  0.00     0.178 HD
ATOM     11  H51 UNL     1      27.813   6.417  13.071  1.00  0.00     0.178 HD
ATOM     12  H4  UNL     1      28.272   8.480  11.856  1.00  0.00     0.209 HD
ENDBRANCH   6   8
ENDBRANCH   4   6
BRANCH   1  13
HETATM   13  N1  UNL     1      29.198  13.856  14.095  1.00  0.00    -0.273 N
ATOM     14  H1  UNL     1      29.673  14.216  13.267  1.00  0.00     0.193 HD
BRANCH  13  15
HETATM   15  O1  UNL     1      29.219  14.609  15.244  1.00  0.00    -0.276 OA
BRANCH  15  16
HETATM   16  C2  UNL     1      29.554  15.961  15.252  1.00  0.00     0.144 C
HETATM   17  C1  UNL     1      30.125  16.422  16.572  1.00  0.00     0.042 C
HETATM   18  C3  UNL     1      30.519  16.287  14.143  1.00  0.00     0.042 C
ENDBRANCH  15  16
ENDBRANCH  13  15
ENDBRANCH   1  13
TORSDOF 5
ENDMDL