MODEL 5
REMARK VINA RESULT: -5.307395058     10.164     12.345
REMARK  2 active torsions:
REMARK  status: ('A' for Active; 'I' for Inactive)
REMARK    1  A    between atoms: C2_2  and  C3_3
REMARK    2  A    between atoms: C6_12  and  C7_13
ROOT
HETATM    1  C3  UNL     1      28.748  11.585  12.784  1.00  0.00     0.048 A
HETATM    2  N1  UNL     1      29.109  12.883  12.839  1.00  0.00    -0.302 N
ATOM      3  H1  UNL     1      29.463  13.353  12.006  1.00  0.00     0.186 HD
HETATM    4  N2  UNL     1      29.002  13.545  13.981  1.00  0.00    -0.289 N
ATOM      5  H2  UNL     1      29.272  14.527  14.035  1.00  0.00     0.188 HD
HETATM    6  C4  UNL     1      28.534  12.913  15.064  1.00  0.00     0.092 A
HETATM    7  C5  UNL     1      28.462  13.590  16.384  1.00  0.00     0.090 C
HETATM    8  N3  UNL     1      28.161  11.587  15.028  1.00  0.00    -0.347 N
ATOM      9  H3  UNL     1      27.809  11.137  15.872  1.00  0.00     0.167 HD
HETATM   10  C6  UNL     1      28.259  10.889  13.892  1.00  0.00     0.039 A
ENDROOT
BRANCH  10  11
HETATM   11  C7  UNL     1      28.136   9.449  13.814  1.00  0.00     0.037 C
HETATM   12  C8  UNL     1      27.457   8.840  12.616  1.00  0.00     0.011 C
HETATM   13  C9  UNL     1      27.375   7.384  13.156  1.00  0.00     0.001 C
HETATM   14  C10 UNL     1      26.678   7.673  14.500  1.00  0.00     0.001 C
HETATM   15  C11 UNL     1      26.892   9.104  14.809  1.00  0.00     0.011 C
ENDBRANCH  10  11
BRANCH   1  16
HETATM   16  C2  UNL     1      28.665  10.860  11.487  1.00  0.00     0.056 C
HETATM   17  C1  UNL     1      30.052  10.805  10.878  1.00  0.00     0.011 C
ENDBRANCH   1  16
TORSDOF 2
ENDMDL