MODEL 2
REMARK VINA RESULT: -4.642010142     15.209     17.541
REMARK  3 active torsions:
REMARK  status: ('A' for Active; 'I' for Inactive)
REMARK    1  A    between atoms: S1_2  and  C2_3
REMARK    2  A    between atoms: C2_3  and  C3_4
REMARK    3  A    between atoms: C2_3  and  C6_10
ROOT
HETATM    1  C3  UNL     1      33.377  21.176  18.205  1.00  0.00     0.060 C
HETATM    2  N1  UNL     1      32.748  20.479  17.387  1.00  0.00    -0.366 N
ATOM      3  H1  UNL     1      32.882  20.635  16.388  1.00  0.00     0.165 HD
HETATM    4  C4  UNL     1      31.872  19.493  17.810  1.00  0.00     0.072 C
HETATM    5  C5  UNL     1      32.217  18.982  19.191  1.00  0.00     0.125 C
HETATM    6  S2  UNL     1      32.881  20.579  19.841  1.00  0.00    -0.110 SA
ENDROOT
BRANCH   1   7
HETATM    7  C2  UNL     1      34.357  22.277  18.042  1.00  0.00     0.107 C
BRANCH   7   8
HETATM    8  S1  UNL     1      35.762  21.694  17.021  1.00  0.00    -0.162 SA
HETATM    9  C1  UNL     1      36.851  23.118  16.638  1.00  0.00     0.090 C
ENDBRANCH   7   8
BRANCH   7  10
HETATM   10  C6  UNL     1      33.791  23.552  17.532  1.00  0.00     0.006 A
HETATM   11  C7  UNL     1      33.200  23.682  16.181  1.00  0.00     0.006 A
HETATM   12  C8  UNL     1      32.328  23.803  17.440  1.00  0.00     0.006 A
ENDBRANCH   7  10
ENDBRANCH   1   7
TORSDOF 3
ENDMDL