MODEL 4
REMARK VINA RESULT: -5.512462636     14.343     17.562
REMARK  3 active torsions:
REMARK  status: ('A' for Active; 'I' for Inactive)
REMARK    1  A    between atoms: C2_2  and  C3_3
REMARK    2  A    between atoms: C3_3  and  C4_4
REMARK    3  A    between atoms: C6_6  and  O1_7
ROOT
HETATM    1  C4  UNL     1      32.665  20.314  17.874  1.00  0.00     0.166 C
HETATM    2  C5  UNL     1      34.143  20.097  17.797  1.00  0.00     0.070 C
HETATM    3  C6  UNL     1      34.780  21.357  17.251  1.00  0.00     0.160 C
HETATM    4  C8  UNL     1      33.977  22.587  17.595  1.00  0.00     0.115 C
HETATM    5  C9  UNL     1      34.866  23.772  17.915  1.00  0.00     0.051 C
HETATM    6  C10 UNL     1      33.043  23.003  16.484  1.00  0.00     0.051 C
HETATM    7  O2  UNL     1      33.272  22.288  18.773  1.00  0.00    -0.227 OA
HETATM    8  O3  UNL     1      32.295  21.480  18.510  1.00  0.00    -0.234 OA
ENDROOT
BRANCH   1   9
HETATM    9  C3  UNL     1      31.940  19.155  18.521  1.00  0.00     0.061 C
BRANCH   9  10
HETATM   10  C2  UNL     1      32.334  17.852  17.984  1.00  0.00    -0.034 C
HETATM   11  C1  UNL     1      31.728  17.340  16.927  1.00  0.00     0.007 C
ENDBRANCH   9  10
ENDBRANCH   1   9
BRANCH   3  12
HETATM   12  O1  UNL     1      36.069  21.419  17.768  1.00  0.00    -0.388 OA
HETATM   13  C7  UNL     1      37.024  21.567  16.763  1.00  0.00     0.202 C
ENDBRANCH   3  12
TORSDOF 3
ENDMDL