MODEL 3
REMARK VINA RESULT: -4.675876540      2.532      4.229
REMARK  3 active torsions:
REMARK  status: ('A' for Active; 'I' for Inactive)
REMARK    1  A    between atoms: C3_3  and  C4_4
REMARK    2  A    between atoms: C4_4  and  N1_5
REMARK    3  A    between atoms: C9_12  and  C10_13
ROOT
HETATM    1  C1  UNL     1      35.928  21.201  17.246  1.00  0.00     0.098 C
HETATM    2  C2  UNL     1      34.799  21.011  17.672  1.00  0.00    -0.175 C
HETATM    3  C3  UNL     1      33.450  20.792  18.202  1.00  0.00     0.040 C
HETATM    4  C5  UNL     1      33.330  21.429  19.561  1.00  0.00     0.024 C
HETATM    5  C6  UNL     1      33.249  20.436  20.674  1.00  0.00     0.002 C
HETATM    6  C7  UNL     1      32.190  19.392  20.485  1.00  0.00     0.001 C
HETATM    7  C8  UNL     1      32.027  18.942  19.065  1.00  0.00     0.010 C
HETATM    8  C9  UNL     1      33.240  19.278  18.264  1.00  0.00     0.029 C
ENDROOT
BRANCH   3   9
HETATM    9  C4  UNL     1      32.441  21.329  17.222  1.00  0.00     0.223 C
BRANCH   9  10
HETATM   10  N1  UNL     1      32.547  22.750  17.045  1.00  0.00    -0.154 N
HETATM   11  O1  UNL     1      31.937  23.506  17.803  1.00  0.00    -0.536 OA
HETATM   12  O2  UNL     1      33.316  23.262  16.048  1.00  0.00    -0.536 OA
ENDBRANCH   9  10
ENDBRANCH   3   9
BRANCH   8  13
HETATM   13  C10 UNL     1      33.111  18.755  16.886  1.00  0.00    -0.030 C
HETATM   14  C11 UNL     1      32.441  17.648  16.596  1.00  0.00     0.007 C
ENDBRANCH   8  13
TORSDOF 3
ENDMDL