MODEL 4
REMARK VINA RESULT: -5.495816579      3.435      8.608
REMARK  3 active torsions:
REMARK  status: ('A' for Active; 'I' for Inactive)
REMARK    1  A    between atoms: C2_2  and  N1_3
REMARK    2  A    between atoms: C3_5  and  N2_6
REMARK    3  A    between atoms: N3_8  and  N4_10
ROOT
HETATM    1  N2  UNL     1      29.976  14.356  13.390  1.00  0.00    -0.282 N
ATOM      2  H2  UNL     1      30.384  13.915  12.565  1.00  0.00     0.189 HD
HETATM    3  N3  UNL     1      29.207  13.722  14.152  1.00  0.00    -0.243 N
ATOM      4  H3  UNL     1      28.828  14.210  14.963  1.00  0.00     0.208 HD
ENDROOT
BRANCH   3   5
HETATM    5  N4  UNL     1      28.835  12.385  13.958  1.00  0.00    -0.305 N
HETATM    6  C4  UNL     1      28.354  11.678  15.133  1.00  0.00     0.100 C
HETATM    7  C5  UNL     1      27.410  12.514  15.950  1.00  0.00     0.034 C
HETATM    8  C6  UNL     1      27.636  10.441  14.645  1.00  0.00     0.026 C
HETATM    9  C7  UNL     1      28.657   9.596  13.910  1.00  0.00     0.004 C
HETATM   10  C8  UNL     1      29.259  10.297  12.733  1.00  0.00     0.026 C
HETATM   11  C9  UNL     1      28.930  11.754  12.653  1.00  0.00     0.100 C
HETATM   12  C10 UNL     1      27.699  12.028  11.807  1.00  0.00     0.034 C
ENDBRANCH   3   5
BRANCH   1  13
HETATM   13  C3  UNL     1      30.259  15.711  13.720  1.00  0.00     0.194 C
HETATM   14  N1  UNL     1      30.000  16.091  14.922  1.00  0.00    -0.385 N
ATOM     15  H1  UNL     1      29.609  15.430  15.593  1.00  0.00     0.160 HD
BRANCH  14  16
HETATM   16  C2  UNL     1      30.264  17.455  15.320  1.00  0.00     0.116 C
HETATM   17  C1  UNL     1      31.402  17.462  16.317  1.00  0.00     0.026 C
ENDBRANCH  14  16
ENDBRANCH   1  13
TORSDOF 3
ENDMDL