MODEL 2
REMARK VINA RESULT: -4.579081666     11.806     13.378
REMARK  3 active torsions:
REMARK  status: ('A' for Active; 'I' for Inactive)
REMARK    1  A    between atoms: O1_2  and  C2_3
REMARK    2  A    between atoms: C3_4  and  C4_5
REMARK    3  A    between atoms: C4_5  and  O2_7
ROOT
HETATM    1  C2  UNL     1      28.325  11.230  12.986  1.00  0.00     0.060 C
HETATM    2  C3  UNL     1      27.781  10.658  14.005  1.00  0.00    -0.021 C
HETATM    3  C7  UNL     1      27.662  11.149  15.382  1.00  0.00     0.049 C
HETATM    4  C8  UNL     1      28.408  12.347  15.751  1.00  0.00     0.078 C
HETATM    5  S1  UNL     1      28.324  13.529  14.353  1.00  0.00    -0.162 SA
HETATM    6  C9  UNL     1      28.980  12.570  12.958  1.00  0.00     0.138 C
ENDROOT
BRANCH   2   7
HETATM    7  C4  UNL     1      27.176   9.292  13.794  1.00  0.00     0.148 C
HETATM    8  C5  UNL     1      26.282   8.996  14.981  1.00  0.00     0.044 C
BRANCH   7   9
HETATM    9  O2  UNL     1      28.114   8.296  13.696  1.00  0.00    -0.387 OA
HETATM   10  C6  UNL     1      27.580   7.164  13.045  1.00  0.00     0.202 C
ENDBRANCH   7   9
ENDBRANCH   2   7
BRANCH   1  11
HETATM   11  O1  UNL     1      28.342  10.585  11.731  1.00  0.00    -0.359 OA
HETATM   12  C1  UNL     1      29.500  10.715  10.914  1.00  0.00     0.209 C
ENDBRANCH   1  11
TORSDOF 3
ENDMDL