MODEL 1
REMARK VINA RESULT: -8.486625911      0.000      0.000
REMARK  7 active torsions:
REMARK  status: ('A' for Active; 'I' for Inactive)
REMARK    1  A    between atoms: C2_2  and  O1_3
REMARK    2  A    between atoms: C2_2  and  C3_5
REMARK    3  A    between atoms: N1_10  and  C6_11
REMARK    4  A    between atoms: C7_12  and  N2_13
REMARK    5  A    between atoms: N2_13  and  C8_15
REMARK    6  A    between atoms: C13_20  and  N3_21
REMARK    7  A    between atoms: N4_26  and  C15_27
ROOT
HETATM    1  C6  UNL     1       1.885  34.575  24.842  1.00  0.00     0.095 A
HETATM    2  C7  UNL     1       3.046  33.846  24.997  1.00  0.00     0.073 A
HETATM    3  C14 UNL     1       4.224  34.480  25.371  1.00  0.00     0.126 A
HETATM    4  N4  UNL     1       4.275  35.822  25.595  1.00  0.00    -0.316 N
HETATM    5  C18 UNL     1       3.141  36.521  25.443  1.00  0.00     0.272 A
HETATM    6  O4  UNL     1       3.151  37.766  25.642  1.00  0.00    -0.266 OA
HETATM    7  C19 UNL     1       1.953  35.924  25.073  1.00  0.00     0.131 A
HETATM    8 CL1  UNL     1       0.529  36.918  24.902  1.00  0.00    -0.076 Cl
ENDROOT
BRANCH   2   9
HETATM    9  N2  UNL     1       3.046  32.442  24.784  1.00  0.00    -0.380 N
ATOM     10  H2  UNL     1       2.158  31.959  24.924  1.00  0.00     0.160 HD
BRANCH   9  11
HETATM   11  C8  UNL     1       4.158  31.637  24.396  1.00  0.00     0.112 C
HETATM   12  C9  UNL     1       5.168  31.656  25.534  1.00  0.00     0.027 C
HETATM   13  C10 UNL     1       6.459  30.971  25.161  1.00  0.00     0.002 C
HETATM   14  C11 UNL     1       6.198  29.660  24.443  1.00  0.00     0.002 C
HETATM   15  C12 UNL     1       4.803  29.237  24.858  1.00  0.00     0.035 C
HETATM   16  C13 UNL     1       3.831  30.187  24.168  1.00  0.00     0.206 C
BRANCH  16  17
HETATM   17  N3  UNL     1       2.513  29.808  24.581  1.00  0.00    -0.073 N
ATOM     18  H33 UNL     1       2.410  29.917  25.589  1.00  0.00     0.274 HD
ATOM     19  H32 UNL     1       1.828  30.494  24.261  1.00  0.00     0.274 HD
ATOM     20  H31 UNL     1       2.237  28.869  24.293  1.00  0.00     0.274 HD
ENDBRANCH  16  17
ENDBRANCH   9  11
ENDBRANCH   2   9
BRANCH   1  21
HETATM   21  N1  UNL     1       0.634  34.028  24.460  1.00  0.00    -0.280 N
HETATM   22  C3  UNL     1      -0.374  33.357  25.232  1.00  0.00     0.148 C
HETATM   23  C4  UNL     1      -1.627  33.495  24.411  1.00  0.00     0.209 C
HETATM   24  O2  UNL     1      -1.097  33.377  23.083  1.00  0.00    -0.301 OA
HETATM   25  C5  UNL     1       0.113  34.063  23.127  1.00  0.00     0.368 C
HETATM   26  O3  UNL     1       0.665  34.629  22.140  1.00  0.00    -0.238 OA
BRANCH  22  27
HETATM   27  C2  UNL     1      -0.126  31.879  25.429  1.00  0.00     0.139 C
HETATM   28  C1  UNL     1      -1.459  31.275  25.892  1.00  0.00     0.041 C
BRANCH  27  29
HETATM   29  O1  UNL     1       0.744  31.701  26.484  1.00  0.00    -0.394 OA
ATOM     30  H1  UNL     1       1.438  32.336  26.349  1.00  0.00     0.210 HD
ENDBRANCH  27  29
ENDBRANCH  22  27
ENDBRANCH   1  21
BRANCH   4  31
HETATM   31  C15 UNL     1       5.514  36.475  25.984  1.00  0.00     0.092 A
HETATM   32  C16 UNL     1       6.469  36.949  24.947  1.00  0.00     0.028 A
HETATM   33  C17 UNL     1       6.818  35.814  25.821  1.00  0.00     0.028 A
ENDBRANCH   4  31
TORSDOF 7
ENDMDL