MODEL 1
REMARK VINA RESULT: -8.165320571      0.000      0.000
REMARK  10 active torsions:
REMARK  status: ('A' for Active; 'I' for Inactive)
REMARK    1  A    between atoms: C2_2  and  O1_5
REMARK    2  A    between atoms: O1_5  and  C5_6
REMARK    3  A    between atoms: C5_6  and  C6_7
REMARK    4  A    between atoms: C5_6  and  N1_9
REMARK    5  A    between atoms: N1_9  and  C7_11
REMARK    6  A    between atoms: N2_13  and  C9_14
REMARK    7  A    between atoms: C9_14  and  C10_15
REMARK    8  A    between atoms: C15_23  and  C16_24
REMARK    9  A    between atoms: C17_25  and  C18_26
REMARK   10  A    between atoms: C21_31  and  N5_32
ROOT
HETATM    1  C7  UNL     1       5.062  32.756  25.781  1.00  0.00     0.084 A
HETATM    2  C8  UNL     1       3.708  32.780  25.924  1.00  0.00     0.142 A
HETATM    3  N2  UNL     1       3.132  32.024  24.928  1.00  0.00    -0.300 N
HETATM    4  N3  UNL     1       4.114  31.559  24.209  1.00  0.00    -0.289 N
ATOM      5  H3  UNL     1       3.985  30.960  23.394  1.00  0.00     0.188 HD
HETATM    6  C15 UNL     1       5.303  31.952  24.656  1.00  0.00     0.130 A
ENDROOT
BRANCH   6   7
HETATM    7  C16 UNL     1       6.604  31.644  24.128  1.00  0.00    -0.038 C
HETATM    8  C17 UNL     1       7.702  31.371  23.693  1.00  0.00    -0.041 C
BRANCH   8   9
HETATM    9  C18 UNL     1       9.003  31.040  23.181  1.00  0.00     0.104 A
HETATM   10  C19 UNL     1       9.632  29.898  23.634  1.00  0.00     0.057 A
HETATM   11  C20 UNL     1      10.877  29.594  23.135  1.00  0.00     0.109 A
HETATM   12  N4  UNL     1      11.486  30.374  22.227  1.00  0.00    -0.202 N
HETATM   13  C21 UNL     1      10.866  31.477  21.796  1.00  0.00     0.676 A
ATOM     14  H4  UNL     1      12.410  30.128  21.871  1.00  0.00     0.183 HD
HETATM   15  N6  UNL     1       9.642  31.791  22.277  1.00  0.00    -0.184 N
ATOM     16  H6  UNL     1       9.186  32.637  21.936  1.00  0.00     0.185 HD
BRANCH  13  17
HETATM   17  N5  UNL     1      11.415  32.243  20.934  1.00  0.00    -0.234 N
ATOM     18  H52 UNL     1      10.939  32.422  20.049  1.00  0.00     0.174 HD
ATOM     19  H51 UNL     1      12.319  32.678  21.120  1.00  0.00     0.174 HD
ENDBRANCH  13  17
ENDBRANCH   8   9
ENDBRANCH   6   7
BRANCH   1  20
HETATM   20  N1  UNL     1       6.039  33.368  26.601  1.00  0.00    -0.358 N
ATOM     21  H1  UNL     1       6.353  32.838  27.414  1.00  0.00     0.162 HD
BRANCH  20  22
HETATM   22  C5  UNL     1       6.633  34.662  26.402  1.00  0.00     0.251 C
BRANCH  22  23
HETATM   23  O1  UNL     1       6.118  35.223  25.274  1.00  0.00    -0.355 OA
BRANCH  23  24
HETATM   24  C2  UNL     1       5.399  36.360  25.400  1.00  0.00     0.052 C
HETATM   25  C1  UNL     1       6.253  37.510  24.854  1.00  0.00     0.045 C
HETATM   26  C3  UNL     1       4.978  36.741  26.777  1.00  0.00     0.045 C
HETATM   27  C4  UNL     1       4.184  36.281  24.499  1.00  0.00     0.045 C
ENDBRANCH  23  24
ENDBRANCH  22  23
BRANCH  22  28
HETATM   28  C6  UNL     1       8.131  34.575  26.304  1.00  0.00     0.275 C
HETATM   29  F1  UNL     1       8.568  34.282  25.043  1.00  0.00    -0.251 F
ENDBRANCH  22  28
ENDBRANCH  20  22
ENDBRANCH   1  20
BRANCH   3  30
HETATM   30  C9  UNL     1       1.734  31.784  24.735  1.00  0.00     0.153 C
BRANCH  30  31
HETATM   31  C10 UNL     1       0.937  32.918  25.300  1.00  0.00     0.009 C
HETATM   32  C11 UNL     1      -0.440  32.357  25.638  1.00  0.00     0.032 C
HETATM   33  C12 UNL     1      -1.393  32.764  24.543  1.00  0.00     0.168 C
HETATM   34  O2  UNL     1      -0.801  32.618  23.307  1.00  0.00    -0.391 OA
HETATM   35  C13 UNL     1       0.056  33.706  23.113  1.00  0.00     0.168 C
HETATM   36  C14 UNL     1       0.835  34.075  24.354  1.00  0.00     0.032 C
ENDBRANCH  30  31
ENDBRANCH   3  30
TORSDOF 10
ENDMDL