MODEL 3
REMARK VINA RESULT: -7.888055021      1.683      2.564
REMARK  7 active torsions:
REMARK  status: ('A' for Active; 'I' for Inactive)
REMARK    1  A    between atoms: C2_2  and  C5_5
REMARK    2  A    between atoms: C5_5  and  C6_6
REMARK    3  A    between atoms: C6_6  and  N1_7
REMARK    4  A    between atoms: N1_7  and  C7_9
REMARK    5  A    between atoms: C9_15  and  O1_16
REMARK    6  A    between atoms: O1_16  and  C10_17
REMARK    7  A    between atoms: C21_33  and  O3_35
ROOT
HETATM    1  C7  UNL     1       6.901  34.505  25.620  1.00  0.00     0.144 A
HETATM    2  N2  UNL     1       7.732  35.535  25.413  1.00  0.00    -0.324 N
ATOM      3  H2  UNL     1       8.654  35.449  24.985  1.00  0.00     0.169 HD
HETATM    4  C8  UNL     1       7.203  36.696  25.837  1.00  0.00     0.139 A
HETATM    5  N3  UNL     1       7.594  37.978  25.868  1.00  0.00    -0.319 N
ATOM      6  H3  UNL     1       8.511  38.226  25.497  1.00  0.00     0.169 HD
HETATM    7  C9  UNL     1       6.816  38.942  26.372  1.00  0.00     0.182 A
HETATM    8  C15 UNL     1       5.585  38.600  26.870  1.00  0.00     0.166 A
HETATM    9  C16 UNL     1       4.694  39.588  27.429  1.00  0.00     0.122 C
HETATM   10  N4  UNL     1       3.999  40.387  27.883  1.00  0.00    -0.190 NA
HETATM   11  N5  UNL     1       5.152  37.329  26.860  1.00  0.00    -0.339 N
ATOM     12  H5  UNL     1       4.235  37.086  27.233  1.00  0.00     0.167 HD
HETATM   13  C17 UNL     1       5.960  36.383  26.344  1.00  0.00     0.121 A
HETATM   14  C18 UNL     1       5.769  35.025  26.213  1.00  0.00     0.190 A
HETATM   15  F1  UNL     1       4.708  34.288  26.570  1.00  0.00    -0.200 F
ENDROOT
BRANCH   7  16
HETATM   16  O1  UNL     1       7.180  40.276  26.423  1.00  0.00    -0.328 OA
BRANCH  16  17
HETATM   17  C10 UNL     1       8.484  40.757  26.511  1.00  0.00     0.134 C
HETATM   18  C11 UNL     1       8.986  40.843  27.936  1.00  0.00     0.059 C
HETATM   19  C12 UNL     1       8.186  41.847  28.715  1.00  0.00     0.170 C
HETATM   20  O2  UNL     1       7.475  42.726  27.931  1.00  0.00    -0.391 OA
HETATM   21  C13 UNL     1       8.196  43.228  26.864  1.00  0.00     0.170 C
HETATM   22  C14 UNL     1       8.635  42.147  25.913  1.00  0.00     0.059 C
ENDBRANCH  16  17
ENDBRANCH   7  16
BRANCH   1  23
HETATM   23  N1  UNL     1       7.180  33.149  25.277  1.00  0.00    -0.373 N
ATOM     24  H1  UNL     1       8.044  32.696  25.573  1.00  0.00     0.161 HD
BRANCH  23  25
HETATM   25  C6  UNL     1       6.216  32.454  24.513  1.00  0.00     0.134 C
BRANCH  25  26
HETATM   26  C5  UNL     1       6.453  30.989  24.238  1.00  0.00     0.013 A
HETATM   27  C19 UNL     1       7.507  30.528  25.264  1.00  0.00     0.018 A
HETATM   28  C20 UNL     1       8.523  30.281  24.194  1.00  0.00     0.039 A
HETATM   29  C21 UNL     1       7.480  30.796  23.194  1.00  0.00     0.064 A
HETATM   30  C22 UNL     1       7.346  29.811  22.104  1.00  0.00     0.047 C
BRANCH  26  31
HETATM   31  C2  UNL     1       5.264  30.151  24.319  1.00  0.00    -0.039 C
HETATM   32  C1  UNL     1       4.340  30.802  25.375  1.00  0.00     0.015 C
HETATM   33  C3  UNL     1       4.401  29.937  23.135  1.00  0.00     0.015 C
HETATM   34  C4  UNL     1       5.519  28.749  24.895  1.00  0.00     0.015 C
ENDBRANCH  26  31
BRANCH  29  35
HETATM   35  O3  UNL     1       7.956  32.024  22.671  1.00  0.00    -0.389 OA
ATOM     36  H3  UNL     1       8.874  32.170  22.869  1.00  0.00     0.210 HD
ENDBRANCH  29  35
ENDBRANCH  25  26
ENDBRANCH  23  25
ENDBRANCH   1  23
TORSDOF 7
ENDMDL