MODEL 3
REMARK VINA RESULT: -8.831762114      5.728      8.637
REMARK  7 active torsions:
REMARK  status: ('A' for Active; 'I' for Inactive)
REMARK    1  A    between atoms: C2_2  and  C3_3
REMARK    2  A    between atoms: C3_3  and  C4_4
REMARK    3  A    between atoms: C7_7  and  C8_8
REMARK    4  A    between atoms: C8_8  and  N1_9
REMARK    5  A    between atoms: N5_23  and  C14_24
REMARK    6  A    between atoms: C16_27  and  O1_28
REMARK    7  A    between atoms: C17_30  and  O2_31
ROOT
HETATM    1  N1  UNL     1       3.420  32.500  24.928  1.00  0.00    -0.374 N
ATOM      2  H1  UNL     1       4.417  32.642  25.092  1.00  0.00     0.161 HD
HETATM    3  C9  UNL     1       2.613  33.495  24.835  1.00  0.00     0.134 A
HETATM    4  N2  UNL     1       1.296  33.363  24.620  1.00  0.00    -0.317 N
ATOM      5  H2  UNL     1       0.925  32.418  24.528  1.00  0.00     0.170 HD
HETATM    6  C10 UNL     1       0.437  34.374  24.520  1.00  0.00     0.182 A
HETATM    7 CL1  UNL     1      -1.278  34.074  24.237  1.00  0.00    -0.045 Cl
HETATM    8  N3  UNL     1       0.928  35.624  24.643  1.00  0.00    -0.317 N
ATOM      9  H3  UNL     1       0.295  36.420  24.571  1.00  0.00     0.170 HD
HETATM   10  C11 UNL     1       2.231  35.840  24.859  1.00  0.00     0.142 A
HETATM   11  C12 UNL     1       3.113  34.777  24.960  1.00  0.00     0.122 A
HETATM   12  N4  UNL     1       4.312  35.334  25.170  1.00  0.00    -0.346 N
ATOM     13  H4  UNL     1       5.178  34.808  25.289  1.00  0.00     0.167 HD
HETATM   14  C13 UNL     1       4.229  36.675  25.206  1.00  0.00     0.186 A
HETATM   15  N5  UNL     1       2.940  36.985  25.012  1.00  0.00    -0.310 N
ENDROOT
BRANCH   1  16
HETATM   16  C8  UNL     1       2.867  31.175  24.791  1.00  0.00     0.126 C
BRANCH  16  17
HETATM   17  C7  UNL     1       3.888  30.086  24.919  1.00  0.00     0.003 C
HETATM   18  C6  UNL     1       4.121  29.348  23.641  1.00  0.00     0.006 C
HETATM   19  C5  UNL     1       5.516  28.771  23.529  1.00  0.00     0.005 C
HETATM   20  C4  UNL     1       6.586  29.800  23.677  1.00  0.00    -0.014 C
HETATM   21  C19 UNL     1       5.978  31.082  24.169  1.00  0.00     0.005 C
HETATM   22  C18 UNL     1       5.172  30.726  25.426  1.00  0.00     0.006 C
BRANCH  20  23
HETATM   23  C3  UNL     1       7.413  30.001  22.431  1.00  0.00     0.004 C
BRANCH  23  24
HETATM   24  C2  UNL     1       7.626  31.442  22.091  1.00  0.00    -0.004 C
HETATM   25  C1  UNL     1       9.048  31.802  22.480  1.00  0.00     0.005 C
ENDBRANCH  23  24
ENDBRANCH  20  23
ENDBRANCH  16  17
ENDBRANCH   1  16
BRANCH  15  26
HETATM   26  C14 UNL     1       2.421  38.319  24.977  1.00  0.00     0.185 C
HETATM   27  S1  UNL     1       3.669  39.498  24.323  1.00  0.00    -0.138 SA
HETATM   28  C15 UNL     1       3.456  40.833  25.566  1.00  0.00     0.110 C
HETATM   29  C16 UNL     1       2.179  40.378  26.241  1.00  0.00     0.159 C
HETATM   30  C17 UNL     1       2.275  38.880  26.397  1.00  0.00     0.180 C
BRANCH  29  31
HETATM   31  O1  UNL     1       1.067  40.689  25.497  1.00  0.00    -0.392 OA
ATOM     32  H1  UNL     1       0.348  40.987  26.041  1.00  0.00     0.210 HD
ENDBRANCH  29  31
BRANCH  30  33
HETATM   33  O2  UNL     1       1.102  38.433  26.959  1.00  0.00    -0.390 OA
ATOM     34  H2  UNL     1       1.201  38.363  27.901  1.00  0.00     0.210 HD
ENDBRANCH  30  33
ENDBRANCH  15  26
TORSDOF 7
ENDMDL