MODEL 2
REMARK VINA RESULT: -8.024859348      2.182      3.536
REMARK  10 active torsions:
REMARK  status: ('A' for Active; 'I' for Inactive)
REMARK    1  A    between atoms: C2_2  and  C3_3
REMARK    2  A    between atoms: C4_4  and  C5_5
REMARK    3  A    between atoms: C6_8  and  N2_9
REMARK    4  A    between atoms: C7_13  and  S2_14
REMARK    5  A    between atoms: S2_14  and  C8_15
REMARK    6  A    between atoms: C8_15  and  C9_16
REMARK       I    between atoms: C9_16  and  N3_18
REMARK    7  A    between atoms: N3_18  and  C10_20
REMARK    8  A    between atoms: C13_25  and  C14_26
REMARK    9  A    between atoms: C14_26  and  O3_28
REMARK   10  A    between atoms: O3_28  and  C15_29
ROOT
HETATM    1  C9  UNL     1       4.516  34.188  26.106  1.00  0.00     0.233 C
HETATM    2  O1  UNL     1       4.076  33.216  26.809  1.00  0.00    -0.272 OA
HETATM    3  N3  UNL     1       5.899  34.418  26.146  1.00  0.00    -0.306 N
ATOM      4  H3  UNL     1       6.288  35.107  26.790  1.00  0.00     0.171 HD
ENDROOT
BRANCH   1   5
HETATM    5  C8  UNL     1       3.557  34.976  25.325  1.00  0.00     0.183 C
BRANCH   5   6
HETATM    6  S2  UNL     1       2.865  34.018  23.976  1.00  0.00    -0.110 SA
BRANCH   6   7
HETATM    7  C7  UNL     1       1.413  33.123  24.583  1.00  0.00     0.080 A
HETATM    8  C5  UNL     1       1.319  31.818  24.998  1.00  0.00     0.112 A
HETATM    9  N1  UNL     1       0.154  31.394  25.396  1.00  0.00    -0.328 N
HETATM   10  C6  UNL     1      -0.878  32.239  25.379  1.00  0.00     0.144 A
ATOM     11  H1  UNL     1       0.033  30.433  25.715  1.00  0.00     0.168 HD
HETATM   12  S1  UNL     1      -0.186  33.681  24.784  1.00  0.00    -0.044 SA
BRANCH   8  13
HETATM   13  C4  UNL     1       2.519  30.963  24.979  1.00  0.00    -0.047 C
HETATM   14  C3  UNL     1       3.502  30.243  24.948  1.00  0.00    -0.100 C
BRANCH  14  15
HETATM   15  C2  UNL     1       4.660  29.363  24.913  1.00  0.00     0.090 C
HETATM   16  C1  UNL     1       4.833  28.732  23.530  1.00  0.00     0.018 C
ENDBRANCH  14  15
ENDBRANCH   8  13
BRANCH  10  17
HETATM   17  N2  UNL     1      -2.125  32.009  25.738  1.00  0.00    -0.380 N
ATOM     18  H22 UNL     1      -2.770  31.300  25.388  1.00  0.00     0.158 HD
ATOM     19  H21 UNL     1      -2.682  32.503  26.436  1.00  0.00     0.158 HD
ENDBRANCH  10  17
ENDBRANCH   6   7
ENDBRANCH   5   6
ENDBRANCH   1   5
BRANCH   3  20
HETATM   20  C10 UNL     1       6.687  33.735  25.345  1.00  0.00     0.152 A
HETATM   21  N4  UNL     1       6.360  32.760  24.494  1.00  0.00    -0.339 N
HETATM   22  C11 UNL     1       7.303  32.210  23.787  1.00  0.00     0.030 A
ATOM     23  H4  UNL     1       5.392  32.452  24.400  1.00  0.00     0.168 HD
HETATM   24  C12 UNL     1       7.042  31.093  22.790  1.00  0.00     0.070 C
HETATM   25  C13 UNL     1       8.581  32.668  23.958  1.00  0.00     0.105 A
HETATM   26  S3  UNL     1       8.372  33.881  25.140  1.00  0.00    -0.046 SA
BRANCH  25  27
HETATM   27  C14 UNL     1       9.812  32.213  23.279  1.00  0.00     0.302 C
HETATM   28  O2  UNL     1       9.968  32.447  22.060  1.00  0.00    -0.259 OA
BRANCH  27  29
HETATM   29  O3  UNL     1      10.801  31.535  23.959  1.00  0.00    -0.317 OA
BRANCH  29  30
HETATM   30  C15 UNL     1      11.603  30.532  23.314  1.00  0.00     0.174 C
HETATM   31  C16 UNL     1      10.788  29.332  22.961  1.00  0.00     0.034 C
ENDBRANCH  29  30
ENDBRANCH  27  29
ENDBRANCH  25  27
ENDBRANCH   3  20
TORSDOF 10
ENDMDL