MODEL 1
REMARK VINA RESULT: -8.447827240      0.000      0.000
REMARK  6 active torsions:
REMARK  status: ('A' for Active; 'I' for Inactive)
REMARK    1  A    between atoms: C2_2  and  C3_3
REMARK    2  A    between atoms: C3_3  and  C5_6
REMARK       I    between atoms: C5_6  and  N2_8
REMARK    3  A    between atoms: N2_8  and  C6_9
REMARK    4  A    between atoms: C7_10  and  C8_11
REMARK    5  A    between atoms: C8_11  and  N3_12
REMARK    6  A    between atoms: C14_22  and  N5_23
ROOT
HETATM    1  C3  UNL     1       3.713  36.921  24.157  1.00  0.00     0.199 C
HETATM    2  C4  UNL     1       2.729  36.935  23.082  1.00  0.00     0.074 C
HETATM    3  N1  UNL     1       1.934  36.942  22.248  1.00  0.00    -0.196 NA
ENDROOT
BRANCH   1   4
HETATM    4  C2  UNL     1       4.025  38.314  24.558  1.00  0.00     0.025 C
HETATM    5  C1  UNL     1       5.415  38.489  25.140  1.00  0.00     0.007 C
ENDBRANCH   1   4
BRANCH   1   6
HETATM    6  C5  UNL     1       3.145  36.100  25.292  1.00  0.00     0.309 C
HETATM    7  O1  UNL     1       2.497  36.743  26.118  1.00  0.00    -0.256 OA
HETATM    8  N2  UNL     1       3.380  34.715  25.333  1.00  0.00    -0.367 NA
BRANCH   8   9
HETATM    9  C6  UNL     1       3.598  33.410  25.375  1.00  0.00     0.140 A
HETATM   10  C7  UNL     1       2.470  32.549  25.454  1.00  0.00     0.054 A
HETATM   11  S1  UNL     1       3.124  30.996  25.355  1.00  0.00    -0.071 SA
HETATM   12  C13 UNL     1       4.770  31.393  25.223  1.00  0.00     0.091 A
HETATM   13  N4  UNL     1       5.866  30.610  25.122  1.00  0.00    -0.335 N
HETATM   14  C18 UNL     1       4.785  32.737  25.259  1.00  0.00     0.063 A
HETATM   15  C14 UNL     1       7.118  31.144  25.047  1.00  0.00     0.122 A
ATOM     16  H4  UNL     1       5.754  29.596  25.101  1.00  0.00     0.168 HD
HETATM   17  C15 UNL     1       7.186  32.492  25.081  1.00  0.00     0.110 A
HETATM   18  C16 UNL     1       8.506  33.100  25.000  1.00  0.00     0.105 C
HETATM   19  C17 UNL     1       6.061  33.317  25.185  1.00  0.00     0.074 A
HETATM   20  N6  UNL     1       9.557  33.590  24.916  1.00  0.00    -0.191 NA
HETATM   21 CL1  UNL     1       6.340  35.018  25.280  1.00  0.00    -0.081 Cl
BRANCH  10  22
HETATM   22  C8  UNL     1       1.039  32.944  25.591  1.00  0.00     0.322 C
BRANCH  22  23
HETATM   23  N3  UNL     1       0.379  32.663  24.313  1.00  0.00     0.097 N
HETATM   24  C9  UNL     1       0.439  33.923  23.582  1.00  0.00     0.299 C
HETATM   25  C10 UNL     1      -0.422  33.970  22.364  1.00  0.00     0.198 C
HETATM   26  O2  UNL     1      -1.555  33.161  22.465  1.00  0.00    -0.388 OA
HETATM   27  C11 UNL     1      -1.951  33.210  23.799  1.00  0.00     0.198 C
HETATM   28  C12 UNL     1      -0.995  32.266  24.534  1.00  0.00     0.299 C
ENDBRANCH  22  23
ENDBRANCH  10  22
BRANCH  15  29
HETATM   29  N5  UNL     1       8.136  30.332  24.976  1.00  0.00    -0.384 N
ATOM     30  H52 UNL     1       8.083  29.319  24.863  1.00  0.00     0.157 HD
ATOM     31  H51 UNL     1       9.075  30.726  25.014  1.00  0.00     0.157 HD
ENDBRANCH  15  29
ENDBRANCH   8   9
ENDBRANCH   1   6
TORSDOF 6
ENDMDL