MODEL 4
REMARK VINA RESULT: -8.133855512      1.535      1.918
REMARK  6 active torsions:
REMARK  status: ('A' for Active; 'I' for Inactive)
REMARK    1  A    between atoms: N1_6  and  C6_7
REMARK    2  A    between atoms: C8_12  and  S1_13
REMARK    3  A    between atoms: S1_13  and  C9_14
REMARK    4  A    between atoms: C12_17  and  N3_18
REMARK    5  A    between atoms: N3_18  and  C13_21
REMARK    6  A    between atoms: C16_24  and  N4_25
ROOT
HETATM    1  C6  UNL     1       4.460  37.313  27.276  1.00  0.00     0.707 A
HETATM    2  N2  UNL     1       5.460  36.497  27.737  1.00  0.00    -0.178 N
ATOM      3  H2  UNL     1       5.921  36.715  28.620  1.00  0.00     0.185 HD
HETATM    4  C7  UNL     1       5.837  35.416  27.039  1.00  0.00     0.141 A
HETATM    5 CL1  UNL     1       7.158  34.390  27.715  1.00  0.00    -0.062 Cl
HETATM    6  C8  UNL     1       5.264  35.083  25.875  1.00  0.00     0.108 A
HETATM    7  C19 UNL     1       4.222  35.902  25.358  1.00  0.00     0.279 A
HETATM    8  O1  UNL     1       3.670  35.623  24.284  1.00  0.00    -0.266 OA
HETATM    9  N5  UNL     1       3.910  36.958  26.119  1.00  0.00    -0.153 N
ATOM     10  H5  UNL     1       3.164  37.559  25.772  1.00  0.00     0.187 HD
ENDROOT
BRANCH   6  11
HETATM   11  S1  UNL     1       5.733  33.694  24.899  1.00  0.00    -0.116 SA
BRANCH  11  12
HETATM   12  C9  UNL     1       5.129  32.124  25.607  1.00  0.00     0.055 C
HETATM   13  C10 UNL     1       4.995  31.058  24.611  1.00  0.00     0.017 C
HETATM   14  C11 UNL     1       3.708  30.347  24.874  1.00  0.00     0.034 C
HETATM   15  C12 UNL     1       2.846  31.392  25.538  1.00  0.00     0.187 C
HETATM   16  C18 UNL     1       3.783  32.313  26.244  1.00  0.00     0.048 C
BRANCH  15  17
HETATM   17  N3  UNL     1       1.940  30.809  26.517  1.00  0.00    -0.067 N
ATOM     18  H32 UNL     1       2.185  29.853  26.775  1.00  0.00     0.278 HD
ATOM     19  H31 UNL     1       2.032  31.218  27.446  1.00  0.00     0.278 HD
BRANCH  17  20
HETATM   20  C13 UNL     1       0.593  30.931  25.962  1.00  0.00     0.188 C
HETATM   21  C14 UNL     1       0.488  32.072  25.013  1.00  0.00     0.035 C
HETATM   22  C15 UNL     1      -0.957  32.472  25.044  1.00  0.00     0.034 C
HETATM   23  C16 UNL     1      -1.512  31.940  26.320  1.00  0.00     0.185 C
HETATM   24  C17 UNL     1      -0.391  31.278  27.067  1.00  0.00     0.065 C
BRANCH  23  25
HETATM   25  N4  UNL     1      -2.584  30.984  26.099  1.00  0.00    -0.075 N
ATOM     26  H43 UNL     1      -2.499  30.540  25.184  1.00  0.00     0.274 HD
ATOM     27  H42 UNL     1      -2.472  30.161  26.690  1.00  0.00     0.274 HD
ATOM     28  H41 UNL     1      -3.507  31.403  26.220  1.00  0.00     0.274 HD
ENDBRANCH  23  25
ENDBRANCH  17  20
ENDBRANCH  15  17
ENDBRANCH  11  12
ENDBRANCH   6  11
BRANCH   1  29
HETATM   29  N1  UNL     1       4.052  38.470  27.994  1.00  0.00    -0.091 N
HETATM   30  C4  UNL     1       4.428  39.719  27.661  1.00  0.00     0.050 A
HETATM   31  C3  UNL     1       3.828  40.540  28.580  1.00  0.00     0.053 A
HETATM   32  C5  UNL     1       5.301  40.146  26.541  1.00  0.00     0.071 C
HETATM   33  C2  UNL     1       3.094  39.791  29.464  1.00  0.00     0.025 A
HETATM   34  C1  UNL     1       2.269  40.275  30.610  1.00  0.00     0.070 C
HETATM   35  N6  UNL     1       3.260  38.507  29.062  1.00  0.00    -0.284 N
ATOM     36  H6  UNL     1       2.842  37.693  29.511  1.00  0.00     0.188 HD
ENDBRANCH   1  29
TORSDOF 6
ENDMDL