MODEL 4
REMARK VINA RESULT: -8.395842820      3.941      5.654
REMARK  6 active torsions:
REMARK  status: ('A' for Active; 'I' for Inactive)
REMARK    1  A    between atoms: C2_2  and  N1_3
REMARK    2  A    between atoms: N1_3  and  C3_5
REMARK    3  A    between atoms: C3_5  and  C4_7
REMARK    4  A    between atoms: C4_7  and  O1_8
REMARK    5  A    between atoms: N2_13  and  C9_14
REMARK    6  A    between atoms: N7_28  and  C14_29
ROOT
HETATM    1  C9  UNL     1       6.420  35.495  25.787  1.00  0.00     0.150 A
HETATM    2  N3  UNL     1       7.736  35.509  25.801  1.00  0.00    -0.175 N
ATOM      3  H3  UNL     1       8.217  36.393  25.963  1.00  0.00     0.186 HD
HETATM    4  C10 UNL     1       8.478  34.380  25.603  1.00  0.00     0.679 A
HETATM    5  N4  UNL     1       9.764  34.407  25.619  1.00  0.00    -0.234 N
ATOM      6  H41 UNL     1      10.318  33.564  25.472  1.00  0.00     0.174 HD
ATOM      7  H42 UNL     1      10.244  35.292  25.781  1.00  0.00     0.174 HD
HETATM    8  N5  UNL     1       7.844  33.209  25.389  1.00  0.00    -0.174 N
ATOM      9  H5  UNL     1       8.390  32.360  25.241  1.00  0.00     0.186 HD
HETATM   10  C11 UNL     1       6.509  33.148  25.367  1.00  0.00     0.155 A
HETATM   11  C12 UNL     1       5.756  34.318  25.571  1.00  0.00     0.123 A
HETATM   12  N6  UNL     1       4.481  33.932  25.492  1.00  0.00    -0.346 N
ATOM     13  H6  UNL     1       3.668  34.539  25.594  1.00  0.00     0.167 HD
HETATM   14  C13 UNL     1       4.444  32.608  25.255  1.00  0.00     0.185 A
HETATM   15  N7  UNL     1       5.688  32.101  25.173  1.00  0.00    -0.322 N
ENDROOT
BRANCH   1  16
HETATM   16  N2  UNL     1       5.620  36.686  25.992  1.00  0.00    -0.362 N
HETATM   17  C8  UNL     1       5.077  36.879  27.308  1.00  0.00     0.124 C
HETATM   18  C7  UNL     1       3.832  37.695  27.280  1.00  0.00     0.023 C
HETATM   19  C6  UNL     1       4.117  38.960  26.492  1.00  0.00     0.049 C
HETATM   20  C4  UNL     1       4.324  38.549  25.039  1.00  0.00     0.128 C
HETATM   21  C19 UNL     1       5.445  37.609  24.922  1.00  0.00     0.170 C
BRANCH  20  22
HETATM   22  C3  UNL     1       3.078  37.932  24.514  1.00  0.00     0.110 C
HETATM   23  S1  UNL     1       3.159  36.656  23.539  1.00  0.00    -0.062 SA
BRANCH  22  24
HETATM   24  N1  UNL     1       1.812  38.469  24.852  1.00  0.00    -0.382 N
ATOM     25  H1  UNL     1       1.683  39.481  24.856  1.00  0.00     0.160 HD
BRANCH  24  26
HETATM   26  C2  UNL     1       0.699  37.613  25.193  1.00  0.00     0.116 C
HETATM   27  C1  UNL     1      -0.263  37.433  24.064  1.00  0.00     0.026 C
ENDBRANCH  24  26
ENDBRANCH  22  24
ENDBRANCH  20  22
BRANCH  20  28
HETATM   28  O1  UNL     1       4.470  39.708  24.260  1.00  0.00    -0.376 OA
HETATM   29  C5  UNL     1       4.494  40.883  24.932  1.00  0.00     0.203 C
ENDBRANCH  20  28
ENDBRANCH   1  16
BRANCH  15  30
HETATM   30  C14 UNL     1       6.001  30.723  24.929  1.00  0.00     0.092 C
HETATM   31  C15 UNL     1       6.448  30.424  23.527  1.00  0.00     0.026 C
HETATM   32  C16 UNL     1       5.911  29.057  23.160  1.00  0.00     0.002 C
HETATM   33  C17 UNL     1       4.966  28.643  24.267  1.00  0.00     0.002 C
HETATM   34  C18 UNL     1       4.737  29.905  25.072  1.00  0.00     0.026 C
ENDBRANCH  15  30
TORSDOF 6
ENDMDL