MODEL 1
REMARK VINA RESULT: -8.745093530      0.000      0.000
REMARK  7 active torsions:
REMARK  status: ('A' for Active; 'I' for Inactive)
REMARK    1  A    between atoms: C3_5  and  S1_6
REMARK    2  A    between atoms: S1_6  and  C4_7
REMARK    3  A    between atoms: C5_8  and  C6_9
REMARK    4  A    between atoms: C6_9  and  O1_10
REMARK    5  A    between atoms: C9_14  and  O2_15
REMARK    6  A    between atoms: C11_21  and  S2_22
REMARK    7  A    between atoms: S2_22  and  C12_23
ROOT
HETATM    1  C4  UNL     1       5.223  31.406  24.356  1.00  0.00     0.077 C
HETATM    2  C5  UNL     1       5.914  30.098  24.495  1.00  0.00     0.031 C
HETATM    3  C7  UNL     1       7.399  30.273  24.381  1.00  0.00     0.029 C
HETATM    4  C8  UNL     1       7.917  30.219  22.960  1.00  0.00     0.068 C
HETATM    5  C9  UNL     1       9.100  31.145  23.002  1.00  0.00     0.319 C
HETATM    6  N2  UNL     1       8.716  32.176  23.913  1.00  0.00    -0.043 N
ATOM      7  H21 UNL     1       8.537  33.060  23.437  1.00  0.00     0.280 HD
ATOM      8  H22 UNL     1       9.494  32.478  24.500  1.00  0.00     0.280 HD
HETATM    9  C10 UNL     1       7.595  31.747  24.687  1.00  0.00     0.208 C
HETATM   10  C11 UNL     1       6.328  32.410  24.201  1.00  0.00     0.093 C
ENDROOT
BRANCH   1  11
HETATM   11  S1  UNL     1       4.286  31.863  25.839  1.00  0.00    -0.087 SA
BRANCH  11  12
HETATM   12  C3  UNL     1       2.612  32.337  25.449  1.00  0.00     0.145 A
HETATM   13  N1  UNL     1       2.286  33.226  24.495  1.00  0.00    -0.339 N
HETATM   14  C2  UNL     1       1.005  33.565  24.218  1.00  0.00     0.031 A
ATOM     15  H1  UNL     1       3.034  33.664  23.957  1.00  0.00     0.168 HD
HETATM   16  C1  UNL     1       0.667  34.553  23.156  1.00  0.00     0.070 C
HETATM   17  C18 UNL     1      -0.010  32.988  24.931  1.00  0.00     0.078 A
HETATM   18  C16 UNL     1       0.304  32.074  25.913  1.00  0.00     0.031 A
HETATM   19 CL1  UNL     1      -1.672  33.378  24.626  1.00  0.00    -0.080 Cl
HETATM   20  N3  UNL     1       1.602  31.780  26.138  1.00  0.00    -0.339 N
HETATM   21  C17 UNL     1      -0.773  31.424  26.709  1.00  0.00     0.070 C
ATOM     22  H3  UNL     1       1.827  31.103  26.867  1.00  0.00     0.168 HD
ENDBRANCH  11  12
ENDBRANCH   1  11
BRANCH   2  23
HETATM   23  C6  UNL     1       5.452  29.035  23.523  1.00  0.00     0.170 C
BRANCH  23  24
HETATM   24  O1  UNL     1       4.132  29.385  23.170  1.00  0.00    -0.400 OA
ATOM     25  H1  UNL     1       3.938  28.898  22.378  1.00  0.00     0.209 HD
ENDBRANCH  23  24
ENDBRANCH   2  23
BRANCH  10  26
HETATM   26  S2  UNL     1       5.995  33.824  25.275  1.00  0.00    -0.156 SA
BRANCH  26  27
HETATM   27  C12 UNL     1       7.300  33.950  26.502  1.00  0.00     0.047 C
HETATM   28  C13 UNL     1       8.232  35.109  26.203  1.00  0.00     0.015 C
HETATM   29  C14 UNL     1       8.140  35.455  27.692  1.00  0.00     0.002 C
HETATM   30  C15 UNL     1       6.788  34.774  27.688  1.00  0.00     0.015 C
ENDBRANCH  26  27
ENDBRANCH  10  26
BRANCH   5  31
HETATM   31  O2  UNL     1       9.287  31.760  21.747  1.00  0.00    -0.370 OA
ATOM     32  H2  UNL     1       9.754  32.581  21.848  1.00  0.00     0.212 HD
ENDBRANCH   5  31
TORSDOF 7
ENDMDL