MODEL 3
REMARK VINA RESULT: -8.436678574      4.479      7.115
REMARK  5 active torsions:
REMARK  status: ('A' for Active; 'I' for Inactive)
REMARK    1  A    between atoms: N1_2  and  C2_4
REMARK    2  A    between atoms: C5_7  and  C6_8
REMARK    3  A    between atoms: C8_14  and  N4_15
REMARK    4  A    between atoms: C18_31  and  N8_32
REMARK    5  A    between atoms: C19_34  and  C20_35
ROOT
HETATM    1  C6  UNL     1       2.710  32.731  24.802  1.00  0.00     0.044 A
HETATM    2  N2  UNL     1       4.006  32.830  24.499  1.00  0.00    -0.342 N
ATOM      3  H2  UNL     1       4.388  33.741  24.248  1.00  0.00     0.167 HD
HETATM    4  C7  UNL     1       4.825  31.759  24.515  1.00  0.00     0.135 A
HETATM    5  N3  UNL     1       6.116  31.906  24.169  1.00  0.00    -0.176 N
ATOM      6  H3  UNL     1       6.473  32.827  23.914  1.00  0.00     0.186 HD
HETATM    7  C8  UNL     1       6.936  30.841  24.159  1.00  0.00     0.681 A
HETATM    8  N6  UNL     1       6.494  29.630  24.491  1.00  0.00    -0.201 N
ATOM      9  H6  UNL     1       7.140  28.841  24.477  1.00  0.00     0.183 HD
HETATM   10  C15 UNL     1       5.215  29.429  24.842  1.00  0.00     0.123 A
HETATM   11  C16 UNL     1       4.351  30.503  24.856  1.00  0.00     0.053 A
HETATM   12  C17 UNL     1       3.022  30.359  25.169  1.00  0.00     0.070 A
HETATM   13  N7  UNL     1       2.576  29.219  25.540  1.00  0.00    -0.396 N
ATOM     14  H71 UNL     1       1.589  29.113  25.772  1.00  0.00     0.156 HD
ATOM     15  H72 UNL     1       3.170  28.390  25.563  1.00  0.00     0.156 HD
HETATM   16  C18 UNL     1       2.207  31.497  25.137  1.00  0.00     0.082 A
ENDROOT
BRANCH   1  17
HETATM   17  C5  UNL     1       1.777  33.900  24.766  1.00  0.00     0.038 C
HETATM   18  C4  UNL     1       2.621  35.038  24.143  1.00  0.00     0.013 C
HETATM   19  C3  UNL     1       1.908  36.256  23.829  1.00  0.00     0.025 C
HETATM   20  C2  UNL     1       0.454  36.174  23.514  1.00  0.00     0.076 C
HETATM   21  C22 UNL     1      -0.238  34.944  23.927  1.00  0.00     0.025 C
HETATM   22  C21 UNL     1       0.618  33.715  23.770  1.00  0.00     0.013 C
BRANCH  20  23
HETATM   23  N1  UNL     1       0.197  36.527  22.163  1.00  0.00    -0.421 N
HETATM   24  C1  UNL     1       1.219  36.315  21.201  1.00  0.00     0.140 C
ATOM     25  H1  UNL     1      -0.703  36.923  21.890  1.00  0.00     0.153 HD
ENDBRANCH  20  23
ENDBRANCH   1  17
BRANCH  16  26
HETATM   26  N8  UNL     1       0.850  31.312  25.460  1.00  0.00    -0.364 N
HETATM   27  C19 UNL     1       0.396  31.602  26.625  1.00  0.00     0.092 C
ATOM     28  H8  UNL     1       0.214  30.941  24.755  1.00  0.00     0.165 HD
BRANCH  27  29
HETATM   29  C20 UNL     1      -1.033  31.403  26.939  1.00  0.00     0.266 C
HETATM   30  F1  UNL     1      -1.760  32.391  26.279  1.00  0.00    -0.250 F
ENDBRANCH  27  29
ENDBRANCH  16  26
BRANCH   7  31
HETATM   31  N4  UNL     1       8.304  30.955  23.692  1.00  0.00    -0.216 N
HETATM   32  C9  UNL     1       8.369  31.931  22.627  1.00  0.00     0.143 C
HETATM   33  C10 UNL     1       9.732  32.296  22.164  1.00  0.00     0.050 C
HETATM   34  C11 UNL     1      10.586  31.113  21.786  1.00  0.00     0.273 C
HETATM   35  N5  UNL     1      11.152  30.436  22.900  1.00  0.00     0.085 N
HETATM   36  C12 UNL     1      11.654  31.328  23.921  1.00  0.00     0.309 C
HETATM   37  C13 UNL     1      10.230  29.474  23.420  1.00  0.00     0.292 C
HETATM   38  C14 UNL     1       9.212  30.089  24.361  1.00  0.00     0.171 C
ENDBRANCH   7  31
TORSDOF 5
ENDMDL