MODEL 3
REMARK VINA RESULT: -8.678679405      2.232      3.402
REMARK  7 active torsions:
REMARK  status: ('A' for Active; 'I' for Inactive)
REMARK    1  A    between atoms: C2_2  and  C4_4
REMARK    2  A    between atoms: C4_4  and  N1_5
REMARK    3  A    between atoms: C4_4  and  N2_9
REMARK    4  A    between atoms: N2_9  and  C5_11
REMARK    5  A    between atoms: C8_14  and  N3_15
REMARK       I    between atoms: N4_18  and  C11_19
REMARK    6  A    between atoms: C11_19  and  C12_21
REMARK    7  A    between atoms: C12_21  and  C13_22
ROOT
HETATM    1  C5  UNL     1       0.713  35.233  24.231  1.00  0.00     0.105 A
HETATM    2  C6  UNL     1       1.920  34.542  24.320  1.00  0.00     0.067 A
HETATM    3  C7  UNL     1       2.809  35.334  25.013  1.00  0.00     0.056 A
HETATM    4  C8  UNL     1       4.100  35.221  25.400  1.00  0.00     0.118 A
HETATM    5  N5  UNL     1       4.682  36.255  26.084  1.00  0.00    -0.338 N
ATOM      6  H5  UNL     1       5.657  36.155  26.367  1.00  0.00     0.168 HD
HETATM    7  C19 UNL     1       4.052  37.385  26.403  1.00  0.00     0.183 A
HETATM    8  N6  UNL     1       2.773  37.516  26.034  1.00  0.00    -0.338 N
ATOM      9  H6  UNL     1       2.261  38.367  26.265  1.00  0.00     0.168 HD
HETATM   10  C20 UNL     1       2.150  36.510  25.346  1.00  0.00     0.121 A
HETATM   11  N7  UNL     1       0.907  36.403  24.861  1.00  0.00    -0.328 N
ATOM     12  H7  UNL     1       0.193  37.124  24.959  1.00  0.00     0.169 HD
ENDROOT
BRANCH   4  13
HETATM   13  N3  UNL     1       4.855  34.047  25.169  1.00  0.00    -0.363 N
HETATM   14  C9  UNL     1       6.190  34.289  24.595  1.00  0.00     0.144 C
HETATM   15  C10 UNL     1       7.130  33.135  24.801  1.00  0.00     0.145 C
HETATM   16  N4  UNL     1       6.514  31.859  24.451  1.00  0.00    -0.349 N
HETATM   17  C11 UNL     1       7.349  30.738  24.279  1.00  0.00     0.220 C
HETATM   18  C17 UNL     1       5.050  31.800  24.321  1.00  0.00     0.145 C
HETATM   19  O1  UNL     1       6.838  29.647  23.918  1.00  0.00    -0.273 OA
HETATM   20  C18 UNL     1       4.529  32.696  25.459  1.00  0.00     0.144 C
BRANCH  17  21
HETATM   21  C12 UNL     1       8.794  30.821  24.514  1.00  0.00     0.109 C
BRANCH  21  22
HETATM   22  C13 UNL     1       9.634  30.861  23.265  1.00  0.00     0.020 C
HETATM   23  C14 UNL     1      10.861  29.991  23.396  1.00  0.00     0.033 C
HETATM   24  C15 UNL     1      11.954  30.932  22.853  1.00  0.00     0.168 C
HETATM   25  O2  UNL     1      11.541  32.119  23.492  1.00  0.00    -0.391 OA
HETATM   26  C16 UNL     1      10.219  32.256  23.151  1.00  0.00     0.172 C
ENDBRANCH  21  22
ENDBRANCH  17  21
ENDBRANCH   4  13
BRANCH   1  27
HETATM   27  N2  UNL     1      -0.481  34.774  23.606  1.00  0.00    -0.349 N
ATOM     28  H2  UNL     1      -0.818  35.202  22.743  1.00  0.00     0.163 HD
BRANCH  27  29
HETATM   29  C4  UNL     1      -1.200  33.690  24.221  1.00  0.00     0.286 C
BRANCH  29  30
HETATM   30  C2  UNL     1      -0.384  32.759  25.042  1.00  0.00     0.027 C
HETATM   31  C1  UNL     1       0.184  31.677  24.159  1.00  0.00     0.013 C
HETATM   32  C3  UNL     1      -1.307  32.197  26.121  1.00  0.00     0.013 C
ENDBRANCH  29  30
BRANCH  29  33
HETATM   33  N1  UNL     1      -1.792  32.904  23.122  1.00  0.00    -0.058 N
ATOM     34  H13 UNL     1      -2.054  31.959  23.404  1.00  0.00     0.276 HD
ATOM     35  H12 UNL     1      -2.724  33.226  22.858  1.00  0.00     0.276 HD
ATOM     36  H11 UNL     1      -1.130  32.919  22.346  1.00  0.00     0.276 HD
ENDBRANCH  29  33
ENDBRANCH  27  29
ENDBRANCH   1  27
TORSDOF 7
ENDMDL