MODEL 4
REMARK VINA RESULT: -6.358207158      2.082      4.690
REMARK  11 active torsions:
REMARK  status: ('A' for Active; 'I' for Inactive)
REMARK    1  A    between atoms: O1_2  and  C2_3
REMARK    2  A    between atoms: C6_7  and  O2_8
REMARK    3  A    between atoms: C7_10  and  C8_11
REMARK    4  A    between atoms: C9_12  and  C11_14
REMARK    5  A    between atoms: C11_14  and  O3_15
REMARK    6  A    between atoms: C13_18  and  C14_19
REMARK    7  A    between atoms: C17_22  and  O4_23
REMARK    8  A    between atoms: O4_23  and  C18_24
REMARK    9  A    between atoms: C21_29  and  O6_30
REMARK   10  A    between atoms: C21_29  and  C22_32
REMARK   11  A    between atoms: C22_32  and  O7_33
ROOT
HETATM    1  C2  UNL     1       3.024  36.201  24.021  1.00  0.00     0.133 C
HETATM    2  C3  UNL     1       2.345  34.924  24.350  1.00  0.00    -0.015 C
HETATM    3  C4  UNL     1       1.029  35.102  24.460  1.00  0.00    -0.045 C
HETATM    4  C5  UNL     1       0.025  34.056  24.780  1.00  0.00     0.047 C
HETATM    5  C6  UNL     1       0.663  36.495  24.219  1.00  0.00     0.158 C
HETATM    6  C7  UNL     1       2.009  37.220  24.369  1.00  0.00     0.084 C
HETATM    7  C12 UNL     1       2.866  33.572  24.541  1.00  0.00     0.016 C
HETATM    8  C13 UNL     1       4.024  33.116  24.978  1.00  0.00    -0.044 C
HETATM    9  C17 UNL     1       5.145  33.978  25.426  1.00  0.00     0.198 C
HETATM   10  C20 UNL     1       5.221  35.114  24.432  1.00  0.00     0.243 C
HETATM   11  F1  UNL     1       6.539  35.467  24.335  1.00  0.00    -0.243 F
HETATM   12  C21 UNL     1       4.309  36.282  24.843  1.00  0.00     0.148 C
ENDROOT
BRANCH   6  13
HETATM   13  C8  UNL     1       1.978  37.738  25.738  1.00  0.00    -0.011 C
HETATM   14  C9  UNL     1       2.216  39.023  25.955  1.00  0.00    -0.064 C
HETATM   15  C10 UNL     1       2.514  39.945  24.824  1.00  0.00     0.045 C
BRANCH  14  16
HETATM   16  C11 UNL     1       2.202  39.615  27.320  1.00  0.00     0.197 C
BRANCH  16  17
HETATM   17  O3  UNL     1       3.117  38.962  28.140  1.00  0.00    -0.397 OA
ATOM     18  H3  UNL     1       3.050  39.284  29.032  1.00  0.00     0.209 HD
ENDBRANCH  16  17
ENDBRANCH  14  16
ENDBRANCH   6  13
BRANCH   1  19
HETATM   19  O1  UNL     1       3.463  36.118  22.770  1.00  0.00    -0.376 OA
HETATM   20  C1  UNL     1       2.901  36.436  21.639  1.00  0.00     0.203 C
ENDBRANCH   1  19
BRANCH   5  21
HETATM   21  O2  UNL     1       0.004  36.768  23.057  1.00  0.00    -0.390 OA
ATOM     22  H2  UNL     1      -0.245  36.027  22.518  1.00  0.00     0.210 HD
ENDBRANCH   5  21
BRANCH  12  23
HETATM   23  O6  UNL     1       4.116  36.125  26.193  1.00  0.00    -0.381 OA
ATOM     24  H6  UNL     1       3.389  36.629  26.539  1.00  0.00     0.211 HD
ENDBRANCH  12  23
BRANCH  12  25
HETATM   25  C22 UNL     1       5.132  37.507  24.487  1.00  0.00     0.208 C
BRANCH  25  26
HETATM   26  O7  UNL     1       5.578  38.130  25.625  1.00  0.00    -0.398 OA
ATOM     27  H7  UNL     1       6.397  38.581  25.455  1.00  0.00     0.209 HD
ENDBRANCH  25  26
ENDBRANCH  12  25
BRANCH   8  28
HETATM   28  C14 UNL     1       4.207  31.646  25.038  1.00  0.00     0.009 C
HETATM   29  C15 UNL     1       4.804  31.197  23.717  1.00  0.00     0.014 C
HETATM   30  C16 UNL     1       2.934  30.877  25.255  1.00  0.00     0.014 C
ENDBRANCH   8  28
BRANCH   9  31
HETATM   31  O4  UNL     1       6.370  33.280  25.513  1.00  0.00    -0.309 OA
BRANCH  31  32
HETATM   32  C18 UNL     1       7.504  33.819  26.157  1.00  0.00     0.255 C
HETATM   33  C19 UNL     1       7.372  34.671  27.368  1.00  0.00     0.126 C
HETATM   34  O5  UNL     1       8.613  33.530  25.639  1.00  0.00    -0.266 OA
ENDBRANCH  31  32
ENDBRANCH   9  31
TORSDOF 11
ENDMDL