MODEL 3
REMARK VINA RESULT: -7.991760297      3.295      7.843
REMARK  7 active torsions:
REMARK  status: ('A' for Active; 'I' for Inactive)
REMARK    1  A    between atoms: N1_6  and  C6_7
REMARK    2  A    between atoms: C7_10  and  N3_11
REMARK    3  A    between atoms: C8_14  and  C9_15
REMARK    4  A    between atoms: C9_15  and  C10_16
REMARK       I    between atoms: C10_16  and  N4_18
REMARK    5  A    between atoms: N4_18  and  C11_20
REMARK    6  A    between atoms: C11_20  and  C12_21
REMARK    7  A    between atoms: C16_26  and  N5_27
ROOT
HETATM    1  C6  UNL     1       6.935  32.407  24.455  1.00  0.00     0.683 A
HETATM    2  N2  UNL     1       7.394  33.595  24.946  1.00  0.00    -0.176 N
ATOM      3  H2  UNL     1       8.387  33.810  24.853  1.00  0.00     0.186 HD
HETATM    4  C7  UNL     1       6.596  34.496  25.547  1.00  0.00     0.125 A
HETATM    5  C8  UNL     1       5.263  34.176  25.656  1.00  0.00     0.041 A
HETATM    6  C16 UNL     1       4.750  32.978  25.169  1.00  0.00     0.152 A
HETATM    7  N7  UNL     1       5.607  32.137  24.587  1.00  0.00    -0.174 N
ATOM      8  H7  UNL     1       5.250  31.252  24.224  1.00  0.00     0.186 HD
ENDROOT
BRANCH   5   9
HETATM    9  C9  UNL     1       4.356  35.137  26.300  1.00  0.00     0.149 C
BRANCH   9  10
HETATM   10  C10 UNL     1       3.799  36.063  25.246  1.00  0.00     0.222 C
HETATM   11  O1  UNL     1       4.565  36.696  24.477  1.00  0.00    -0.273 OA
HETATM   12  N4  UNL     1       2.405  36.244  25.095  1.00  0.00    -0.358 N
ATOM     13  H4  UNL     1       1.774  35.735  25.713  1.00  0.00     0.162 HD
BRANCH  12  14
HETATM   14  C11 UNL     1       1.846  37.118  24.102  1.00  0.00     0.154 C
BRANCH  14  15
HETATM   15  C12 UNL     1       1.357  36.441  22.860  1.00  0.00     0.139 C
HETATM   16  C13 UNL     1       2.326  36.520  21.724  1.00  0.00     0.035 C
HETATM   17  C14 UNL     1       1.426  36.510  20.516  1.00  0.00     0.029 C
HETATM   18  C15 UNL     1       0.082  36.830  21.073  1.00  0.00     0.168 C
HETATM   19  O2  UNL     1       0.245  37.157  22.414  1.00  0.00    -0.384 OA
ENDBRANCH  14  15
ENDBRANCH  12  14
ENDBRANCH   9  10
ENDBRANCH   5   9
BRANCH   4  20
HETATM   20  N3  UNL     1       7.064  35.619  26.005  1.00  0.00    -0.384 N
ATOM     21  H32 UNL     1       8.067  35.781  26.093  1.00  0.00     0.157 HD
ATOM     22  H31 UNL     1       6.445  36.378  26.291  1.00  0.00     0.157 HD
ENDBRANCH   4  20
BRANCH   6  23
HETATM   23  N5  UNL     1       3.359  32.748  25.334  1.00  0.00    -0.249 N
HETATM   24  C17 UNL     1       2.676  32.282  26.377  1.00  0.00     0.143 A
HETATM   25  C18 UNL     1       1.338  32.237  26.046  1.00  0.00     0.068 A
HETATM   26 CL1  UNL     1      -0.017  31.701  27.054  1.00  0.00    -0.081 Cl
HETATM   27  C19 UNL     1       1.247  32.701  24.747  1.00  0.00     0.133 A
HETATM   28  N6  UNL     1       2.491  33.000  24.347  1.00  0.00    -0.302 N
ATOM     29  H6  UNL     1       2.738  33.366  23.428  1.00  0.00     0.186 HD
ENDBRANCH   6  23
BRANCH   1  30
HETATM   30  N1  UNL     1       7.827  31.512  23.839  1.00  0.00    -0.213 N
HETATM   31  C2  UNL     1       8.296  31.581  22.483  1.00  0.00     0.098 C
HETATM   32  C1  UNL     1       7.791  30.445  21.623  1.00  0.00     0.033 C
HETATM   33  C3  UNL     1       9.799  31.458  22.695  1.00  0.00     0.027 C
HETATM   34  C4  UNL     1       9.888  30.523  23.901  1.00  0.00     0.022 C
HETATM   35  C5  UNL     1       8.464  30.353  24.395  1.00  0.00     0.141 C
ENDBRANCH   1  30
TORSDOF 7
ENDMDL