MODEL 4
REMARK VINA RESULT: -7.293194206      4.052      7.769
REMARK  9 active torsions:
REMARK  status: ('A' for Active; 'I' for Inactive)
REMARK    1  A    between atoms: C3_3  and  C4_4
REMARK    2  A    between atoms: C4_4  and  N1_5
REMARK    3  A    between atoms: C5_7  and  N2_8
REMARK    4  A    between atoms: C9_15  and  O2_16
REMARK    5  A    between atoms: C10_18  and  N3_19
REMARK       I    between atoms: N3_19  and  C11_21
REMARK    6  A    between atoms: C11_21  and  C12_23
REMARK    7  A    between atoms: C12_23  and  O4_24
REMARK    8  A    between atoms: O4_24  and  C13_25
REMARK    9  A    between atoms: C13_25  and  C14_27
ROOT
HETATM    1  C1  UNL     1       7.766  36.736  26.601  1.00  0.00     0.015 C
HETATM    2  C2  UNL     1       6.669  36.200  26.075  1.00  0.00    -0.071 C
HETATM    3  C3  UNL     1       6.452  34.752  25.806  1.00  0.00     0.066 C
HETATM    4  C9  UNL     1       4.947  34.700  25.507  1.00  0.00     0.151 C
HETATM    5  C10 UNL     1       4.654  36.032  24.888  1.00  0.00     0.126 C
HETATM    6  C18 UNL     1       5.475  36.992  25.678  1.00  0.00    -0.002 C
HETATM    7  C19 UNL     1       5.886  38.211  24.859  1.00  0.00     0.022 C
HETATM    8  C20 UNL     1       4.753  37.489  26.916  1.00  0.00     0.022 C
ENDROOT
BRANCH   5   9
HETATM    9  N3  UNL     1       3.251  36.304  24.914  1.00  0.00    -0.351 N
HETATM   10  C11 UNL     1       2.451  36.071  23.774  1.00  0.00     0.242 C
HETATM   11  O3  UNL     1       2.926  35.619  22.696  1.00  0.00    -0.271 OA
ATOM     12  H3  UNL     1       2.823  36.671  25.764  1.00  0.00     0.163 HD
BRANCH  10  13
HETATM   13  C12 UNL     1       1.005  36.366  23.843  1.00  0.00     0.281 C
BRANCH  13  14
HETATM   14  O4  UNL     1       0.174  35.260  23.966  1.00  0.00    -0.311 OA
BRANCH  14  15
HETATM   15  C13 UNL     1       0.532  34.106  24.634  1.00  0.00     0.267 C
HETATM   16  O5  UNL     1       1.459  34.074  25.455  1.00  0.00    -0.264 OA
BRANCH  15  17
HETATM   17  C14 UNL     1      -0.246  32.875  24.329  1.00  0.00     0.037 C
HETATM   18  C15 UNL     1      -1.311  32.634  25.377  1.00  0.00     0.025 C
HETATM   19  C16 UNL     1      -0.909  33.023  22.999  1.00  0.00     0.025 C
HETATM   20  C17 UNL     1       0.665  31.679  24.320  1.00  0.00     0.025 C
ENDBRANCH  15  17
ENDBRANCH  14  15
ENDBRANCH  13  14
ENDBRANCH  10  13
ENDBRANCH   5   9
BRANCH   4  21
HETATM   21  O2  UNL     1       4.201  34.398  26.618  1.00  0.00    -0.393 OA
ATOM     22  H2  UNL     1       4.740  34.165  27.364  1.00  0.00     0.210 HD
ENDBRANCH   4  21
BRANCH   3  23
HETATM   23  C4  UNL     1       7.138  34.251  24.580  1.00  0.00     0.168 C
BRANCH  23  24
HETATM   24  N1  UNL     1       7.378  32.829  24.554  1.00  0.00    -0.253 N
HETATM   25  O1  UNL     1       8.481  32.217  24.767  1.00  0.00    -0.216 OA
HETATM   26  C5  UNL     1       8.390  30.921  24.671  1.00  0.00     0.188 A
HETATM   27  C6  UNL     1       7.089  30.643  24.362  1.00  0.00     0.111 A
HETATM   28 CL1  UNL     1       6.337  29.096  24.104  1.00  0.00    -0.077 Cl
HETATM   29  C7  UNL     1       6.456  31.868  24.291  1.00  0.00     0.057 A
HETATM   30  C8  UNL     1       5.031  32.116  23.985  1.00  0.00     0.072 C
BRANCH  26  31
HETATM   31  N2  UNL     1       9.318  30.028  24.828  1.00  0.00    -0.377 N
ATOM     32  H22 UNL     1      10.174  30.168  25.366  1.00  0.00     0.158 HD
ATOM     33  H21 UNL     1       9.358  29.076  24.461  1.00  0.00     0.158 HD
ENDBRANCH  26  31
ENDBRANCH  23  24
ENDBRANCH   3  23
TORSDOF 9
ENDMDL