MODEL 3
REMARK VINA RESULT: -8.867026185      3.562      8.003
REMARK  9 active torsions:
REMARK  status: ('A' for Active; 'I' for Inactive)
REMARK    1  A    between atoms: O1_1  and  C1_3
REMARK    2  A    between atoms: C1_3  and  C2_4
REMARK    3  A    between atoms: C4_6  and  N1_7
REMARK    4  A    between atoms: C7_12  and  N3_13
REMARK    5  A    between atoms: N3_13  and  C8_15
REMARK    6  A    between atoms: C8_15  and  C9_16
REMARK    7  A    between atoms: C9_16  and  C10_17
REMARK    8  A    between atoms: C13_22  and  N5_23
REMARK    9  A    between atoms: C22_35  and  O2_36
ROOT
HETATM    1  N1  UNL     1       2.639  31.920  25.093  1.00  0.00    -0.319 N
HETATM    2  C5  UNL     1       2.662  30.600  24.835  1.00  0.00     0.185 A
HETATM    3  N2  UNL     1       3.927  30.189  24.635  1.00  0.00    -0.346 N
ATOM      4  H2  UNL     1       4.219  29.235  24.421  1.00  0.00     0.167 HD
HETATM    5  C6  UNL     1       4.740  31.249  24.765  1.00  0.00     0.123 A
HETATM    6  C7  UNL     1       6.097  31.486  24.682  1.00  0.00     0.147 A
HETATM    7  N4  UNL     1       6.634  32.727  24.873  1.00  0.00    -0.174 N
ATOM      8  H4  UNL     1       7.642  32.868  24.805  1.00  0.00     0.186 HD
HETATM    9  C13 UNL     1       5.838  33.736  25.144  1.00  0.00     0.684 A
HETATM   10  N6  UNL     1       4.497  33.499  25.226  1.00  0.00    -0.174 N
ATOM     11  H6  UNL     1       3.891  34.292  25.439  1.00  0.00     0.186 HD
HETATM   12  C20 UNL     1       3.922  32.322  25.051  1.00  0.00     0.155 A
ENDROOT
BRANCH   1  13
HETATM   13  C4  UNL     1       1.448  32.699  25.357  1.00  0.00     0.129 C
HETATM   14  C3  UNL     1       0.693  33.016  24.082  1.00  0.00     0.038 C
HETATM   15  C2  UNL     1      -0.643  33.467  24.627  1.00  0.00     0.043 C
HETATM   16  C22 UNL     1      -0.932  32.395  25.656  1.00  0.00     0.160 C
HETATM   17  C21 UNL     1       0.433  31.980  26.183  1.00  0.00     0.222 C
HETATM   18  F1  UNL     1       0.552  30.627  26.073  1.00  0.00    -0.244 F
BRANCH  15  19
HETATM   19  C1  UNL     1      -1.672  33.479  23.522  1.00  0.00     0.171 C
BRANCH  19  20
HETATM   20  O1  UNL     1      -1.049  33.036  22.356  1.00  0.00    -0.400 OA
ATOM     21  H1  UNL     1      -1.588  32.349  21.983  1.00  0.00     0.209 HD
ENDBRANCH  19  20
ENDBRANCH  15  19
BRANCH  16  22
HETATM   22  O2  UNL     1      -1.592  31.336  25.059  1.00  0.00    -0.392 OA
ATOM     23  H2  UNL     1      -1.372  30.526  25.504  1.00  0.00     0.210 HD
ENDBRANCH  16  22
ENDBRANCH   1  13
BRANCH   6  24
HETATM   24  N3  UNL     1       6.905  30.533  24.421  1.00  0.00    -0.374 N
ATOM     25  H3  UNL     1       6.835  29.708  25.017  1.00  0.00     0.161 HD
BRANCH  24  26
HETATM   26  C8  UNL     1       7.892  30.482  23.399  1.00  0.00     0.121 C
BRANCH  26  27
HETATM   27  C9  UNL     1       9.305  30.512  23.933  1.00  0.00     0.024 C
BRANCH  27  28
HETATM   28  C10 UNL     1      10.333  30.824  22.905  1.00  0.00    -0.013 A
HETATM   29  C11 UNL     1      11.412  29.902  22.535  1.00  0.00     0.005 A
HETATM   30  C12 UNL     1      11.755  31.038  23.463  1.00  0.00     0.005 A
ENDBRANCH  27  28
ENDBRANCH  26  27
ENDBRANCH  24  26
ENDBRANCH   6  24
BRANCH   9  31
HETATM   31  N5  UNL     1       6.266  35.046  25.359  1.00  0.00    -0.208 N
HETATM   32  C14 UNL     1       5.368  36.156  25.603  1.00  0.00     0.142 C
HETATM   33  C15 UNL     1       5.497  37.369  24.767  1.00  0.00     0.021 C
HETATM   34  C16 UNL     1       6.436  38.484  25.129  1.00  0.00     0.013 C
HETATM   35  C17 UNL     1       7.941  38.050  25.092  1.00  0.00     0.081 C
HETATM   36  C18 UNL     1       7.995  36.650  25.206  1.00  0.00    -0.163 C
HETATM   37  C19 UNL     1       7.763  35.258  25.329  1.00  0.00     0.221 C
ENDBRANCH   9  31
TORSDOF 9
ENDMDL