MODEL 1
REMARK VINA RESULT: -7.681567682      0.000      0.000
REMARK  9 active torsions:
REMARK  status: ('A' for Active; 'I' for Inactive)
REMARK    1  A    between atoms: C4_5  and  N1_6
REMARK    2  A    between atoms: C7_12  and  N3_13
REMARK    3  A    between atoms: N3_13  and  C8_15
REMARK    4  A    between atoms: C8_15  and  C9_16
REMARK    5  A    between atoms: C9_16  and  C10_17
REMARK    6  A    between atoms: C10_17  and  C11_18
REMARK    7  A    between atoms: C12_22  and  N5_23
REMARK    8  A    between atoms: N5_23  and  C13_25
REMARK    9  A    between atoms: C18_32  and  O2_33
ROOT
HETATM    1  N1  UNL     1       5.449  36.379  24.992  1.00  0.00    -0.303 N
HETATM    2  C5  UNL     1       6.776  36.632  24.893  1.00  0.00     0.160 A
HETATM    3  S1  UNL     1       7.552  38.254  24.716  1.00  0.00    -0.013 SA
HETATM    4  N2  UNL     1       7.480  35.508  24.943  1.00  0.00    -0.330 N
ATOM      5  H2  UNL     1       8.495  35.431  24.888  1.00  0.00     0.168 HD
HETATM    6  C6  UNL     1       6.607  34.484  25.079  1.00  0.00     0.124 A
HETATM    7  C7  UNL     1       6.737  33.117  25.181  1.00  0.00     0.147 A
HETATM    8  N4  UNL     1       5.598  32.395  25.307  1.00  0.00    -0.175 N
ATOM      9  H4  UNL     1       5.676  31.381  25.385  1.00  0.00     0.186 HD
HETATM   10  C12 UNL     1       4.372  32.943  25.336  1.00  0.00     0.681 A
HETATM   11  N6  UNL     1       4.236  34.277  25.236  1.00  0.00    -0.174 N
ATOM     12  H6  UNL     1       3.310  34.706  25.256  1.00  0.00     0.186 HD
HETATM   13  C16 UNL     1       5.337  35.035  25.109  1.00  0.00     0.156 A
ENDROOT
BRANCH   1  14
HETATM   14  C4  UNL     1       4.444  37.381  24.971  1.00  0.00     0.121 C
HETATM   15  C3  UNL     1       3.498  37.385  23.822  1.00  0.00     0.201 C
HETATM   16  O1  UNL     1       3.024  38.741  23.689  1.00  0.00    -0.352 OA
HETATM   17  C2  UNL     1       3.043  39.470  24.877  1.00  0.00     0.065 C
HETATM   18  C1  UNL     1       3.147  40.787  24.861  1.00  0.00     0.048 C
HETATM   19  C18 UNL     1       2.947  38.828  26.213  1.00  0.00     0.175 C
HETATM   20  C17 UNL     1       3.607  37.454  26.250  1.00  0.00     0.066 C
BRANCH  19  21
HETATM   21  O2  UNL     1       1.628  38.728  26.647  1.00  0.00    -0.389 OA
ATOM     22  H2  UNL     1       1.515  39.084  27.520  1.00  0.00     0.210 HD
ENDBRANCH  19  21
ENDBRANCH   1  14
BRANCH   7  23
HETATM   23  N3  UNL     1       7.885  32.583  25.157  1.00  0.00    -0.374 N
ATOM     24  H3  UNL     1       8.351  32.462  26.057  1.00  0.00     0.161 HD
BRANCH  23  25
HETATM   25  C8  UNL     1       8.603  32.129  23.998  1.00  0.00     0.121 C
BRANCH  25  26
HETATM   26  C9  UNL     1       8.359  30.651  23.745  1.00  0.00     0.021 C
BRANCH  26  27
HETATM   27  C10 UNL     1       7.621  30.490  22.417  1.00  0.00     0.017 C
BRANCH  27  28
HETATM   28  C11 UNL     1       6.213  29.996  22.649  1.00  0.00     0.114 C
HETATM   29 CL1  UNL     1       6.053  29.093  24.148  1.00  0.00    -0.130 Cl
ENDBRANCH  27  28
ENDBRANCH  26  27
ENDBRANCH  25  26
ENDBRANCH  23  25
ENDBRANCH   7  23
BRANCH  10  30
HETATM   30  N5  UNL     1       3.313  32.234  25.457  1.00  0.00    -0.221 N
ATOM     31  H5  UNL     1       2.670  32.465  26.213  1.00  0.00     0.178 HD
BRANCH  30  32
HETATM   32  C13 UNL     1       2.966  31.132  24.597  1.00  0.00     0.099 A
HETATM   33  C14 UNL     1       1.492  30.687  24.687  1.00  0.00     0.028 A
HETATM   34  C15 UNL     1       2.617  29.805  25.114  1.00  0.00     0.028 A
ENDBRANCH  30  32
ENDBRANCH  10  30
TORSDOF 9
ENDMDL