MODEL 3
REMARK VINA RESULT: -8.510846311      3.641      8.223
REMARK  7 active torsions:
REMARK  status: ('A' for Active; 'I' for Inactive)
REMARK    1  A    between atoms: C8_8  and  C9_9
REMARK    2  A    between atoms: C9_9  and  O1_10
REMARK    3  A    between atoms: O1_10  and  C10_11
REMARK    4  A    between atoms: C11_14  and  N2_15
REMARK    5  A    between atoms: N3_18  and  C14_19
REMARK    6  A    between atoms: C14_19  and  C16_21
REMARK    7  A    between atoms: C20_28  and  N5_29
ROOT
HETATM    1  C10 UNL     1       3.171  32.932  25.200  1.00  0.00     0.226 A
HETATM    2  N1  UNL     1       4.421  32.955  24.701  1.00  0.00    -0.307 N
ATOM      3  H1  UNL     1       4.875  33.859  24.571  1.00  0.00     0.171 HD
HETATM    4  C11 UNL     1       5.100  31.840  24.366  1.00  0.00     0.132 A
HETATM    5  C19 UNL     1       4.459  30.641  24.554  1.00  0.00     0.121 A
HETATM    6 CL1  UNL     1       5.230  29.135  24.168  1.00  0.00    -0.076 Cl
HETATM    7  C20 UNL     1       3.168  30.591  25.068  1.00  0.00     0.127 A
HETATM    8  N6  UNL     1       2.564  31.746  25.376  1.00  0.00    -0.307 N
ATOM      9  H6  UNL     1       1.617  31.724  25.755  1.00  0.00     0.171 HD
ENDROOT
BRANCH   4  10
HETATM   10  N2  UNL     1       6.414  31.868  23.838  1.00  0.00    -0.362 N
HETATM   11  C12 UNL     1       6.684  31.545  22.477  1.00  0.00     0.154 C
HETATM   12  C13 UNL     1       7.943  30.745  22.245  1.00  0.00     0.293 C
HETATM   13  N3  UNL     1       8.940  30.937  23.242  1.00  0.00     0.104 N
HETATM   14  C17 UNL     1       8.762  32.303  23.761  1.00  0.00     0.293 C
HETATM   15  C18 UNL     1       7.563  32.237  24.683  1.00  0.00     0.154 C
BRANCH  13  16
HETATM   16  C14 UNL     1      10.293  30.719  22.819  1.00  0.00     0.307 C
HETATM   17  C15 UNL     1      11.031  29.739  23.702  1.00  0.00     0.053 C
BRANCH  16  18
HETATM   18  C16 UNL     1      11.056  31.949  22.603  1.00  0.00     0.264 C
HETATM   19  N4  UNL     1      10.979  32.590  21.314  1.00  0.00    -0.060 NA
HETATM   20  O2  UNL     1      11.773  32.486  23.464  1.00  0.00    -0.274 OA
ENDBRANCH  16  18
ENDBRANCH  13  16
ENDBRANCH   4  10
BRANCH   1  21
HETATM   21  O1  UNL     1       2.502  34.128  25.537  1.00  0.00    -0.321 OA
BRANCH  21  22
HETATM   22  C9  UNL     1       2.620  35.204  24.641  1.00  0.00     0.188 C
BRANCH  22  23
HETATM   23  C8  UNL     1       1.344  35.594  23.983  1.00  0.00     0.038 C
HETATM   24  C2  UNL     1       1.422  35.918  22.560  1.00  0.00    -0.083 C
HETATM   25  C1  UNL     1       2.626  36.060  22.025  1.00  0.00     0.015 C
HETATM   26  C3  UNL     1       0.299  36.115  21.605  1.00  0.00     0.034 C
HETATM   27  C4  UNL     1      -0.163  34.803  21.009  1.00  0.00     0.004 C
HETATM   28  C5  UNL     1      -0.783  33.892  22.038  1.00  0.00     0.000 C
HETATM   29  C6  UNL     1       0.211  33.545  23.123  1.00  0.00     0.001 C
HETATM   30  C7  UNL     1       0.260  34.552  24.219  1.00  0.00     0.011 C
ENDBRANCH  22  23
ENDBRANCH  21  22
ENDBRANCH   1  21
BRANCH   7  31
HETATM   31  N5  UNL     1       2.545  29.467  25.253  1.00  0.00    -0.384 N
ATOM     32  H52 UNL     1       2.847  28.632  24.752  1.00  0.00     0.157 HD
ATOM     33  H51 UNL     1       1.752  29.388  25.889  1.00  0.00     0.157 HD
ENDBRANCH   7  31
TORSDOF 7
ENDMDL