MODEL 3
REMARK VINA RESULT: -8.425245535      2.405      4.132
REMARK  10 active torsions:
REMARK  status: ('A' for Active; 'I' for Inactive)
REMARK    1  A    between atoms: O1_2  and  C2_3
REMARK    2  A    between atoms: C3_6  and  N2_7
REMARK    3  A    between atoms: C4_12  and  N4_13
REMARK    4  A    between atoms: C9_19  and  C10_20
REMARK    5  A    between atoms: C10_20  and  N5_21
REMARK    6  A    between atoms: N5_21  and  C11_23
REMARK    7  A    between atoms: C11_23  and  O3_24
REMARK    8  A    between atoms: C11_23  and  C12_26
REMARK    9  A    between atoms: C15_29  and  O4_31
REMARK   10  A    between atoms: O4_31  and  C16_32
ROOT
HETATM    1  C2  UNL     1       3.576  36.175  25.393  1.00  0.00     0.168 A
HETATM    2  N1  UNL     1       2.942  37.266  25.873  1.00  0.00    -0.170 N
ATOM      3  H1  UNL     1       3.472  37.932  26.435  1.00  0.00     0.186 HD
HETATM    4  C3  UNL     1       1.659  37.507  25.646  1.00  0.00     0.679 A
HETATM    5  N3  UNL     1       0.952  36.639  24.908  1.00  0.00    -0.176 N
ATOM      6  H3  UNL     1      -0.036  36.818  24.725  1.00  0.00     0.186 HD
HETATM    7  C4  UNL     1       1.543  35.518  24.399  1.00  0.00     0.131 A
HETATM    8  C9  UNL     1       2.874  35.266  24.632  1.00  0.00     0.055 A
ENDROOT
BRANCH   8   9
HETATM    9  C10 UNL     1       3.503  34.036  24.154  1.00  0.00     0.168 C
BRANCH   9  10
HETATM   10  N5  UNL     1       3.782  33.063  25.212  1.00  0.00    -0.370 N
ATOM     11  H5  UNL     1       3.842  33.362  26.186  1.00  0.00     0.161 HD
BRANCH  10  12
HETATM   12  C11 UNL     1       3.964  31.729  24.873  1.00  0.00     0.115 C
BRANCH  12  13
HETATM   13  O3  UNL     1       2.861  31.009  24.788  1.00  0.00    -0.349 OA
ATOM     14  H3  UNL     1       2.726  30.382  25.489  1.00  0.00     0.219 HD
ENDBRANCH  12  13
BRANCH  12  15
HETATM   15  C12 UNL     1       5.165  30.960  24.601  1.00  0.00     0.065 C
HETATM   16  C13 UNL     1       4.965  29.474  24.509  1.00  0.00     0.018 C
HETATM   17  C14 UNL     1       5.632  29.025  23.213  1.00  0.00     0.074 C
HETATM   18  C15 UNL     1       6.597  30.141  22.951  1.00  0.00     0.206 C
HETATM   19  F1  UNL     1       6.887  30.174  21.562  1.00  0.00    -0.212 F
HETATM   20  C20 UNL     1       5.734  31.341  23.221  1.00  0.00     0.086 C
BRANCH  18  21
HETATM   21  O4  UNL     1       7.716  30.235  23.676  1.00  0.00    -0.341 OA
BRANCH  21  22
HETATM   22  C16 UNL     1       8.715  31.087  23.411  1.00  0.00     0.054 C
HETATM   23  C17 UNL     1      10.026  30.351  23.805  1.00  0.00     0.045 C
HETATM   24  C18 UNL     1       8.697  32.304  24.359  1.00  0.00     0.045 C
HETATM   25  C19 UNL     1       8.933  31.595  22.031  1.00  0.00     0.045 C
ENDBRANCH  21  22
ENDBRANCH  18  21
ENDBRANCH  12  15
ENDBRANCH  10  12
ENDBRANCH   9  10
ENDBRANCH   8   9
BRANCH   1  26
HETATM   26  O1  UNL     1       4.920  36.002  25.677  1.00  0.00    -0.340 OA
HETATM   27  C1  UNL     1       5.405  35.881  26.999  1.00  0.00     0.211 C
ENDBRANCH   1  26
BRANCH   7  28
HETATM   28  N4  UNL     1       0.697  34.623  23.716  1.00  0.00    -0.362 N
HETATM   29  C5  UNL     1       0.299  34.837  22.352  1.00  0.00     0.150 C
HETATM   30  C6  UNL     1      -0.509  33.669  21.818  1.00  0.00     0.187 C
HETATM   31  O2  UNL     1      -1.527  33.292  22.649  1.00  0.00    -0.388 OA
HETATM   32  C7  UNL     1      -1.314  33.353  23.992  1.00  0.00     0.187 C
HETATM   33  C8  UNL     1       0.171  33.438  24.380  1.00  0.00     0.150 C
ENDBRANCH   7  28
BRANCH   4  34
HETATM   34  N2  UNL     1       1.033  38.542  26.101  1.00  0.00    -0.234 N
ATOM     35  H22 UNL     1       1.591  39.370  26.311  1.00  0.00     0.174 HD
ATOM     36  H21 UNL     1       0.025  38.570  26.256  1.00  0.00     0.174 HD
ENDBRANCH   4  34
TORSDOF 10
ENDMDL