MODEL 1
REMARK VINA RESULT: -8.689497255      0.000      0.000
REMARK  9 active torsions:
REMARK  status: ('A' for Active; 'I' for Inactive)
REMARK    1  A    between atoms: C2_2  and  C4_4
REMARK    2  A    between atoms: C4_4  and  O1_5
REMARK    3  A    between atoms: O1_5  and  C5_6
REMARK    4  A    between atoms: C5_6  and  C6_7
REMARK    5  A    between atoms: C6_7  and  O2_8
REMARK    6  A    between atoms: C11_14  and  N1_15
REMARK    7  A    between atoms: C14_20  and  N3_21
REMARK    8  A    between atoms: N3_21  and  C15_22
REMARK    9  A    between atoms: C20_32  and  O3_33
ROOT
HETATM    1  C6  UNL     1       2.126  32.278  25.935  1.00  0.00     0.110 C
HETATM    2  C7  UNL     1       1.420  31.044  25.482  1.00  0.00     0.026 C
HETATM    3  C8  UNL     1       1.617  30.654  24.063  1.00  0.00     0.014 C
HETATM    4  C9  UNL     1       2.999  30.121  24.498  1.00  0.00     0.012 C
HETATM    5  C10 UNL     1       2.360  29.876  25.834  1.00  0.00     0.014 C
HETATM    6  C11 UNL     1       3.915  31.327  24.468  1.00  0.00     0.128 C
HETATM    7  C20 UNL     1       3.603  32.250  25.588  1.00  0.00     0.178 C
ENDROOT
BRANCH   6   8
HETATM    8  N1  UNL     1       5.255  30.894  24.317  1.00  0.00    -0.319 N
HETATM    9  C12 UNL     1       5.654  29.621  24.012  1.00  0.00     0.185 A
HETATM   10  N2  UNL     1       6.967  29.588  23.953  1.00  0.00    -0.345 N
HETATM   11  C13 UNL     1       7.488  30.801  24.205  1.00  0.00     0.136 A
ATOM     12  H2  UNL     1       7.516  28.755  23.743  1.00  0.00     0.167 HD
HETATM   13  C14 UNL     1       8.777  31.298  24.267  1.00  0.00     0.206 A
HETATM   14  C19 UNL     1       6.406  31.610  24.432  1.00  0.00     0.143 A
HETATM   15  N4  UNL     1       8.901  32.630  24.564  1.00  0.00    -0.306 N
HETATM   16  C18 UNL     1       7.858  33.412  24.782  1.00  0.00     0.182 A
ATOM     17  H4  UNL     1       9.836  33.034  24.619  1.00  0.00     0.171 HD
HETATM   18 CL1  UNL     1       8.113  35.126  25.160  1.00  0.00    -0.045 Cl
HETATM   19  N5  UNL     1       6.625  32.893  24.714  1.00  0.00    -0.316 N
ATOM     20  H5  UNL     1       5.825  33.502  24.884  1.00  0.00     0.170 HD
BRANCH  13  21
HETATM   21  N3  UNL     1       9.735  30.583  24.067  1.00  0.00    -0.423 NA
BRANCH  21  22
HETATM   22  C15 UNL     1      10.939  30.126  23.661  1.00  0.00     0.165 A
HETATM   23  C16 UNL     1      11.435  30.243  22.241  1.00  0.00     0.042 A
HETATM   24  C17 UNL     1      12.138  30.948  23.334  1.00  0.00     0.042 A
ENDBRANCH  21  22
ENDBRANCH  13  21
ENDBRANCH   6   8
BRANCH   7  25
HETATM   25  O3  UNL     1       3.945  33.548  25.182  1.00  0.00    -0.390 OA
ATOM     26  H3  UNL     1       4.636  33.842  25.764  1.00  0.00     0.210 HD
ENDBRANCH   7  25
BRANCH   1  27
HETATM   27  C5  UNL     1       1.479  33.566  25.476  1.00  0.00     0.209 C
BRANCH  27  28
HETATM   28  O1  UNL     1       1.480  33.715  24.108  1.00  0.00    -0.384 OA
BRANCH  28  29
HETATM   29  C4  UNL     1       0.414  34.512  23.729  1.00  0.00     0.200 C
BRANCH  29  30
HETATM   30  C2  UNL     1      -0.600  33.790  22.934  1.00  0.00    -0.070 C
HETATM   31  C1  UNL     1      -1.551  33.076  23.517  1.00  0.00     0.016 C
HETATM   32  C3  UNL     1      -0.533  33.883  21.459  1.00  0.00     0.044 C
ENDBRANCH  29  30
ENDBRANCH  28  29
ENDBRANCH  27  28
ENDBRANCH   1  27
BRANCH   1  33
HETATM   33  O2  UNL     1       2.012  32.294  27.348  1.00  0.00    -0.385 OA
ATOM     34  H2  UNL     1       1.800  31.400  27.587  1.00  0.00     0.210 HD
ENDBRANCH   1  33
TORSDOF 9
ENDMDL