MODEL 2
REMARK VINA RESULT: -7.522874011      3.233      4.597
REMARK  5 active torsions:
REMARK  status: ('A' for Active; 'I' for Inactive)
REMARK       I    between atoms: N1_5  and  C5_6
REMARK    1  A    between atoms: C5_6  and  O2_8
REMARK    2  A    between atoms: O2_8  and  C6_9
REMARK    3  A    between atoms: C9_14  and  N2_15
REMARK    4  A    between atoms: N2_15  and  C10_17
REMARK    5  A    between atoms: C14_23  and  N4_24
ROOT
HETATM    1  N2  UNL     1      -1.579   6.811  27.561  1.00  0.00    -0.391 N
ATOM      2  H2  UNL     1      -1.317   7.424  28.333  1.00  0.00     0.159 HD
ENDROOT
BRANCH   1   3
HETATM    3  C9  UNL     1      -2.629   5.912  27.709  1.00  0.00    -0.006 C
HETATM    4  C2  UNL     1      -2.490   4.514  28.113  1.00  0.00     0.007 C
HETATM    5  C1  UNL     1      -3.709   3.774  27.476  1.00  0.00     0.023 C
HETATM    6  C3  UNL     1      -1.314   3.719  27.659  1.00  0.00     0.023 C
HETATM    7  C4  UNL     1      -2.678   4.304  29.616  1.00  0.00     0.142 C
HETATM    8  N1  UNL     1      -3.033   5.464  30.351  1.00  0.00    -0.327 N
HETATM    9  C5  UNL     1      -2.991   5.371  31.792  1.00  0.00     0.367 C
HETATM   10  C7  UNL     1      -3.416   6.740  29.828  1.00  0.00     0.134 C
HETATM   11  O1  UNL     1      -3.317   6.381  32.449  1.00  0.00    -0.238 OA
HETATM   12  C8  UNL     1      -3.810   6.594  28.389  1.00  0.00     0.073 C
BRANCH   9  13
HETATM   13  O2  UNL     1      -2.601   4.219  32.461  1.00  0.00    -0.240 OA
BRANCH  13  14
HETATM   14  C6  UNL     1      -1.253   4.191  32.937  1.00  0.00     0.508 C
HETATM   15  F1  UNL     1      -0.400   4.879  32.113  1.00  0.00    -0.184 F
HETATM   16  F2  UNL     1      -1.298   4.778  34.223  1.00  0.00    -0.184 F
ENDBRANCH  13  14
ENDBRANCH   9  13
ENDBRANCH   1   3
BRANCH   1  17
HETATM   17  C10 UNL     1      -0.866   6.873  26.315  1.00  0.00     0.086 C
HETATM   18  C11 UNL     1       0.570   6.581  26.338  1.00  0.00     0.031 C
HETATM   19  C12 UNL     1       1.254   7.269  25.133  1.00  0.00     0.060 C
HETATM   20  C13 UNL     1       1.234   8.705  25.500  1.00  0.00     0.034 A
HETATM   21  N3  UNL     1       2.281   9.499  25.531  1.00  0.00    -0.195 N
HETATM   22  C16 UNL     1      -0.038   9.170  25.871  1.00  0.00    -0.017 A
HETATM   23  C14 UNL     1       2.194  10.806  25.928  1.00  0.00     0.675 A
ATOM     24  H3  UNL     1       3.189   9.129  25.249  1.00  0.00     0.184 HD
HETATM   25  N5  UNL     1       0.987  11.262  26.289  1.00  0.00    -0.202 N
HETATM   26  C15 UNL     1      -0.129  10.471  26.268  1.00  0.00     0.115 A
ATOM     27  H5  UNL     1       0.898  12.232  26.589  1.00  0.00     0.183 HD
HETATM   28  C17 UNL     1      -1.192   8.269  25.784  1.00  0.00     0.067 C
BRANCH  23  29
HETATM   29  N4  UNL     1       3.265  11.555  25.918  1.00  0.00    -0.234 N
ATOM     30  H42 UNL     1       4.067  11.387  26.525  1.00  0.00     0.174 HD
ATOM     31  H41 UNL     1       3.309  12.360  25.293  1.00  0.00     0.174 HD
ENDBRANCH  23  29
ENDBRANCH   1  17
TORSDOF 5
ENDMDL