MODEL 2
REMARK VINA RESULT: -7.813675686      1.170      1.256
REMARK  5 active torsions:
REMARK  status: ('A' for Active; 'I' for Inactive)
REMARK    1  A    between atoms: C2_2  and  O2_4
REMARK    2  A    between atoms: O2_4  and  N1_5
REMARK    3  A    between atoms: C10_18  and  N3_19
REMARK    4  A    between atoms: C11_24  and  N5_25
REMARK    5  A    between atoms: N5_25  and  C12_27
ROOT
HETATM    1  N1  UNL     1       0.530   7.470  21.600  1.00  0.00    -0.260 N
ATOM      2  H1  UNL     1       1.117   8.010  20.965  1.00  0.00     0.194 HD
HETATM    3  C3  UNL     1       0.513   7.719  22.860  1.00  0.00     0.064 C
HETATM    4  C4  UNL     1      -0.321   6.963  23.825  1.00  0.00     0.106 C
HETATM    5  C5  UNL     1      -0.517   7.728  25.114  1.00  0.00     0.126 C
HETATM    6  C6  UNL     1       0.506   7.296  26.113  1.00  0.00     0.054 C
HETATM    7  F1  UNL     1      -1.772   7.481  25.633  1.00  0.00    -0.241 F
HETATM    8  C7  UNL     1      -0.461   9.238  24.828  1.00  0.00     0.161 C
HETATM    9 CL1  UNL     1      -1.258  10.209  25.994  1.00  0.00    -0.116 Cl
HETATM   10  C8  UNL     1       0.884   9.581  24.393  1.00  0.00     0.037 A
HETATM   11  C9  UNL     1       1.372   8.797  23.341  1.00  0.00     0.085 A
HETATM   12  N2  UNL     1       2.587   9.020  22.810  1.00  0.00    -0.189 N
ATOM     13  H2  UNL     1       2.937   8.445  22.043  1.00  0.00     0.184 HD
HETATM   14  C10 UNL     1       3.325  10.012  23.311  1.00  0.00     0.677 A
HETATM   15  N4  UNL     1       2.864  10.772  24.326  1.00  0.00    -0.177 N
ATOM     16  H4  UNL     1       3.470  11.516  24.670  1.00  0.00     0.186 HD
HETATM   17  C11 UNL     1       1.666  10.623  24.919  1.00  0.00     0.127 A
ENDROOT
BRANCH  17  18
HETATM   18  N5  UNL     1       1.183  11.271  25.859  1.00  0.00    -0.371 N
ATOM     19  H5  UNL     1       0.265  11.622  25.588  1.00  0.00     0.161 HD
BRANCH  18  20
HETATM   20  C12 UNL     1       1.463  11.679  27.144  1.00  0.00     0.083 C
HETATM   21  C13 UNL     1       0.555  12.678  27.824  1.00  0.00     0.025 C
HETATM   22  C14 UNL     1       1.397  13.136  29.029  1.00  0.00     0.002 C
HETATM   23  C15 UNL     1       2.815  12.799  28.700  1.00  0.00     0.002 C
HETATM   24  C16 UNL     1       2.749  12.547  27.189  1.00  0.00     0.025 C
ENDBRANCH  18  20
ENDBRANCH  17  18
BRANCH  14  25
HETATM   25  N3  UNL     1       4.501  10.241  22.808  1.00  0.00    -0.234 N
ATOM     26  H32 UNL     1       4.752  11.180  22.497  1.00  0.00     0.174 HD
ATOM     27  H31 UNL     1       5.164   9.469  22.729  1.00  0.00     0.174 HD
ENDBRANCH  14  25
BRANCH   1  28
HETATM   28  O2  UNL     1      -0.270   6.448  21.135  1.00  0.00    -0.200 OA
BRANCH  28  29
HETATM   29  C2  UNL     1       0.091   5.661  20.052  1.00  0.00     0.277 C
HETATM   30  C1  UNL     1       0.716   6.246  18.837  1.00  0.00     0.128 C
HETATM   31  O1  UNL     1      -0.115   4.427  20.092  1.00  0.00    -0.264 OA
ENDBRANCH  28  29
ENDBRANCH   1  28
TORSDOF 5
ENDMDL