MODEL 3
REMARK VINA RESULT: -6.765202279      3.386      7.062
REMARK  4 active torsions:
REMARK  status: ('A' for Active; 'I' for Inactive)
REMARK    1  A    between atoms: O1_1  and  C1_3
REMARK    2  A    between atoms: C4_6  and  O2_7
REMARK    3  A    between atoms: N1_9  and  C5_10
REMARK    4  A    between atoms: C5_10  and  C6_11
ROOT
HETATM    1  C1  UNL     1      -1.301   9.361  26.262  1.00  0.00     0.153 A
HETATM    2  C2  UNL     1      -0.272  10.248  25.995  1.00  0.00     0.034 A
HETATM    3  C3  UNL     1       0.629   9.562  25.244  1.00  0.00     0.072 A
HETATM    4  C4  UNL     1       0.133   8.282  25.068  1.00  0.00     0.156 A
HETATM    5  N1  UNL     1      -1.076   8.163  25.708  1.00  0.00    -0.305 N
HETATM    6  C15 UNL     1       1.753  10.472  24.934  1.00  0.00     0.309 C
HETATM    7 CL1  UNL     1       3.118  10.227  26.048  1.00  0.00    -0.065 Cl
HETATM    8 CL2  UNL     1       2.263  10.190  23.253  1.00  0.00    -0.065 Cl
HETATM    9  N3  UNL     1       1.242  11.793  25.147  1.00  0.00    -0.030 N
ATOM     10  H31 UNL     1       0.895  12.249  24.303  1.00  0.00     0.281 HD
ATOM     11  H32 UNL     1       1.957  12.488  25.363  1.00  0.00     0.281 HD
HETATM   12  C16 UNL     1       0.238  11.623  26.191  1.00  0.00     0.280 C
ENDROOT
BRANCH   5  13
HETATM   13  C5  UNL     1      -1.875   6.956  25.700  1.00  0.00     0.169 C
BRANCH  13  14
HETATM   14  C6  UNL     1      -1.742   6.081  26.854  1.00  0.00     0.242 C
HETATM   15  C7  UNL     1      -2.695   6.440  28.017  1.00  0.00     0.044 C
HETATM   16  C8  UNL     1      -3.037   5.156  28.536  1.00  0.00     0.021 C
HETATM   17  C9  UNL     1      -3.019   4.759  29.957  1.00  0.00     0.007 C
HETATM   18  C14 UNL     1      -1.783   4.340  28.139  1.00  0.00     0.231 C
HETATM   19  C10 UNL     1      -3.040   3.224  29.741  1.00  0.00     0.007 C
HETATM   20  C11 UNL     1      -2.326   3.003  28.394  1.00  0.00     0.021 C
HETATM   21  C12 UNL     1      -3.296   2.869  27.242  1.00  0.00     0.037 C
HETATM   22  C13 UNL     1      -2.977   4.038  26.294  1.00  0.00     0.274 C
HETATM   23  N2  UNL     1      -1.796   4.668  26.732  1.00  0.00     0.100 N
ENDBRANCH  13  14
ENDBRANCH   5  13
BRANCH   1  24
HETATM   24  O1  UNL     1      -2.394   9.762  27.027  1.00  0.00    -0.345 OA
ATOM     25  H1  UNL     1      -2.613  10.684  27.104  1.00  0.00     0.219 HD
ENDBRANCH   1  24
BRANCH   4  26
HETATM   26  O2  UNL     1       0.793   7.298  24.347  1.00  0.00    -0.345 OA
ATOM     27  H2  UNL     1       0.549   6.380  24.367  1.00  0.00     0.219 HD
ENDBRANCH   4  26
TORSDOF 4
ENDMDL