MODEL 3
REMARK VINA RESULT: -4.995078412      2.346      4.269
REMARK  7 active torsions:
REMARK  status: ('A' for Active; 'I' for Inactive)
REMARK    1  A    between atoms: O1_2  and  C2_3
REMARK    2  A    between atoms: C2_3  and  C3_5
REMARK    3  A    between atoms: C3_5  and  C4_6
REMARK    4  A    between atoms: C8_10  and  O3_11
REMARK    5  A    between atoms: C11_15  and  C12_16
REMARK    6  A    between atoms: C14_19  and  O4_20
REMARK    7  A    between atoms: C15_22  and  O5_23
ROOT
HETATM    1  C4  UNL     1      -2.132   4.249  26.584  1.00  0.00     0.006 C
HETATM    2  C5  UNL     1      -1.030   3.304  26.914  1.00  0.00     0.019 C
HETATM    3  C6  UNL     1      -2.771   3.648  25.311  1.00  0.00     0.016 C
HETATM    4  C7  UNL     1      -3.401   2.336  25.622  1.00  0.00     0.033 C
HETATM    5  C8  UNL     1      -4.034   2.121  26.923  1.00  0.00     0.130 C
HETATM    6  C9  UNL     1      -3.883   3.109  28.032  1.00  0.00     0.032 C
HETATM    7  C10 UNL     1      -5.255   3.536  28.514  1.00  0.00     0.022 C
HETATM    8  C11 UNL     1      -3.164   2.557  29.228  1.00  0.00     0.069 C
HETATM    9  C14 UNL     1      -2.654   3.603  30.186  1.00  0.00     0.182 C
HETATM   10  C15 UNL     1      -2.861   4.991  29.787  1.00  0.00     0.077 C
HETATM   11  C16 UNL     1      -3.147   5.416  28.571  1.00  0.00    -0.011 C
HETATM   12  C17 UNL     1      -3.334   6.894  28.337  1.00  0.00     0.050 C
HETATM   13  C18 UNL     1      -3.269   4.388  27.514  1.00  0.00     0.147 C
HETATM   14  F2  UNL     1      -4.293   4.938  26.693  1.00  0.00    -0.236 F
ENDROOT
BRANCH   1  15
HETATM   15  C3  UNL     1      -1.588   5.588  26.167  1.00  0.00     0.123 C
BRANCH  15  16
HETATM   16  C2  UNL     1      -0.179   5.840  26.567  1.00  0.00     0.259 C
HETATM   17  O2  UNL     1       0.177   6.115  27.753  1.00  0.00    -0.265 OA
BRANCH  16  18
HETATM   18  O1  UNL     1       0.866   5.791  25.646  1.00  0.00    -0.326 OA
HETATM   19  C1  UNL     1       1.311   6.866  24.881  1.00  0.00     0.213 C
ENDBRANCH  16  18
ENDBRANCH  15  16
ENDBRANCH   1  15
BRANCH   5  20
HETATM   20  O3  UNL     1      -3.710   0.796  27.294  1.00  0.00    -0.395 OA
ATOM     21  H3  UNL     1      -4.061   0.241  26.607  1.00  0.00     0.210 HD
ENDBRANCH   5  20
BRANCH   8  22
HETATM   22  C12 UNL     1      -3.895   1.567  30.066  1.00  0.00     0.173 C
HETATM   23  C13 UNL     1      -2.929   0.460  30.561  1.00  0.00     0.045 C
HETATM   24  F1  UNL     1      -4.334   2.097  31.300  1.00  0.00    -0.249 F
ENDBRANCH   8  22
BRANCH  10  25
HETATM   25  O5  UNL     1      -2.751   5.995  30.776  1.00  0.00    -0.362 OA
ATOM     26  H5  UNL     1      -2.723   6.902  30.495  1.00  0.00     0.217 HD
ENDBRANCH  10  25
BRANCH   9  27
HETATM   27  O4  UNL     1      -1.317   3.436  30.522  1.00  0.00    -0.388 OA
ATOM     28  H4  UNL     1      -0.990   4.108  31.109  1.00  0.00     0.210 HD
ENDBRANCH   9  27
TORSDOF 7
ENDMDL