MODEL 4
REMARK VINA RESULT: -6.127659642      7.519      9.423
REMARK  3 active torsions:
REMARK  status: ('A' for Active; 'I' for Inactive)
REMARK    1  A    between atoms: S1_2  and  C2_3
REMARK    2  A    between atoms: C4_9  and  N3_10
REMARK    3  A    between atoms: N5_16  and  C6_18
ROOT
HETATM    1  C2  UNL     1      -4.606   1.692  31.251  1.00  0.00     0.094 A
HETATM    2  N1  UNL     1      -3.891   2.463  32.070  1.00  0.00    -0.334 N
ATOM      3  H1  UNL     1      -3.967   2.344  33.080  1.00  0.00     0.168 HD
HETATM    4  C3  UNL     1      -3.061   3.408  31.554  1.00  0.00     0.137 A
HETATM    5  N2  UNL     1      -2.351   4.172  32.408  1.00  0.00    -0.176 N
ATOM      6  H2  UNL     1      -2.453   4.024  33.412  1.00  0.00     0.186 HD
HETATM    7  C4  UNL     1      -1.514   5.123  31.968  1.00  0.00     0.679 A
HETATM    8  N4  UNL     1      -1.394   5.303  30.631  1.00  0.00    -0.176 N
ATOM      9  H4  UNL     1      -0.755   6.029  30.306  1.00  0.00     0.186 HD
HETATM   10  C5  UNL     1      -2.052   4.598  29.704  1.00  0.00     0.133 A
HETATM   11  N5  UNL     1      -1.981   4.719  28.458  1.00  0.00    -0.370 N
ATOM     12  H5  UNL     1      -2.571   4.077  27.929  1.00  0.00     0.161 HD
HETATM   13  C11 UNL     1      -2.922   3.609  30.216  1.00  0.00     0.076 A
HETATM   14  C12 UNL     1      -3.655   2.819  29.358  1.00  0.00     0.076 A
HETATM   15 CL1  UNL     1      -3.516   3.033  27.651  1.00  0.00    -0.081 Cl
HETATM   16  C13 UNL     1      -4.509   1.846  29.883  1.00  0.00     0.090 A
HETATM   17 CL2  UNL     1      -5.456   0.824  28.843  1.00  0.00    -0.080 Cl
ENDROOT
BRANCH  11  18
HETATM   18  C6  UNL     1      -1.222   5.594  27.681  1.00  0.00     0.087 C
HETATM   19  C7  UNL     1      -1.892   6.841  27.184  1.00  0.00     0.051 C
HETATM   20  C8  UNL     1      -1.519   7.169  25.759  1.00  0.00     0.169 C
HETATM   21  O1  UNL     1      -0.184   7.085  25.476  1.00  0.00    -0.391 OA
HETATM   22  C9  UNL     1       0.521   6.088  26.095  1.00  0.00     0.169 C
HETATM   23  C10 UNL     1      -0.486   4.992  26.496  1.00  0.00     0.051 C
ENDBRANCH  11  18
BRANCH   7  24
HETATM   24  N3  UNL     1      -0.835   5.853  32.780  1.00  0.00    -0.234 N
ATOM     25  H32 UNL     1      -0.570   5.490  33.695  1.00  0.00     0.174 HD
ATOM     26  H31 UNL     1      -0.548   6.801  32.536  1.00  0.00     0.174 HD
ENDBRANCH   7  24
BRANCH   1  27
HETATM   27  S1  UNL     1      -5.688   0.460  31.976  1.00  0.00    -0.115 SA
HETATM   28  C1  UNL     1      -7.420   0.929  31.752  1.00  0.00     0.097 C
ENDBRANCH   1  27
TORSDOF 3
ENDMDL