MODEL 4
REMARK VINA RESULT: -6.983917662      2.045      2.301
REMARK  3 active torsions:
REMARK  status: ('A' for Active; 'I' for Inactive)
REMARK    1  A    between atoms: O1_2  and  C2_3
REMARK    2  A    between atoms: C3_6  and  N2_7
REMARK    3  A    between atoms: C9_15  and  N4_16
ROOT
HETATM    1  N2  UNL     1      -1.121   6.013  26.117  1.00  0.00    -0.280 N
HETATM    2  C4  UNL     1       0.220   6.039  26.672  1.00  0.00     0.153 C
HETATM    3  C5  UNL     1       1.140   6.416  25.561  1.00  0.00     0.056 C
HETATM    4  C6  UNL     1       0.731   7.680  24.834  1.00  0.00     0.062 C
HETATM    5  N3  UNL     1       1.540   7.833  23.677  1.00  0.00    -0.390 N
ATOM      6  H3  UNL     1       2.036   7.038  23.274  1.00  0.00     0.159 HD
HETATM    7  C7  UNL     1       1.636   9.115  23.103  1.00  0.00     0.058 C
HETATM    8  C8  UNL     1       1.912  10.242  24.050  1.00  0.00     0.077 C
HETATM    9  C9  UNL     1       1.929   9.708  25.458  1.00  0.00     0.194 C
HETATM   10  C10 UNL     1       0.742   8.866  25.768  1.00  0.00     0.049 C
HETATM   11  C11 UNL     1      -0.571   9.294  25.156  1.00  0.00     0.044 C
HETATM   12  C12 UNL     1      -0.724   7.847  24.663  1.00  0.00     0.068 C
HETATM   13  C13 UNL     1      -1.173   7.751  23.217  1.00  0.00     0.042 C
HETATM   14  N5  UNL     1      -1.575   7.132  25.517  1.00  0.00    -0.321 N
ATOM     15  H5  UNL     1      -2.529   7.454  25.682  1.00  0.00     0.181 HD
ENDROOT
BRANCH   1  16
HETATM   16  C3  UNL     1      -1.881   4.830  26.232  1.00  0.00     0.125 A
HETATM   17  N1  UNL     1      -3.233   4.862  26.230  1.00  0.00    -0.320 N
HETATM   18  C2  UNL     1      -4.023   3.808  26.333  1.00  0.00     0.167 A
ATOM     19  H1  UNL     1      -3.679   5.775  26.142  1.00  0.00     0.169 HD
HETATM   20  C16 UNL     1      -3.466   2.562  26.453  1.00  0.00     0.106 A
HETATM   21  C15 UNL     1      -2.090   2.451  26.463  1.00  0.00     0.063 A
HETATM   22 CL2  UNL     1      -4.491   1.144  26.592  1.00  0.00    -0.078 Cl
HETATM   23  C14 UNL     1      -1.299   3.574  26.354  1.00  0.00     0.076 A
HETATM   24 CL1  UNL     1      -1.343   0.876  26.616  1.00  0.00    -0.082 Cl
BRANCH  18  25
HETATM   25  O1  UNL     1      -5.419   3.979  26.317  1.00  0.00    -0.339 OA
HETATM   26  C1  UNL     1      -6.130   4.085  27.530  1.00  0.00     0.211 C
ENDBRANCH  18  25
ENDBRANCH   1  16
BRANCH   9  27
HETATM   27  N4  UNL     1       2.078  10.838  26.350  1.00  0.00    -0.074 N
ATOM     28  H43 UNL     1       2.986  10.863  26.813  1.00  0.00     0.274 HD
ATOM     29  H42 UNL     1       2.156  11.727  25.855  1.00  0.00     0.274 HD
ATOM     30  H41 UNL     1       1.298  10.815  27.007  1.00  0.00     0.274 HD
ENDBRANCH   9  27
TORSDOF 3
ENDMDL