MODEL 3
REMARK VINA RESULT: -6.381980630      0.943      1.297
REMARK  4 active torsions:
REMARK  status: ('A' for Active; 'I' for Inactive)
REMARK    1  A    between atoms: C2_2  and  O1_3
REMARK    2  A    between atoms: O1_3  and  C3_4
REMARK    3  A    between atoms: C3_4  and  C4_6
REMARK    4  A    between atoms: C13_24  and  N5_25
ROOT
HETATM    1  C4  UNL     1      -1.234   6.621  25.404  1.00  0.00     0.133 C
HETATM    2  C5  UNL     1      -1.343   5.080  25.493  1.00  0.00     0.051 C
HETATM    3  N1  UNL     1      -2.115   7.131  26.374  1.00  0.00    -0.399 N
ATOM      4  H1  UNL     1      -2.651   6.510  26.979  1.00  0.00     0.154 HD
HETATM    5  C6  UNL     1      -2.233   8.575  26.484  1.00  0.00     0.157 C
HETATM    6  C7  UNL     1      -0.929   9.175  26.264  1.00  0.00    -0.000 A
HETATM    7  C8  UNL     1       0.217   8.418  25.985  1.00  0.00     0.040 A
HETATM    8  N2  UNL     1       1.428   8.949  25.782  1.00  0.00    -0.359 N
ATOM      9  H2  UNL     1       2.207   8.322  25.583  1.00  0.00     0.165 HD
HETATM   10  C9  UNL     1       1.658  10.246  25.828  1.00  0.00     0.033 A
HETATM   11  C10 UNL     1       2.999  10.862  25.606  1.00  0.00     0.070 C
HETATM   12  C11 UNL     1       0.581  11.062  26.098  1.00  0.00     0.071 A
HETATM   13  N3  UNL     1       0.763  12.390  26.156  1.00  0.00    -0.330 N
ATOM     14  H3  UNL     1       1.693  12.778  25.999  1.00  0.00     0.168 HD
HETATM   15  C12 UNL     1      -0.257  13.211  26.416  1.00  0.00     0.181 A
HETATM   16 CL1  UNL     1      -0.054  14.961  26.499  1.00  0.00    -0.045 Cl
HETATM   17  N4  UNL     1      -1.495  12.741  26.628  1.00  0.00    -0.318 N
ATOM     18  H4  UNL     1      -2.258  13.389  26.825  1.00  0.00     0.170 HD
HETATM   19  C13 UNL     1      -1.738  11.403  26.582  1.00  0.00     0.114 A
HETATM   20  C14 UNL     1      -0.710  10.548  26.317  1.00  0.00     0.046 A
HETATM   21  C15 UNL     1       0.173   6.921  25.885  1.00  0.00     0.170 C
HETATM   22 CL2  UNL     1       1.407   6.334  24.786  1.00  0.00    -0.115 Cl
ENDROOT
BRANCH   1  23
HETATM   23  C3  UNL     1      -1.457   6.956  24.011  1.00  0.00     0.288 C
HETATM   24  O2  UNL     1      -1.260   8.113  23.596  1.00  0.00    -0.262 OA
BRANCH  23  25
HETATM   25  O1  UNL     1      -1.895   6.018  23.092  1.00  0.00    -0.320 OA
BRANCH  25  26
HETATM   26  C2  UNL     1      -1.833   6.237  21.706  1.00  0.00     0.174 C
HETATM   27  C1  UNL     1      -2.730   5.308  20.921  1.00  0.00     0.034 C
ENDBRANCH  25  26
ENDBRANCH  23  25
ENDBRANCH   1  23
BRANCH  19  28
HETATM   28  N5  UNL     1      -2.923  10.957  26.787  1.00  0.00    -0.385 N
ATOM     29  H52 UNL     1      -3.070   9.993  27.089  1.00  0.00     0.157 HD
ATOM     30  H51 UNL     1      -3.729  11.566  26.649  1.00  0.00     0.157 HD
ENDBRANCH  19  28
TORSDOF 4
ENDMDL