MODEL 3
REMARK VINA RESULT: -7.578525152      3.737      4.670
REMARK  5 active torsions:
REMARK  status: ('A' for Active; 'I' for Inactive)
REMARK    1  A    between atoms: N1_1  and  C1_4
REMARK    2  A    between atoms: C4_9  and  S1_10
REMARK    3  A    between atoms: S1_10  and  C5_11
REMARK    4  A    between atoms: C5_11  and  C6_12
REMARK       I    between atoms: C6_12  and  N3_14
REMARK    5  A    between atoms: N3_14  and  C7_16
ROOT
HETATM    1  C1  UNL     1       2.493  10.376  25.879  1.00  0.00     0.676 A
HETATM    2  N2  UNL     1       1.995  11.604  26.091  1.00  0.00    -0.195 N
ATOM      3  H2  UNL     1       2.646  12.375  26.242  1.00  0.00     0.184 HD
HETATM    4  C2  UNL     1       0.683  11.862  26.114  1.00  0.00     0.035 A
HETATM    5  C3  UNL     1      -0.196  10.808  25.909  1.00  0.00    -0.001 A
HETATM    6  C4  UNL     1       0.296   9.544  25.689  1.00  0.00     0.094 A
HETATM    7  N5  UNL     1       1.645   9.363  25.681  1.00  0.00    -0.185 N
ATOM      8  H5  UNL     1       2.019   8.428  25.520  1.00  0.00     0.185 HD
HETATM    9  C10 UNL     1      -1.583  11.331  25.991  1.00  0.00     0.044 C
HETATM   10  C11 UNL     1      -1.425  12.551  26.872  1.00  0.00     0.011 C
HETATM   11  C12 UNL     1      -0.106  13.125  26.336  1.00  0.00     0.058 C
ENDROOT
BRANCH   6  12
HETATM   12  S1  UNL     1      -0.751   8.132  25.439  1.00  0.00    -0.102 SA
BRANCH  12  13
HETATM   13  C5  UNL     1      -0.848   7.712  23.698  1.00  0.00     0.184 C
BRANCH  13  14
HETATM   14  C6  UNL     1       0.470   7.395  23.129  1.00  0.00     0.233 C
HETATM   15  O1  UNL     1       1.390   6.879  23.788  1.00  0.00    -0.272 OA
HETATM   16  N3  UNL     1       0.688   7.703  21.732  1.00  0.00    -0.306 N
ATOM     17  H3  UNL     1       1.244   8.505  21.435  1.00  0.00     0.171 HD
BRANCH  16  18
HETATM   18  C7  UNL     1       0.121   6.882  20.866  1.00  0.00     0.153 A
HETATM   19  N4  UNL     1       0.676   6.190  19.868  1.00  0.00    -0.325 N
HETATM   20  C8  UNL     1      -0.088   5.434  19.136  1.00  0.00     0.134 A
ATOM     21  H4  UNL     1       1.678   6.252  19.684  1.00  0.00     0.169 HD
HETATM   22 CL1  UNL     1       0.530   4.459  17.764  1.00  0.00    -0.062 Cl
HETATM   23  C9  UNL     1      -1.425   5.395  19.434  1.00  0.00     0.116 A
HETATM   24 CL2  UNL     1      -2.715   4.474  18.631  1.00  0.00    -0.073 Cl
HETATM   25  S2  UNL     1      -1.526   6.455  20.766  1.00  0.00    -0.038 SA
ENDBRANCH  16  18
ENDBRANCH  13  14
ENDBRANCH  12  13
ENDBRANCH   6  12
BRANCH   1  26
HETATM   26  N1  UNL     1       3.787  10.207  25.873  1.00  0.00    -0.234 N
ATOM     27  H12 UNL     1       4.408  10.804  25.327  1.00  0.00     0.174 HD
ATOM     28  H11 UNL     1       4.193   9.455  26.431  1.00  0.00     0.174 HD
ENDBRANCH   1  26
TORSDOF 5
ENDMDL