MODEL 3
REMARK VINA RESULT: -6.790608052      1.901      3.413
REMARK  3 active torsions:
REMARK  status: ('A' for Active; 'I' for Inactive)
REMARK    1  A    between atoms: C3_5  and  C4_6
REMARK    2  A    between atoms: C3_5  and  C8_19
REMARK    3  A    between atoms: C5_9  and  N3_10
ROOT
HETATM    1  N1  UNL     1      -1.187  12.138  26.637  1.00  0.00    -0.190 NA
HETATM    2  C1  UNL     1      -1.229  10.974  26.508  1.00  0.00     0.112 C
HETATM    3  C2  UNL     1      -1.291   9.559  26.394  1.00  0.00     0.122 C
HETATM    4 CL1  UNL     1      -2.786   8.788  26.927  1.00  0.00    -0.072 Cl
HETATM    5  C3  UNL     1      -0.292   8.871  25.918  1.00  0.00     0.007 C
ENDROOT
BRANCH   5   6
HETATM    6  C4  UNL     1       0.912   9.531  25.483  1.00  0.00     0.079 A
HETATM    7  N2  UNL     1       1.611  10.325  26.320  1.00  0.00    -0.190 N
HETATM    8  C5  UNL     1       2.739  10.945  26.029  1.00  0.00     0.677 A
ATOM      9  H2  UNL     1       1.236  10.458  27.258  1.00  0.00     0.184 HD
HETATM   10  N4  UNL     1       3.302  10.820  24.802  1.00  0.00    -0.178 N
HETATM   11  C6  UNL     1       2.660  10.041  23.913  1.00  0.00     0.151 A
ATOM     12  H4  UNL     1       4.173  11.294  24.564  1.00  0.00     0.185 HD
HETATM   13  N5  UNL     1       3.196   9.876  22.615  1.00  0.00    -0.081 NA
HETATM   14  C7  UNL     1       1.464   9.385  24.227  1.00  0.00     0.080 A
HETATM   15 BR1  UNL     1       0.688   8.247  22.907  1.00  0.00    -0.045 Br
BRANCH   8  16
HETATM   16  N3  UNL     1       3.329  11.683  26.908  1.00  0.00    -0.234 N
ATOM     17  H32 UNL     1       3.158  11.499  27.897  1.00  0.00     0.174 HD
ATOM     18  H31 UNL     1       3.954  12.435  26.620  1.00  0.00     0.174 HD
ENDBRANCH   8  16
ENDBRANCH   5   6
BRANCH   5  19
HETATM   19  C8  UNL     1      -0.444   7.392  25.830  1.00  0.00     0.023 C
HETATM   20  C9  UNL     1      -0.099   6.748  27.156  1.00  0.00     0.009 C
HETATM   21  C10 UNL     1      -0.330   5.276  27.075  1.00  0.00     0.001 C
HETATM   22  C11 UNL     1      -1.694   4.900  26.584  1.00  0.00     0.000 C
HETATM   23  C12 UNL     1      -1.890   5.515  25.212  1.00  0.00     0.001 C
HETATM   24  C13 UNL     1      -1.821   7.025  25.390  1.00  0.00     0.009 C
ENDBRANCH   5  19
TORSDOF 3
ENDMDL