MODEL 4
REMARK VINA RESULT: -7.352753885      3.393      8.357
REMARK  3 active torsions:
REMARK  status: ('A' for Active; 'I' for Inactive)
REMARK    1  A    between atoms: C4_6  and  C5_7
REMARK    2  A    between atoms: C7_11  and  C8_12
REMARK    3  A    between atoms: C15_27  and  N6_28
ROOT
HETATM    1  C1  UNL     1      -0.099   1.879  26.953  1.00  0.00     0.018 C
HETATM    2  C2  UNL     1      -1.480   2.468  26.672  1.00  0.00     0.053 C
HETATM    3  C3  UNL     1      -1.397   3.915  27.003  1.00  0.00     0.027 A
HETATM    4  N1  UNL     1      -0.705   4.904  26.406  1.00  0.00    -0.343 N
ATOM      5  H1  UNL     1      -0.133   4.674  25.593  1.00  0.00     0.167 HD
HETATM    6  C4  UNL     1      -0.732   6.176  26.828  1.00  0.00     0.135 A
HETATM    7  N5  UNL     1      -1.501   6.445  27.906  1.00  0.00    -0.331 N
ATOM      8  H5  UNL     1      -1.543   7.405  28.249  1.00  0.00     0.168 HD
HETATM    9  C13 UNL     1      -2.216   5.495  28.546  1.00  0.00     0.115 A
HETATM   10 CL1  UNL     1      -3.211   5.872  29.949  1.00  0.00    -0.064 Cl
HETATM   11  C14 UNL     1      -2.176   4.205  28.102  1.00  0.00     0.035 A
HETATM   12  C15 UNL     1      -2.846   2.977  28.597  1.00  0.00     0.240 C
HETATM   13  C16 UNL     1      -2.487   1.897  27.613  1.00  0.00     0.127 C
HETATM   14 CL2  UNL     1      -1.826   0.460  28.428  1.00  0.00    -0.122 Cl
ENDROOT
BRANCH   6  15
HETATM   15  C5  UNL     1       0.030   7.233  26.160  1.00  0.00     0.093 A
HETATM   16  C6  UNL     1       0.929   6.979  25.148  1.00  0.00     0.122 A
HETATM   17  N2  UNL     1       1.446   8.154  24.763  1.00  0.00    -0.353 N
HETATM   18  C7  UNL     1       0.883   9.104  25.517  1.00  0.00     0.086 A
ATOM     19  H2  UNL     1       2.141   8.298  24.031  1.00  0.00     0.166 HD
HETATM   20  N4  UNL     1       0.029   8.539  26.358  1.00  0.00    -0.341 N
ATOM     21  H4  UNL     1      -0.537   9.033  27.048  1.00  0.00     0.167 HD
BRANCH  18  22
HETATM   22  C8  UNL     1       1.232  10.561  25.359  1.00  0.00     0.056 C
HETATM   23  C9  UNL     1       0.286  11.329  26.253  1.00  0.00     0.040 C
HETATM   24  C10 UNL     1       0.739  12.757  26.457  1.00  0.00     0.233 C
HETATM   25  N3  UNL     1       2.125  12.868  26.785  1.00  0.00    -0.075 N
HETATM   26  C11 UNL     1       2.717  11.593  27.054  1.00  0.00     0.233 C
ATOM     27  H32 UNL     1       2.639  13.368  26.059  1.00  0.00     0.277 HD
ATOM     28  H31 UNL     1       2.271  13.514  27.560  1.00  0.00     0.277 HD
HETATM   29  C12 UNL     1       2.670  10.765  25.782  1.00  0.00     0.040 C
ENDBRANCH  18  22
ENDBRANCH   6  15
BRANCH  12  30
HETATM   30  N6  UNL     1      -4.288   3.141  28.566  1.00  0.00    -0.069 N
ATOM     31  H63 UNL     1      -4.616   3.758  29.308  1.00  0.00     0.275 HD
ATOM     32  H62 UNL     1      -4.590   3.695  27.765  1.00  0.00     0.275 HD
ATOM     33  H61 UNL     1      -4.749   2.232  28.594  1.00  0.00     0.275 HD
ENDBRANCH  12  30
TORSDOF 3
ENDMDL