MODEL 4
REMARK VINA RESULT: -6.765125570      1.956      2.730
REMARK  21 active torsions:
REMARK  status: ('A' for Active; 'I' for Inactive)
REMARK    1  A    between atoms: C1_2  and  C2_4
REMARK    2  A    between atoms: C2_4  and  N2_5
REMARK    3  A    between atoms: C2_4  and  C3_9
REMARK    4  A    between atoms: C3_9  and  S1_10
REMARK    5  A    between atoms: S1_10  and  C4_12
REMARK    6  A    between atoms: C4_12  and  C5_13
REMARK    7  A    between atoms: C5_13  and  C6_14
REMARK    8  A    between atoms: C6_14  and  N3_15
REMARK    9  A    between atoms: C8_20  and  S2_21
REMARK   10  A    between atoms: S2_21  and  C9_22
REMARK   11  A    between atoms: C9_22  and  C10_23
REMARK   12  A    between atoms: C10_23  and  C11_24
REMARK   13  A    between atoms: C11_24  and  C12_25
REMARK   14  A    between atoms: C12_25  and  C13_26
REMARK   15  A    between atoms: C13_26  and  C14_27
REMARK   16  A    between atoms: C14_27  and  O4_28
REMARK   17  A    between atoms: O4_28  and  C15_29
REMARK   18  A    between atoms: C21_35  and  O5_36
REMARK   19  A    between atoms: C22_38  and  O6_39
REMARK   20  A    between atoms: C23_41  and  C24_42
REMARK   21  A    between atoms: C24_42  and  O7_43
ROOT
HETATM    1  N3  UNL     1      -0.546   6.586  92.790  1.00  0.00    -0.302 N
HETATM    2  C7  UNL     1      -1.397   5.456  92.883  1.00  0.00     0.323 C
HETATM    3  O3  UNL     1      -2.336   5.374  92.013  1.00  0.00    -0.247 OA
HETATM    4  N4  UNL     1      -1.388   4.369  93.804  1.00  0.00    -0.327 N
ATOM      5  H4  UNL     1      -2.304   4.012  94.073  1.00  0.00     0.165 HD
HETATM    6  C8  UNL     1      -0.261   3.706  94.406  1.00  0.00     0.179 C
HETATM    7  C21 UNL     1       0.721   4.692  94.999  1.00  0.00     0.185 C
HETATM    8  C22 UNL     1       1.304   5.701  94.125  1.00  0.00     0.197 C
HETATM    9  C23 UNL     1       0.536   6.882  93.687  1.00  0.00     0.048 C
ENDROOT
BRANCH   1  10
HETATM   10  C6  UNL     1      -0.836   7.472  91.666  1.00  0.00     0.134 C
BRANCH  10  11
HETATM   11  C5  UNL     1       0.387   7.908  90.963  1.00  0.00     0.033 C
BRANCH  11  12
HETATM   12  C4  UNL     1       0.509   9.333  90.600  1.00  0.00     0.110 C
BRANCH  12  13
HETATM   13  S1  UNL     1       1.847  10.282  91.077  1.00  0.00     0.017 S
HETATM   14  O2  UNL     1       1.548  11.934  91.122  1.00  0.00    -0.258 OA
BRANCH  13  15
HETATM   15  C3  UNL     1       2.965   9.738  92.260  1.00  0.00     0.150 C
BRANCH  15  16
HETATM   16  C2  UNL     1       4.254  10.549  92.289  1.00  0.00     0.283 C
BRANCH  16  17
HETATM   17  C1  UNL     1       5.448   9.716  92.530  1.00  0.00     0.262 C
HETATM   18  N1  UNL     1       5.721   9.277  93.850  1.00  0.00    -0.060 NA
HETATM   19  O1  UNL     1       6.224   9.393  91.571  1.00  0.00    -0.275 OA
ENDBRANCH  16  17
BRANCH  16  20
HETATM   20  N2  UNL     1       4.450  11.308  91.075  1.00  0.00    -0.066 N
ATOM     21  H23 UNL     1       5.430  11.348  90.796  1.00  0.00     0.275 HD
ATOM     22  H22 UNL     1       4.087  10.827  90.252  1.00  0.00     0.275 HD
ATOM     23  H21 UNL     1       4.042  12.235  91.195  1.00  0.00     0.275 HD
ENDBRANCH  16  20
ENDBRANCH  15  16
ENDBRANCH  13  15
ENDBRANCH  12  13
ENDBRANCH  11  12
ENDBRANCH  10  11
ENDBRANCH   1  10
BRANCH   9  24
HETATM   24  C24 UNL     1       0.181   7.898  94.732  1.00  0.00     0.219 C
BRANCH  24  25
HETATM   25  O7  UNL     1       1.255   8.641  95.203  1.00  0.00    -0.395 OA
ATOM     26  H7  UNL     1       1.309   9.523  94.855  1.00  0.00     0.209 HD
ENDBRANCH  24  25
ENDBRANCH   9  24
BRANCH   8  27
HETATM   27  O6  UNL     1       2.497   6.158  94.702  1.00  0.00    -0.387 OA
ATOM     28  H6  UNL     1       2.413   7.088  94.877  1.00  0.00     0.210 HD
ENDBRANCH   8  27
BRANCH   6  29
HETATM   29  S2  UNL     1      -0.833   2.682  95.805  1.00  0.00    -0.141 SA
BRANCH  29  30
HETATM   30  C9  UNL     1      -2.552   3.079  96.150  1.00  0.00     0.076 C
BRANCH  30  31
HETATM   31  C10 UNL     1      -3.012   2.505  97.445  1.00  0.00     0.010 C
BRANCH  31  32
HETATM   32  C11 UNL     1      -3.413   3.647  98.396  1.00  0.00     0.001 C
BRANCH  32  33
HETATM   33  C12 UNL     1      -3.186   4.962  97.667  1.00  0.00     0.002 C
BRANCH  33  34
HETATM   34  C13 UNL     1      -3.928   6.107  98.247  1.00  0.00     0.027 C
BRANCH  34  35
HETATM   35  C14 UNL     1      -4.119   7.236  97.291  1.00  0.00     0.175 C
BRANCH  35  36
HETATM   36  O4  UNL     1      -3.348   6.920  96.112  1.00  0.00    -0.351 OA
BRANCH  36  37
HETATM   37  C15 UNL     1      -3.969   7.036  94.891  1.00  0.00     0.068 A
HETATM   38  C16 UNL     1      -3.744   8.088  94.035  1.00  0.00     0.037 A
HETATM   39  C17 UNL     1      -4.379   8.200  92.801  1.00  0.00     0.003 A
HETATM   40  C18 UNL     1      -5.272   7.232  92.401  1.00  0.00     0.000 A
HETATM   41  C19 UNL     1      -5.506   6.169  93.256  1.00  0.00     0.003 A
HETATM   42  C20 UNL     1      -4.870   6.069  94.475  1.00  0.00     0.037 A
ENDBRANCH  36  37
ENDBRANCH  35  36
ENDBRANCH  34  35
ENDBRANCH  33  34
ENDBRANCH  32  33
ENDBRANCH  31  32
ENDBRANCH  30  31
ENDBRANCH  29  30
ENDBRANCH   6  29
BRANCH   7  43
HETATM   43  O5  UNL     1       0.217   5.087  96.214  1.00  0.00    -0.390 OA
ATOM     44  H5  UNL     1       0.400   4.390  96.834  1.00  0.00     0.210 HD
ENDBRANCH   7  43
TORSDOF 21
ENDMDL