MODEL 4
REMARK VINA RESULT: -6.514868127      4.277      9.612
REMARK  18 active torsions:
REMARK  status: ('A' for Active; 'I' for Inactive)
REMARK    1  A    between atoms: C4_6  and  C5_7
REMARK    2  A    between atoms: C5_7  and  N2_8
REMARK       I    between atoms: C6_10  and  N4_12
REMARK    3  A    between atoms: N4_12  and  C7_14
REMARK    4  A    between atoms: C7_14  and  C8_15
REMARK    5  A    between atoms: C8_15  and  N5_16
REMARK    6  A    between atoms: N5_16  and  C9_19
REMARK    7  A    between atoms: C9_19  and  C10_20
REMARK    8  A    between atoms: C10_20  and  C11_21
REMARK    9  A    between atoms: C11_21  and  N6_22
REMARK   10  A    between atoms: N6_22  and  C12_25
REMARK   11  A    between atoms: C12_25  and  C13_26
REMARK   12  A    between atoms: C13_26  and  C14_27
REMARK   13  A    between atoms: C14_27  and  C15_28
REMARK   14  A    between atoms: C15_28  and  N7_29
REMARK   15  A    between atoms: N7_29  and  C16_32
REMARK   16  A    between atoms: C16_32  and  C17_33
REMARK   17  A    between atoms: C17_33  and  C18_34
REMARK   18  A    between atoms: C18_34  and  N8_35
ROOT
HETATM    1  C7  UNL     1       0.825   4.379  92.038  1.00  0.00     0.150 C
ENDROOT
BRANCH   1   2
HETATM    2  N4  UNL     1      -0.088   5.483  91.896  1.00  0.00    -0.363 N
HETATM    3  C6  UNL     1       0.325   6.801  92.204  1.00  0.00     0.184 C
HETATM    4  N2  UNL     1       0.427   7.790  91.424  1.00  0.00    -0.363 N
HETATM    5  N3  UNL     1       0.662   6.981  93.613  1.00  0.00    -0.064 NA
ATOM      6  H2  UNL     1       0.747   8.646  91.878  1.00  0.00     0.162 HD
ATOM      7  H4  UNL     1      -1.040   5.314  91.572  1.00  0.00     0.162 HD
BRANCH   4   8
HETATM    8  C5  UNL     1       0.178   7.928  90.036  1.00  0.00     0.142 C
BRANCH   8   9
HETATM    9  C4  UNL     1      -0.762   9.110  89.809  1.00  0.00     0.099 C
HETATM   10  S1  UNL     1      -0.553  10.326  91.121  1.00  0.00    -0.150 SA
HETATM   11  C3  UNL     1       0.728  11.487  90.676  1.00  0.00     0.082 C
HETATM   12  C2  UNL     1       1.946  11.175  91.516  1.00  0.00     0.141 C
HETATM   13  C25 UNL     1       1.175  11.496  89.281  1.00  0.00     0.127 C
HETATM   14  N1  UNL     1       3.006  10.852  90.595  1.00  0.00    -0.355 N
HETATM   15  C1  UNL     1       4.327  10.441  91.006  1.00  0.00     0.152 C
HETATM   16  C26 UNL     1       2.597  10.988  89.261  1.00  0.00     0.227 C
HETATM   17  O3  UNL     1       3.255  10.744  88.217  1.00  0.00    -0.273 OA
HETATM   18  C24 UNL     1       0.375  10.895  88.225  1.00  0.00     0.171 C
HETATM   19  C19 UNL     1      -0.474   9.750  88.503  1.00  0.00    -0.013 C
HETATM   20  O2  UNL     1      -0.378  11.820  87.477  1.00  0.00    -0.345 OA
HETATM   21  C20 UNL     1      -1.043   9.214  87.421  1.00  0.00     0.145 C
HETATM   22  O1  UNL     1      -0.725   9.874  86.228  1.00  0.00    -0.327 OA
HETATM   23  C21 UNL     1      -0.807  11.312  86.278  1.00  0.00     0.162 C
HETATM   24  C22 UNL     1      -0.189  11.951  85.062  1.00  0.00     0.079 C
HETATM   25  C23 UNL     1      -2.310  11.638  86.197  1.00  0.00     0.079 C
ENDBRANCH   8   9
ENDBRANCH   4   8
ENDBRANCH   1   2
BRANCH   1  26
HETATM   26  C8  UNL     1       0.252   3.437  93.102  1.00  0.00     0.251 C
BRANCH  26  27
HETATM   27  N5  UNL     1       0.316   4.009  94.403  1.00  0.00    -0.074 N
ATOM     28  H52 UNL     1       1.211   3.821  94.856  1.00  0.00     0.277 HD
ATOM     29  H51 UNL     1       0.375   5.027  94.366  1.00  0.00     0.277 HD
BRANCH  27  30
HETATM   30  C9  UNL     1      -0.792   3.566  95.207  1.00  0.00     0.234 C
BRANCH  30  31
HETATM   31  C10 UNL     1      -0.287   2.529  96.191  1.00  0.00     0.055 C
BRANCH  31  32
HETATM   32  C11 UNL     1      -1.572   1.973  96.847  1.00  0.00     0.233 C
BRANCH  32  33
HETATM   33  N6  UNL     1      -2.637   2.377  95.992  1.00  0.00    -0.075 N
ATOM     34  H62 UNL     1      -2.351   3.131  95.366  1.00  0.00     0.277 HD
ATOM     35  H61 UNL     1      -2.846   1.665  95.292  1.00  0.00     0.277 HD
BRANCH  33  36
HETATM   36  C12 UNL     1      -3.803   2.734  96.749  1.00  0.00     0.232 C
BRANCH  36  37
HETATM   37  C13 UNL     1      -3.387   3.222  98.102  1.00  0.00     0.029 C
BRANCH  37  38
HETATM   38  C14 UNL     1      -3.996   4.575  98.429  1.00  0.00     0.029 C
BRANCH  38  39
HETATM   39  C15 UNL     1      -3.800   5.531  97.257  1.00  0.00     0.232 C
BRANCH  39  40
HETATM   40  N7  UNL     1      -2.451   6.086  97.298  1.00  0.00    -0.075 N
ATOM     41  H72 UNL     1      -2.251   6.483  98.217  1.00  0.00     0.277 HD
ATOM     42  H71 UNL     1      -1.752   5.343  97.279  1.00  0.00     0.277 HD
BRANCH  40  43
HETATM   43  C16 UNL     1      -2.203   7.043  96.268  1.00  0.00     0.233 C
BRANCH  43  44
HETATM   44  C17 UNL     1      -1.886   8.380  96.946  1.00  0.00     0.055 C
BRANCH  44  45
HETATM   45  C18 UNL     1      -0.510   8.378  97.558  1.00  0.00     0.231 C
BRANCH  45  46
HETATM   46  N8  UNL     1       0.444   8.124  96.487  1.00  0.00    -0.079 N
ATOM     47  H83 UNL     1       0.002   7.780  95.634  1.00  0.00     0.274 HD
ATOM     48  H82 UNL     1       0.841   8.979  96.096  1.00  0.00     0.274 HD
ATOM     49  H81 UNL     1       1.152   7.487  96.853  1.00  0.00     0.274 HD
ENDBRANCH  45  46
ENDBRANCH  44  45
ENDBRANCH  43  44
ENDBRANCH  40  43
ENDBRANCH  39  40
ENDBRANCH  38  39
ENDBRANCH  37  38
ENDBRANCH  36  37
ENDBRANCH  33  36
ENDBRANCH  32  33
ENDBRANCH  31  32
ENDBRANCH  30  31
ENDBRANCH  27  30
ENDBRANCH  26  27
ENDBRANCH   1  26
TORSDOF 18
ENDMDL