MODEL 2
REMARK VINA RESULT: -7.138051326      2.420      3.681
REMARK  19 active torsions:
REMARK  status: ('A' for Active; 'I' for Inactive)
REMARK    1  A    between atoms: C2_2  and  C3_3
REMARK    2  A    between atoms: C3_3  and  N1_4
REMARK    3  A    between atoms: N1_4  and  C4_5
REMARK       I    between atoms: N1_4  and  C23_41
REMARK    4  A    between atoms: C4_5  and  C5_6
REMARK    5  A    between atoms: C5_6  and  N2_7
REMARK    6  A    between atoms: C6_8  and  C7_9
REMARK    7  A    between atoms: C7_9  and  C8_10
REMARK    8  A    between atoms: C8_10  and  C9_11
REMARK    9  A    between atoms: C9_11  and  N3_12
REMARK   10  A    between atoms: C12_20  and  N7_21
REMARK   11  A    between atoms: N7_21  and  C13_23
REMARK   12  A    between atoms: C13_23  and  C14_24
REMARK   13  A    between atoms: C14_24  and  C15_25
REMARK   14  A    between atoms: C15_25  and  O1_26
REMARK   15  A    between atoms: O1_26  and  C16_27
REMARK   16  A    between atoms: C18_29  and  N8_30
REMARK       I    between atoms: N8_30  and  C19_32
REMARK   17  A    between atoms: C20_38  and  C21_39
REMARK   18  A    between atoms: C23_41  and  C24_43
REMARK   19  A    between atoms: C24_43  and  N11_44
ROOT
HETATM    1  N2  UNL     1      -0.365   7.181  94.307  1.00  0.00    -0.374 N
HETATM    2  C6  UNL     1       0.884   7.162  93.609  1.00  0.00     0.102 C
HETATM    3  C11 UNL     1       1.845   6.194  94.200  1.00  0.00     0.146 C
HETATM    4  N6  UNL     1       1.126   5.063  94.835  1.00  0.00    -0.376 N
ATOM      5  H6  UNL     1       1.480   4.115  94.713  1.00  0.00     0.160 HD
HETATM    6  C12 UNL     1       0.043   5.258  95.553  1.00  0.00     0.096 C
HETATM    7  C20 UNL     1      -0.396   6.659  95.637  1.00  0.00     0.150 C
ENDROOT
BRANCH   6   8
HETATM    8  N7  UNL     1      -0.623   4.158  96.138  1.00  0.00    -0.378 N
ATOM      9  H7  UNL     1      -1.154   4.340  96.990  1.00  0.00     0.160 HD
BRANCH   8  10
HETATM   10  C13 UNL     1      -0.624   2.817  95.650  1.00  0.00     0.123 C
BRANCH  10  11
HETATM   11  C14 UNL     1      -1.426   1.952  96.601  1.00  0.00     0.046 C
BRANCH  11  12
HETATM   12  C15 UNL     1      -2.840   2.401  96.783  1.00  0.00     0.179 C
BRANCH  12  13
HETATM   13  O1  UNL     1      -2.892   3.110  98.008  1.00  0.00    -0.329 OA
BRANCH  13  14
HETATM   14  C16 UNL     1      -3.410   4.380  98.151  1.00  0.00     0.210 A
HETATM   15  C17 UNL     1      -4.374   4.818  99.015  1.00  0.00     0.116 A
HETATM   16  C18 UNL     1      -4.571   6.184  98.793  1.00  0.00     0.134 A
HETATM   17  N10 UNL     1      -3.704   6.471  97.802  1.00  0.00    -0.242 N
HETATM   18  O3  UNL     1      -3.045   5.424  97.445  1.00  0.00    -0.211 OA
ATOM     19  H10 UNL     1      -3.585   7.397  97.390  1.00  0.00     0.196 HD
BRANCH  16  20
HETATM   20  N8  UNL     1      -5.396   6.967  99.401  1.00  0.00    -0.296 N
HETATM   21  C19 UNL     1      -5.771   8.179  98.736  1.00  0.00     0.334 C
HETATM   22  N9  UNL     1      -6.725   8.087  97.692  1.00  0.00    -0.040 NA
HETATM   23  O2  UNL     1      -5.237   9.248  99.113  1.00  0.00    -0.251 OA
ATOM     24  H8  UNL     1      -5.767   6.732 100.322  1.00  0.00     0.171 HD
ENDBRANCH  16  20
ENDBRANCH  13  14
ENDBRANCH  12  13
ENDBRANCH  11  12
ENDBRANCH  10  11
ENDBRANCH   8  10
ENDBRANCH   6   8
BRANCH   7  25
HETATM   25  C21 UNL     1       0.301   7.542  96.608  1.00  0.00     0.028 C
HETATM   26  C22 UNL     1      -0.534   8.422  97.466  1.00  0.00     0.007 C
ENDBRANCH   7  25
BRANCH   1  27
HETATM   27  C5  UNL     1      -1.507   7.693  93.724  1.00  0.00     0.079 C
BRANCH  27  28
HETATM   28  C4  UNL     1      -2.807   7.298  94.385  1.00  0.00     0.169 C
BRANCH  28  29
HETATM   29  N1  UNL     1      -3.902   8.178  94.160  1.00  0.00    -0.346 N
HETATM   30  C23 UNL     1      -4.201   9.184  95.130  1.00  0.00     0.245 C
HETATM   31  O4  UNL     1      -3.476   9.296  96.138  1.00  0.00    -0.272 OA
BRANCH  29  32
HETATM   32  C3  UNL     1      -4.750   8.089  93.021  1.00  0.00     0.126 C
BRANCH  32  33
HETATM   33  C2  UNL     1      -4.855   6.743  92.377  1.00  0.00     0.015 C
HETATM   34  C1  UNL     1      -4.196   6.789  90.986  1.00  0.00     0.006 C
ENDBRANCH  32  33
ENDBRANCH  29  32
BRANCH  30  35
HETATM   35  C24 UNL     1      -5.354  10.109  94.985  1.00  0.00     0.332 C
BRANCH  35  36
HETATM   36  N11 UNL     1      -5.700  10.693  96.265  1.00  0.00    -0.071 N
ATOM     37 3H11 UNL     1      -6.437  10.168  96.736  1.00  0.00     0.274 HD
ATOM     38 2H11 UNL     1      -4.958  10.564  96.954  1.00  0.00     0.274 HD
ATOM     39 1H11 UNL     1      -5.947  11.677  96.153  1.00  0.00     0.274 HD
ENDBRANCH  35  36
ENDBRANCH  30  35
ENDBRANCH  28  29
ENDBRANCH  27  28
ENDBRANCH   1  27
BRANCH   2  40
HETATM   40  C7  UNL     1       1.461   8.497  93.384  1.00  0.00     0.028 C
BRANCH  40  41
HETATM   41  C8  UNL     1       2.520   9.002  94.277  1.00  0.00     0.022 C
BRANCH  41  42
HETATM   42  C9  UNL     1       3.729   9.664  93.765  1.00  0.00     0.122 C
BRANCH  42  43
HETATM   43  N3  UNL     1       4.599   9.861  94.968  1.00  0.00    -0.367 N
HETATM   44  C10 UNL     1       4.895  11.055  95.299  1.00  0.00     0.196 C
HETATM   45  N4  UNL     1       4.401  12.141  94.533  1.00  0.00    -0.067 NA
HETATM   46  N5  UNL     1       5.717  11.331  96.430  1.00  0.00    -0.067 NA
ATOM     47  H3  UNL     1       4.943   9.065  95.505  1.00  0.00     0.161 HD
ENDBRANCH  42  43
ENDBRANCH  41  42
ENDBRANCH  40  41
ENDBRANCH   2  40
TORSDOF 19
ENDMDL