MODEL 3
REMARK VINA RESULT: -7.767256462      1.518      2.563
REMARK  18 active torsions:
REMARK  status: ('A' for Active; 'I' for Inactive)
REMARK    1  A    between atoms: C2_2  and  C3_3
REMARK    2  A    between atoms: C3_3  and  N1_4
REMARK    3  A    between atoms: N1_4  and  C4_5
REMARK    4  A    between atoms: N1_4  and  C7_8
REMARK    5  A    between atoms: C4_5  and  C5_6
REMARK    6  A    between atoms: C7_8  and  C8_9
REMARK    7  A    between atoms: C8_9  and  N2_10
REMARK    8  A    between atoms: N3_13  and  C11_14
REMARK    9  A    between atoms: C11_14  and  C12_15
REMARK   10  A    between atoms: C12_15  and  C13_16
REMARK   11  A    between atoms: C12_15  and  N7_26
REMARK   12  A    between atoms: C13_16  and  C14_17
REMARK   13  A    between atoms: C14_17  and  C15_18
REMARK   14  A    between atoms: C15_18  and  N4_19
REMARK       I    between atoms: N4_19  and  C16_21
REMARK       I    between atoms: N7_26  and  C17_28
REMARK   15  A    between atoms: C17_28  and  C18_30
REMARK   16  A    between atoms: C18_30  and  N8_31
REMARK   17  A    between atoms: C19_34  and  C20_35
REMARK   18  A    between atoms: C25_44  and  N12_45
ROOT
HETATM    1  C12 UNL     1      -0.174   6.770  92.754  1.00  0.00     0.113 C
ENDROOT
BRANCH   1   2
HETATM    2  C11 UNL     1      -1.414   6.241  91.944  1.00  0.00     0.299 C
BRANCH   2   3
HETATM    3  N3  UNL     1      -2.508   6.184  92.823  1.00  0.00     0.109 N
HETATM    4  C10 UNL     1      -3.782   6.040  92.170  1.00  0.00     0.294 C
HETATM    5  C9  UNL     1      -4.761   6.614  93.235  1.00  0.00     0.154 C
HETATM    6  N2  UNL     1      -3.991   7.599  93.864  1.00  0.00    -0.365 N
HETATM    7  C26 UNL     1      -2.607   7.442  93.599  1.00  0.00     0.397 C
BRANCH   6   8
HETATM    8  C8  UNL     1      -4.411   8.245  95.031  1.00  0.00     0.090 C
BRANCH   8   9
HETATM    9  C7  UNL     1      -4.623   7.291  96.198  1.00  0.00     0.317 C
BRANCH   9  10
HETATM   10  N1  UNL     1      -4.034   7.754  97.432  1.00  0.00     0.096 N
BRANCH  10  11
HETATM   11  C3  UNL     1      -3.707   6.643  98.314  1.00  0.00     0.299 C
BRANCH  11  12
HETATM   12  C2  UNL     1      -3.526   5.370  97.567  1.00  0.00    -0.007 C
HETATM   13  C1  UNL     1      -3.414   4.211  98.242  1.00  0.00     0.008 C
ENDBRANCH  11  12
ENDBRANCH  10  11
BRANCH  10  14
HETATM   14  C4  UNL     1      -2.825   8.487  97.101  1.00  0.00     0.273 C
BRANCH  14  15
HETATM   15  C5  UNL     1      -1.899   8.657  98.256  1.00  0.00     0.026 C
HETATM   16  C6  UNL     1      -0.467   8.438  97.691  1.00  0.00     0.007 C
ENDBRANCH  14  15
ENDBRANCH  10  14
ENDBRANCH   9  10
ENDBRANCH   8   9
ENDBRANCH   6   8
ENDBRANCH   2   3
ENDBRANCH   1   2
BRANCH   1  17
HETATM   17  C13 UNL     1       0.459   5.655  93.458  1.00  0.00     0.028 C
BRANCH  17  18
HETATM   18  C14 UNL     1       0.590   5.801  94.920  1.00  0.00     0.022 C
BRANCH  18  19
HETATM   19  C15 UNL     1      -0.293   5.051  95.840  1.00  0.00     0.122 C
BRANCH  19  20
HETATM   20  N4  UNL     1       0.069   3.703  96.126  1.00  0.00    -0.365 N
HETATM   21  C16 UNL     1      -0.547   2.616  95.462  1.00  0.00     0.181 C
HETATM   22  N5  UNL     1       0.016   2.195  94.353  1.00  0.00    -0.374 N
HETATM   23  N6  UNL     1      -1.728   1.986  95.883  1.00  0.00    -0.064 NA
ATOM     24  H52 UNL     1       0.874   2.653  94.046  1.00  0.00     0.158 HD
ATOM     25  H51 UNL     1      -0.428   1.412  93.874  1.00  0.00     0.158 HD
ATOM     26  H4  UNL     1       0.787   3.517  96.825  1.00  0.00     0.162 HD
ENDBRANCH  19  20
ENDBRANCH  18  19
ENDBRANCH  17  18
ENDBRANCH   1  17
BRANCH   1  27
HETATM   27  N7  UNL     1       0.658   7.409  91.775  1.00  0.00    -0.353 N
HETATM   28  C17 UNL     1       0.616   8.876  91.709  1.00  0.00     0.238 C
HETATM   29  O1  UNL     1      -0.176   9.440  92.505  1.00  0.00    -0.272 OA
ATOM     30  H7  UNL     1       1.255   6.866  91.150  1.00  0.00     0.163 HD
BRANCH  28  31
HETATM   31  C18 UNL     1       1.478   9.543  90.758  1.00  0.00     0.270 C
BRANCH  31  32
HETATM   32  N8  UNL     1       2.624  10.139  91.398  1.00  0.00    -0.114 N
HETATM   33  N9  UNL     1       2.796  10.282  92.720  1.00  0.00    -0.266 N
HETATM   34  C19 UNL     1       3.946  10.939  92.937  1.00  0.00     0.163 A
ATOM     35  H9  UNL     1       2.158   9.947  93.442  1.00  0.00     0.189 HD
HETATM   36  N11 UNL     1       4.504  11.216  91.759  1.00  0.00    -0.172 N
HETATM   37  C25 UNL     1       3.664  10.709  90.819  1.00  0.00     0.694 A
ATOM     38  H11 UNL     1       5.382  11.708  91.596  1.00  0.00     0.186 HD
BRANCH  34  39
HETATM   39  C20 UNL     1       4.460  11.326  94.259  1.00  0.00     0.078 A
HETATM   40  C21 UNL     1       5.141  10.423  95.010  1.00  0.00     0.033 A
HETATM   41  C22 UNL     1       5.595  10.754  96.286  1.00  0.00     0.004 A
HETATM   42  C23 UNL     1       5.348  12.002  96.777  1.00  0.00     0.017 A
HETATM   43  C24 UNL     1       4.639  12.906  95.968  1.00  0.00     0.088 A
HETATM   44  N10 UNL     1       4.211  12.559  94.732  1.00  0.00    -0.363 N
ATOM     45  H10 UNL     1       3.699  13.231  94.160  1.00  0.00     0.165 HD
ENDBRANCH  34  39
BRANCH  37  46
HETATM   46  N12 UNL     1       3.897  10.782  89.530  1.00  0.00    -0.233 N
ATOM     47 2H12 UNL     1       4.400  10.062  89.011  1.00  0.00     0.174 HD
ATOM     48 1H12 UNL     1       3.608  11.531  88.901  1.00  0.00     0.174 HD
ENDBRANCH  37  46
ENDBRANCH  31  32
ENDBRANCH  28  31
ENDBRANCH   1  27
TORSDOF 18
ENDMDL