MODEL 5
REMARK VINA RESULT: -7.061149071      1.433      3.213
REMARK  19 active torsions:
REMARK  status: ('A' for Active; 'I' for Inactive)
REMARK    1  A    between atoms: C2_2  and  C3_3
REMARK    2  A    between atoms: C3_3  and  N1_4
REMARK    3  A    between atoms: N1_4  and  C4_5
REMARK    4  A    between atoms: N1_4  and  C19_41
REMARK    5  A    between atoms: N2_6  and  C5_8
REMARK    6  A    between atoms: C5_8  and  C6_9
REMARK    7  A    between atoms: C6_9  and  C7_10
REMARK    8  A    between atoms: C7_10  and  N3_11
REMARK    9  A    between atoms: N3_11  and  N4_13
REMARK       I    between atoms: C8_15  and  N6_17
REMARK   10  A    between atoms: N6_17  and  C9_19
REMARK   11  A    between atoms: N7_21  and  C11_23
REMARK   12  A    between atoms: C11_23  and  C12_24
REMARK   13  A    between atoms: C12_24  and  C13_25
REMARK   14  A    between atoms: C13_25  and  C14_26
REMARK       I    between atoms: C14_26  and  N8_28
REMARK   15  A    between atoms: N8_28  and  C15_30
REMARK   16  A    between atoms: C18_33  and  N9_34
REMARK   17  A    between atoms: C19_41  and  C20_42
REMARK   18  A    between atoms: C20_42  and  C21_43
REMARK   19  A    between atoms: C21_43  and  N12_44
ROOT
HETATM    1  N4  UNL     1      -0.347   3.657  93.224  1.00  0.00    -0.278 N
ATOM      2  H4  UNL     1      -0.354   2.846  92.606  1.00  0.00     0.189 HD
HETATM    3  C8  UNL     1       0.321   4.706  92.917  1.00  0.00     0.208 C
HETATM    4  N5  UNL     1       1.050   4.730  91.708  1.00  0.00    -0.062 NA
HETATM    5  N6  UNL     1       0.312   5.816  93.790  1.00  0.00    -0.320 N
ATOM      6  H6  UNL     1      -0.516   5.953  94.368  1.00  0.00     0.169 HD
ENDROOT
BRANCH   1   7
HETATM    7  N3  UNL     1      -1.061   3.645  94.417  1.00  0.00    -0.334 N
ATOM      8  H3  UNL     1      -1.896   4.221  94.523  1.00  0.00     0.180 HD
BRANCH   7   9
HETATM    9  C7  UNL     1      -0.612   2.810  95.503  1.00  0.00     0.141 C
BRANCH   9  10
HETATM   10  C6  UNL     1      -1.751   1.853  95.864  1.00  0.00     0.041 C
BRANCH  10  11
HETATM   11  C5  UNL     1      -1.917   2.013  97.386  1.00  0.00     0.122 C
BRANCH  11  12
HETATM   12  N2  UNL     1      -2.571   3.306  97.541  1.00  0.00    -0.386 N
HETATM   13  C4  UNL     1      -3.820   3.387  97.258  1.00  0.00     0.173 C
ATOM     14  H2  UNL     1      -2.052   4.122  97.865  1.00  0.00     0.160 HD
BRANCH  13  15
HETATM   15  N1  UNL     1      -4.470   4.638  97.406  1.00  0.00    -0.377 N
BRANCH  15  16
HETATM   16  C3  UNL     1      -4.183   5.427  98.606  1.00  0.00     0.123 C
BRANCH  16  17
HETATM   17  C2  UNL     1      -5.287   5.379  99.608  1.00  0.00     0.015 C
HETATM   18  C1  UNL     1      -5.976   6.731  99.596  1.00  0.00     0.006 C
ENDBRANCH  16  17
ENDBRANCH  15  16
BRANCH  15  19
HETATM   19  C19 UNL     1      -5.413   5.074  96.433  1.00  0.00     0.125 C
BRANCH  19  20
HETATM   20  C20 UNL     1      -5.180   6.365  95.763  1.00  0.00     0.039 C
BRANCH  20  21
HETATM   21  C21 UNL     1      -3.877   6.442  95.013  1.00  0.00     0.123 C
BRANCH  21  22
HETATM   22  N12 UNL     1      -3.109   7.606  95.480  1.00  0.00    -0.367 N
HETATM   23  C22 UNL     1      -1.981   7.418  96.045  1.00  0.00     0.196 C
HETATM   24  N13 UNL     1      -1.210   8.510  96.509  1.00  0.00    -0.067 NA
HETATM   25  N14 UNL     1      -1.480   6.117  96.217  1.00  0.00    -0.067 NA
ATOM     26  H12 UNL     1      -3.473   8.550  95.353  1.00  0.00     0.161 HD
ENDBRANCH  21  22
ENDBRANCH  20  21
ENDBRANCH  19  20
ENDBRANCH  15  19
ENDBRANCH  13  15
ENDBRANCH  11  12
ENDBRANCH  10  11
ENDBRANCH   9  10
ENDBRANCH   7   9
ENDBRANCH   1   7
BRANCH   5  27
HETATM   27  C9  UNL     1       1.368   6.757  93.927  1.00  0.00     0.075 C
HETATM   28  C10 UNL     1       2.629   6.256  94.552  1.00  0.00     0.089 C
HETATM   29  N7  UNL     1       1.209   7.947  93.528  1.00  0.00    -0.380 N
ATOM     30  H7  UNL     1       1.965   8.625  93.626  1.00  0.00     0.160 HD
BRANCH  29  31
HETATM   31  C11 UNL     1      -0.049   8.344  92.932  1.00  0.00     0.121 C
BRANCH  31  32
HETATM   32  C12 UNL     1       0.258   9.564  92.053  1.00  0.00     0.029 C
BRANCH  32  33
HETATM   33  C13 UNL     1       1.436   9.246  91.158  1.00  0.00     0.105 C
BRANCH  33  34
HETATM   34  C14 UNL     1       2.179  10.492  90.863  1.00  0.00     0.223 C
HETATM   35  O1  UNL     1       1.575  11.492  90.430  1.00  0.00    -0.273 OA
HETATM   36  N8  UNL     1       3.603  10.501  91.092  1.00  0.00    -0.312 N
ATOM     37  H8  UNL     1       4.268  10.308  90.343  1.00  0.00     0.170 HD
BRANCH  36  38
HETATM   38  C15 UNL     1       3.999  10.773  92.317  1.00  0.00     0.122 A
HETATM   39  C16 UNL     1       4.878   9.947  92.975  1.00  0.00     0.054 A
HETATM   40  C17 UNL     1       5.296  10.242  94.247  1.00  0.00     0.060 A
HETATM   41  C18 UNL     1       4.796  11.396  94.819  1.00  0.00     0.188 A
HETATM   42  N10 UNL     1       3.926  12.185  94.126  1.00  0.00    -0.279 N
HETATM   43  N11 UNL     1       3.535  11.881  92.902  1.00  0.00    -0.284 N
ATOM     44  H10 UNL     1       3.567  13.033  94.566  1.00  0.00     0.189 HD
ATOM     45  H11 UNL     1       2.883  12.488  92.406  1.00  0.00     0.188 HD
BRANCH  41  46
HETATM   46  N9  UNL     1       5.189  11.769  96.127  1.00  0.00    -0.097 N
HETATM   47  O2  UNL     1       4.853  12.871  96.634  1.00  0.00    -0.530 OA
HETATM   48  O3  UNL     1       5.958  10.911  96.865  1.00  0.00    -0.530 OA
ENDBRANCH  41  46
ENDBRANCH  36  38
ENDBRANCH  33  34
ENDBRANCH  32  33
ENDBRANCH  31  32
ENDBRANCH  29  31
ENDBRANCH   5  27
TORSDOF 19
ENDMDL