MODEL 1
REMARK VINA RESULT: -7.652990847      0.000      0.000
REMARK  16 active torsions:
REMARK  status: ('A' for Active; 'I' for Inactive)
REMARK    1  A    between atoms: C2_2  and  C3_3
REMARK    2  A    between atoms: C5_8  and  C6_9
REMARK    3  A    between atoms: C6_9  and  O1_10
REMARK    4  A    between atoms: O1_10  and  C7_11
REMARK    5  A    between atoms: C7_11  and  N2_12
REMARK    6  A    between atoms: C14_27  and  N5_28
REMARK       I    between atoms: N5_28  and  C15_30
REMARK    7  A    between atoms: C15_30  and  C16_32
REMARK    8  A    between atoms: C16_32  and  C17_33
REMARK    9  A    between atoms: C17_33  and  C18_34
REMARK   10  A    between atoms: C18_34  and  C19_35
REMARK   11  A    between atoms: C19_35  and  C20_36
REMARK   12  A    between atoms: C20_36  and  C21_37
REMARK   13  A    between atoms: C21_37  and  C22_38
REMARK   14  A    between atoms: C22_38  and  C23_39
REMARK   15  A    between atoms: C23_39  and  C24_40
REMARK   16  A    between atoms: C24_40  and  N6_41
ROOT
HETATM    1  C3  UNL     1      -0.771   7.492  96.802  1.00  0.00     0.211 C
HETATM    2  N1  UNL     1       0.369   7.499  95.927  1.00  0.00    -0.061 N
ATOM      3  H11 UNL     1       1.076   6.817  96.203  1.00  0.00     0.278 HD
ATOM      4  H12 UNL     1       0.937   8.340  96.032  1.00  0.00     0.278 HD
HETATM    5  C4  UNL     1      -0.079   7.310  94.598  1.00  0.00     0.230 C
HETATM    6  C5  UNL     1       0.569   8.283  93.635  1.00  0.00     0.113 C
HETATM    7  C10 UNL     1      -0.016   7.950  92.287  1.00  0.00     0.137 C
HETATM    8  O4  UNL     1       0.827   7.577  91.491  1.00  0.00    -0.297 OA
HETATM    9  C11 UNL     1      -1.429   8.042  91.911  1.00  0.00     0.105 C
HETATM   10  C12 UNL     1      -2.294   6.968  92.456  1.00  0.00     0.175 C
HETATM   11  O5  UNL     1      -2.231   6.716  93.785  1.00  0.00    -0.381 OA
HETATM   12  C13 UNL     1      -1.567   7.640  94.571  1.00  0.00     0.177 C
HETATM   13  C14 UNL     1      -2.020   7.600  96.005  1.00  0.00     0.146 C
ENDROOT
BRANCH  13  14
HETATM   14  N5  UNL     1      -2.943   6.503  96.246  1.00  0.00    -0.352 N
HETATM   15  C15 UNL     1      -4.337   6.737  96.296  1.00  0.00     0.218 C
HETATM   16  O6  UNL     1      -4.771   7.888  96.133  1.00  0.00    -0.274 OA
ATOM     17  H5  UNL     1      -2.583   5.558  96.380  1.00  0.00     0.163 HD
BRANCH  15  18
HETATM   18  C16 UNL     1      -5.252   5.620  96.539  1.00  0.00     0.103 C
BRANCH  18  19
HETATM   19  C17 UNL     1      -4.951   4.357  95.815  1.00  0.00     0.009 C
BRANCH  19  20
HETATM   20  C18 UNL     1      -5.083   3.102  96.610  1.00  0.00     0.000 C
BRANCH  20  21
HETATM   21  C19 UNL     1      -4.677   3.386  98.052  1.00  0.00     0.000 C
BRANCH  21  22
HETATM   22  C20 UNL     1      -3.170   3.255  98.170  1.00  0.00     0.000 C
BRANCH  22  23
HETATM   23  C21 UNL     1      -2.680   1.924  97.684  1.00  0.00     0.000 C
BRANCH  23  24
HETATM   24  C22 UNL     1      -1.553   2.019  96.683  1.00  0.00     0.002 C
BRANCH  24  25
HETATM   25  C23 UNL     1      -1.407   3.459  96.277  1.00  0.00     0.020 C
BRANCH  25  26
HETATM   26  C24 UNL     1      -0.252   3.690  95.349  1.00  0.00     0.122 C
BRANCH  26  27
HETATM   27  N6  UNL     1      -0.717   3.816  93.968  1.00  0.00    -0.367 N
HETATM   28  C25 UNL     1       0.152   4.125  93.070  1.00  0.00     0.196 C
HETATM   29  N7  UNL     1       1.522   4.343  93.385  1.00  0.00    -0.067 NA
HETATM   30  N8  UNL     1      -0.279   4.252  91.726  1.00  0.00    -0.067 NA
ATOM     31  H6  UNL     1      -1.696   3.663  93.725  1.00  0.00     0.161 HD
ENDBRANCH  26  27
ENDBRANCH  25  26
ENDBRANCH  24  25
ENDBRANCH  23  24
ENDBRANCH  22  23
ENDBRANCH  21  22
ENDBRANCH  20  21
ENDBRANCH  19  20
ENDBRANCH  18  19
ENDBRANCH  15  18
ENDBRANCH  13  14
BRANCH   1  32
HETATM   32  C2  UNL     1      -0.691   8.695  97.737  1.00  0.00     0.030 C
HETATM   33  C1  UNL     1      -2.104   9.084  98.111  1.00  0.00     0.007 C
ENDBRANCH   1  32
BRANCH   6  34
HETATM   34  C6  UNL     1       2.053   8.242  93.612  1.00  0.00     0.190 C
BRANCH  34  35
HETATM   35  O1  UNL     1       2.748   9.074  94.386  1.00  0.00    -0.344 OA
BRANCH  35  36
HETATM   36  C7  UNL     1       3.305  10.213  93.957  1.00  0.00     0.256 C
BRANCH  36  37
HETATM   37  N2  UNL     1       4.268  10.116  92.877  1.00  0.00    -0.190 N
HETATM   38  N3  UNL     1       4.053  10.527  91.638  1.00  0.00    -0.239 N
HETATM   39  C8  UNL     1       5.168  10.289  90.936  1.00  0.00     0.343 A
ATOM     40  H3  UNL     1       3.194  10.947  91.282  1.00  0.00     0.192 HD
HETATM   41  O2  UNL     1       5.366  10.536  89.712  1.00  0.00    -0.245 OA
HETATM   42  N4  UNL     1       6.089   9.729  91.728  1.00  0.00    -0.258 N
HETATM   43  C9  UNL     1       5.496   9.633  92.942  1.00  0.00     0.351 A
ATOM     44  H4  UNL     1       7.033   9.438  91.473  1.00  0.00     0.175 HD
HETATM   45  O3  UNL     1       6.109   9.136  93.936  1.00  0.00    -0.244 OA
ENDBRANCH  36  37
ENDBRANCH  35  36
ENDBRANCH  34  35
ENDBRANCH   6  34
TORSDOF 16
ENDMDL