MODEL 2
REMARK VINA RESULT: -7.013526094      2.573      8.256
REMARK  17 active torsions:
REMARK  status: ('A' for Active; 'I' for Inactive)
REMARK    1  A    between atoms: C7_8  and  C8_9
REMARK    2  A    between atoms: C8_9  and  C9_10
REMARK    3  A    between atoms: C10_11  and  C11_12
REMARK    4  A    between atoms: N2_19  and  C14_21
REMARK    5  A    between atoms: C14_21  and  C15_22
REMARK    6  A    between atoms: C15_22  and  S2_23
REMARK    7  A    between atoms: S2_23  and  N3_26
REMARK    8  A    between atoms: C16_28  and  C17_29
REMARK    9  A    between atoms: C17_29  and  O4_30
REMARK   10  A    between atoms: O4_30  and  C18_31
REMARK   11  A    between atoms: C18_31  and  C19_32
REMARK   12  A    between atoms: C19_32  and  C20_33
REMARK   13  A    between atoms: C20_33  and  N4_34
REMARK   14  A    between atoms: N4_34  and  C21_36
REMARK   15  A    between atoms: C21_36  and  C22_37
REMARK   16  A    between atoms: C22_37  and  C23_38
REMARK   17  A    between atoms: C23_38  and  N5_39
REMARK       I    between atoms: C24_41  and  N6_42
ROOT
HETATM    1  C1  UNL     1      -1.023   9.363  92.059  1.00  0.00     0.210 C
HETATM    2  O1  UNL     1      -0.467   8.238  92.333  1.00  0.00    -0.355 OA
HETATM    3  C2  UNL     1       0.081   7.074  92.579  1.00  0.00     0.081 A
HETATM    4  C3  UNL     1      -0.220   6.000  91.688  1.00  0.00     0.038 A
HETATM    5  C4  UNL     1       0.374   4.783  91.885  1.00  0.00     0.003 A
HETATM    6  C5  UNL     1       1.247   4.536  92.915  1.00  0.00     0.001 A
HETATM    7  C6  UNL     1       1.548   5.552  93.774  1.00  0.00     0.017 A
HETATM    8  C7  UNL     1       0.938   6.836  93.578  1.00  0.00     0.032 A
ENDROOT
BRANCH   8   9
HETATM    9  C8  UNL     1       1.151   7.674  94.740  1.00  0.00     0.096 C
HETATM   10  N2  UNL     1       0.663   8.025  95.748  1.00  0.00    -0.381 N
ATOM     11  H2  UNL     1       1.241   8.689  96.264  1.00  0.00     0.160 HD
BRANCH   9  12
HETATM   12  C9  UNL     1       2.167   8.739  94.155  1.00  0.00    -0.045 C
HETATM   13  C10 UNL     1       3.058   9.510  93.872  1.00  0.00    -0.055 C
BRANCH  13  14
HETATM   14  C11 UNL     1       4.196  10.412  93.703  1.00  0.00     0.326 C
HETATM   15  N1  UNL     1       3.730  11.614  92.934  1.00  0.00    -0.051 N
HETATM   16  C12 UNL     1       3.256  11.099  91.679  1.00  0.00     0.245 C
ATOM     17  H12 UNL     1       3.044  12.180  93.432  1.00  0.00     0.279 HD
ATOM     18  H11 UNL     1       4.438  12.342  92.838  1.00  0.00     0.279 HD
HETATM   19  C13 UNL     1       4.377  10.358  90.989  1.00  0.00     0.104 C
HETATM   20  S1  UNL     1       5.355   9.806  92.456  1.00  0.00    -0.122 SA
ENDBRANCH  13  14
ENDBRANCH   9  12
BRANCH  10  21
HETATM   21  C14 UNL     1      -0.564   7.725  96.407  1.00  0.00     0.137 C
BRANCH  21  22
HETATM   22  C15 UNL     1      -0.657   8.684  97.651  1.00  0.00     0.183 C
BRANCH  22  23
HETATM   23  S2  UNL     1      -2.392   9.063  97.789  1.00  0.00     0.231 S
HETATM   24  O2  UNL     1      -2.879   9.261  96.396  1.00  0.00    -0.206 OA
HETATM   25  O3  UNL     1      -2.606  10.218  98.693  1.00  0.00    -0.206 OA
BRANCH  23  26
HETATM   26  N3  UNL     1      -3.224   7.677  98.502  1.00  0.00    -0.297 N
HETATM   27  C16 UNL     1      -4.212   7.359  97.621  1.00  0.00     0.099 C
ATOM     28  H3  UNL     1      -3.010   7.215  99.386  1.00  0.00     0.177 HD
BRANCH  27  29
HETATM   29  C17 UNL     1      -5.261   6.491  97.176  1.00  0.00     0.212 C
BRANCH  29  30
HETATM   30  O4  UNL     1      -4.656   5.161  96.984  1.00  0.00    -0.386 OA
BRANCH  30  31
HETATM   31  C18 UNL     1      -4.762   4.498  98.173  1.00  0.00     0.169 C
BRANCH  31  32
HETATM   32  C19 UNL     1      -3.510   3.823  98.524  1.00  0.00     0.045 C
BRANCH  32  33
HETATM   33  C20 UNL     1      -3.240   2.476  97.957  1.00  0.00     0.115 C
BRANCH  33  34
HETATM   34  N4  UNL     1      -2.963   2.441  96.539  1.00  0.00    -0.421 N
ATOM     35  H4  UNL     1      -3.704   2.496  95.840  1.00  0.00     0.153 HD
BRANCH  34  36
HETATM   36  C21 UNL     1      -1.600   2.326  96.184  1.00  0.00     0.115 C
BRANCH  36  37
HETATM   37  C22 UNL     1      -1.111   3.688  95.653  1.00  0.00     0.039 C
BRANCH  37  38
HETATM   38  C23 UNL     1      -2.114   4.275  94.749  1.00  0.00     0.123 C
BRANCH  38  39
HETATM   39  N5  UNL     1      -2.351   5.669  95.003  1.00  0.00    -0.365 N
HETATM   40  C24 UNL     1      -3.017   6.256  94.035  1.00  0.00     0.181 C
HETATM   41  N6  UNL     1      -3.357   7.587  94.078  1.00  0.00    -0.374 N
HETATM   42  N7  UNL     1      -3.395   5.401  92.911  1.00  0.00    -0.064 NA
ATOM     43  H62 UNL     1      -3.093   8.183  94.862  1.00  0.00     0.158 HD
ATOM     44  H61 UNL     1      -3.874   8.043  93.327  1.00  0.00     0.158 HD
ATOM     45  H5  UNL     1      -2.036   6.152  95.844  1.00  0.00     0.162 HD
ENDBRANCH  38  39
ENDBRANCH  37  38
ENDBRANCH  36  37
ENDBRANCH  34  36
ENDBRANCH  33  34
ENDBRANCH  32  33
ENDBRANCH  31  32
ENDBRANCH  30  31
ENDBRANCH  29  30
ENDBRANCH  27  29
ENDBRANCH  23  26
ENDBRANCH  22  23
ENDBRANCH  21  22
ENDBRANCH  10  21
ENDBRANCH   8   9
TORSDOF 17
ENDMDL