MODEL 5
REMARK VINA RESULT: -7.244845287      1.711      2.512
REMARK  18 active torsions:
REMARK  status: ('A' for Active; 'I' for Inactive)
REMARK    1  A    between atoms: N1_1  and  C1_4
REMARK    2  A    between atoms: C2_7  and  N3_8
REMARK    3  A    between atoms: N3_8  and  C3_9
REMARK    4  A    between atoms: C3_9  and  C4_10
REMARK    5  A    between atoms: C4_10  and  C5_11
REMARK    6  A    between atoms: C5_11  and  C6_12
REMARK    7  A    between atoms: C6_12  and  N4_13
REMARK    8  A    between atoms: C11_23  and  C12_24
REMARK    9  A    between atoms: C12_24  and  N8_25
REMARK   10  A    between atoms: C15_29  and  C16_30
REMARK   11  A    between atoms: C16_30  and  C17_31
REMARK   12  A    between atoms: C17_31  and  O1_32
REMARK   13  A    between atoms: O1_32  and  C18_33
REMARK   14  A    between atoms: C18_33  and  C19_34
REMARK   15  A    between atoms: C19_34  and  O2_35
REMARK   16  A    between atoms: O2_35  and  C20_36
REMARK   17  A    between atoms: C20_36  and  C21_37
REMARK   18  A    between atoms: C21_37  and  S1_38
ROOT
HETATM    1  C1  UNL     1       3.653  10.598  90.302  1.00  0.00     0.132 A
HETATM    2  N2  UNL     1       4.685  10.988  89.566  1.00  0.00    -0.301 N
ATOM      3  H2  UNL     1       4.501  11.411  88.657  1.00  0.00     0.171 HD
HETATM    4  C2  UNL     1       6.005  10.846  89.975  1.00  0.00     0.260 A
HETATM    5  N7  UNL     1       6.133  10.266  91.202  1.00  0.00    -0.314 N
ATOM      6  H7  UNL     1       7.079  10.132  91.559  1.00  0.00     0.170 HD
HETATM    7  C8  UNL     1       5.133   9.862  91.971  1.00  0.00     0.066 A
HETATM    8  C9  UNL     1       5.284   9.318  93.223  1.00  0.00     0.034 A
HETATM    9  C10 UNL     1       4.176   8.954  93.993  1.00  0.00     0.033 A
HETATM   10  C11 UNL     1       2.891   9.119  93.544  1.00  0.00     0.043 A
HETATM   11  N10 UNL     1       2.795   9.657  92.303  1.00  0.00    -0.351 N
ATOM     12  H10 UNL     1       1.859   9.798  91.923  1.00  0.00     0.166 HD
HETATM   13  C24 UNL     1       3.832  10.018  91.541  1.00  0.00     0.104 A
ENDROOT
BRANCH  10  14
HETATM   14  C12 UNL     1       1.685   8.808  94.285  1.00  0.00     0.089 C
BRANCH  14  15
HETATM   15  N8  UNL     1       1.322   7.478  94.550  1.00  0.00    -0.287 NA
HETATM   16  C13 UNL     1       0.028   7.506  95.277  1.00  0.00     0.114 C
HETATM   17  C14 UNL     1      -1.052   7.265  94.191  1.00  0.00     0.137 C
HETATM   18  N9  UNL     1      -1.063   5.902  93.968  1.00  0.00    -0.391 N
HETATM   19  C15 UNL     1      -2.084   5.034  93.761  1.00  0.00     0.060 C
HETATM   20  C22 UNL     1       0.291   5.401  93.822  1.00  0.00     0.137 C
HETATM   21  C23 UNL     1       1.268   6.553  93.463  1.00  0.00     0.114 C
BRANCH  19  22
HETATM   22  C16 UNL     1      -2.989   4.709  94.902  1.00  0.00     0.070 C
BRANCH  22  23
HETATM   23  C17 UNL     1      -2.262   4.373  96.158  1.00  0.00     0.172 C
BRANCH  23  24
HETATM   24  O1  UNL     1      -2.684   5.173  97.243  1.00  0.00    -0.389 OA
BRANCH  24  25
HETATM   25  C18 UNL     1      -3.569   6.140  96.861  1.00  0.00     0.193 C
BRANCH  25  26
HETATM   26  C19 UNL     1      -3.135   7.537  97.263  1.00  0.00     0.193 C
BRANCH  26  27
HETATM   27  O2  UNL     1      -3.716   8.024  98.359  1.00  0.00    -0.388 OA
BRANCH  27  28
HETATM   28  C20 UNL     1      -4.891   8.663  98.390  1.00  0.00     0.183 C
BRANCH  28  29
HETATM   29  C21 UNL     1      -4.848  10.163  98.632  1.00  0.00     0.183 C
BRANCH  29  30
HETATM   30  S1  UNL     1      -4.442  10.891  97.046  1.00  0.00     0.252 S
HETATM   31  O3  UNL     1      -5.738  11.759  96.471  1.00  0.00    -0.212 OA
HETATM   32  O4  UNL     1      -3.084  11.880  97.277  1.00  0.00    -0.212 OA
ENDBRANCH  29  30
ENDBRANCH  28  29
ENDBRANCH  27  28
ENDBRANCH  26  27
ENDBRANCH  25  26
ENDBRANCH  24  25
ENDBRANCH  23  24
ENDBRANCH  22  23
ENDBRANCH  19  22
ENDBRANCH  14  15
ENDBRANCH  10  14
BRANCH   1  33
HETATM   33  N1  UNL     1       2.424  10.756  89.884  1.00  0.00    -0.383 N
ATOM     34  H12 UNL     1       2.198  10.411  88.952  1.00  0.00     0.157 HD
ATOM     35  H11 UNL     1       1.720  11.202  90.472  1.00  0.00     0.157 HD
ENDBRANCH   1  33
BRANCH   4  36
HETATM   36  N3  UNL     1       6.868  11.286  89.281  1.00  0.00    -0.388 NA
BRANCH  36  37
HETATM   37  C3  UNL     1       7.828  11.780  88.494  1.00  0.00     0.159 C
BRANCH  37  38
HETATM   38  C4  UNL     1       7.445  12.914  87.587  1.00  0.00     0.061 C
BRANCH  38  39
HETATM   39  C5  UNL     1       7.291  12.545  86.158  1.00  0.00     0.026 C
BRANCH  39  40
HETATM   40  C6  UNL     1       8.627  12.648  85.439  1.00  0.00     0.122 C
BRANCH  40  41
HETATM   41  N4  UNL     1       9.305  13.868  85.664  1.00  0.00    -0.367 N
HETATM   42  C7  UNL     1      10.531  14.116  85.805  1.00  0.00     0.196 C
HETATM   43  N5  UNL     1      10.955  15.478  86.026  1.00  0.00    -0.067 NA
HETATM   44  N6  UNL     1      11.536  13.104  85.739  1.00  0.00    -0.067 NA
ATOM     45  H4  UNL     1       8.698  14.685  85.720  1.00  0.00     0.161 HD
ENDBRANCH  40  41
ENDBRANCH  39  40
ENDBRANCH  38  39
ENDBRANCH  37  38
ENDBRANCH  36  37
ENDBRANCH   4  36
TORSDOF 18
ENDMDL