MODEL 5
REMARK VINA RESULT: -6.899413621      2.031      9.454
REMARK  18 active torsions:
REMARK  status: ('A' for Active; 'I' for Inactive)
REMARK    1  A    between atoms: N3_4  and  C2_6
REMARK    2  A    between atoms: C2_6  and  C3_7
REMARK    3  A    between atoms: C3_7  and  C4_8
REMARK    4  A    between atoms: C4_8  and  C5_9
REMARK    5  A    between atoms: C5_9  and  C6_10
REMARK    6  A    between atoms: C6_10  and  C7_11
REMARK    7  A    between atoms: C7_11  and  N4_12
REMARK    8  A    between atoms: N4_12  and  N5_14
REMARK    9  A    between atoms: N5_14  and  C8_16
REMARK   10  A    between atoms: C8_16  and  O1_17
REMARK   11  A    between atoms: C9_19  and  N6_20
REMARK   12  A    between atoms: C13_24  and  N7_25
REMARK       I    between atoms: N7_25  and  C14_27
REMARK   13  A    between atoms: C14_27  and  C15_29
REMARK   14  A    between atoms: C15_29  and  C16_30
REMARK   15  A    between atoms: C16_30  and  C17_31
REMARK   16  A    between atoms: C17_31  and  C18_32
REMARK   17  A    between atoms: C18_32  and  C19_33
REMARK   18  A    between atoms: C19_33  and  N8_34
ROOT
HETATM    1  N6  UNL     1      -0.836   8.290  94.581  1.00  0.00    -0.287 NA
HETATM    2  C10 UNL     1       0.379   7.866  95.314  1.00  0.00     0.095 C
HETATM    3  C11 UNL     1       0.017   7.294  96.647  1.00  0.00     0.017 C
HETATM    4  C12 UNL     1      -0.892   8.319  97.343  1.00  0.00     0.027 C
HETATM    5  C13 UNL     1      -2.205   8.319  96.574  1.00  0.00     0.097 C
HETATM    6  C25 UNL     1      -1.995   7.738  95.162  1.00  0.00     0.120 C
ENDROOT
BRANCH   5   7
HETATM    7  N7  UNL     1      -3.140   7.493  97.277  1.00  0.00    -0.355 N
HETATM    8  C14 UNL     1      -4.005   7.901  98.314  1.00  0.00     0.217 C
HETATM    9  O2  UNL     1      -4.037   9.058  98.741  1.00  0.00    -0.274 OA
ATOM     10  H7  UNL     1      -3.184   6.512  97.000  1.00  0.00     0.162 HD
BRANCH   8  11
HETATM   11  C15 UNL     1      -4.941   6.894  98.948  1.00  0.00     0.103 C
BRANCH  11  12
HETATM   12  C16 UNL     1      -4.326   5.584  99.245  1.00  0.00     0.009 C
BRANCH  12  13
HETATM   13  C17 UNL     1      -5.266   4.403  98.846  1.00  0.00     0.002 C
BRANCH  13  14
HETATM   14  C18 UNL     1      -5.632   4.608  97.390  1.00  0.00     0.020 C
BRANCH  14  15
HETATM   15  C19 UNL     1      -5.337   3.403  96.559  1.00  0.00     0.133 C
BRANCH  15  16
HETATM   16  N8  UNL     1      -3.933   3.148  96.474  1.00  0.00    -0.310 N
HETATM   17  C20 UNL     1      -3.296   2.281  97.246  1.00  0.00     0.187 A
HETATM   18  N9  UNL     1      -1.978   2.145  97.120  1.00  0.00    -0.336 N
HETATM   19  C21 UNL     1      -1.239   2.836  96.257  1.00  0.00     0.138 A
ATOM     20  H9  UNL     1      -1.506   1.471  97.723  1.00  0.00     0.168 HD
HETATM   21  N10 UNL     1       0.039   2.921  95.916  1.00  0.00    -0.285 N
HETATM   22  C23 UNL     1      -1.914   3.756  95.441  1.00  0.00     0.094 A
HETATM   23  N11 UNL     1       0.240   3.795  94.973  1.00  0.00    -0.309 N
ATOM     24  H10 UNL     1       0.780   2.365  96.342  1.00  0.00     0.188 HD
HETATM   25  C22 UNL     1      -0.942   4.321  94.663  1.00  0.00     0.128 A
ATOM     26  H11 UNL     1       1.137   4.032  94.551  1.00  0.00     0.186 HD
HETATM   27  C24 UNL     1      -3.262   3.914  95.547  1.00  0.00     0.264 A
HETATM   28  O3  UNL     1      -3.863   4.726  94.831  1.00  0.00    -0.267 OA
ENDBRANCH  15  16
ENDBRANCH  14  15
ENDBRANCH  13  14
ENDBRANCH  12  13
ENDBRANCH  11  12
ENDBRANCH   8  11
ENDBRANCH   5   7
BRANCH   1  29
HETATM   29  C9  UNL     1      -0.590   7.942  93.236  1.00  0.00     0.117 C
HETATM   30  C8  UNL     1      -0.384   8.918  92.201  1.00  0.00     0.165 C
BRANCH  30  31
HETATM   31  N5  UNL     1      -0.100   8.513  90.895  1.00  0.00    -0.284 N
ATOM     32  H5  UNL     1      -0.840   7.979  90.436  1.00  0.00     0.188 HD
BRANCH  31  33
HETATM   33  N4  UNL     1       0.989   8.718  90.159  1.00  0.00    -0.334 N
ATOM     34  H4  UNL     1       1.763   8.054  90.187  1.00  0.00     0.180 HD
BRANCH  33  35
HETATM   35  C7  UNL     1       1.065   9.902  89.311  1.00  0.00     0.139 C
BRANCH  35  36
HETATM   36  C6  UNL     1       2.190  10.787  89.933  1.00  0.00     0.021 C
BRANCH  36  37
HETATM   37  C5  UNL     1       2.900  10.191  91.067  1.00  0.00     0.002 C
BRANCH  37  38
HETATM   38  C4  UNL     1       4.325  10.584  91.127  1.00  0.00     0.002 C
BRANCH  38  39
HETATM   39  C3  UNL     1       5.357   9.838  91.849  1.00  0.00     0.020 C
BRANCH  39  40
HETATM   40  C2  UNL     1       5.257   9.708  93.344  1.00  0.00     0.122 C
BRANCH  40  41
HETATM   41  N3  UNL     1       4.966  11.055  93.871  1.00  0.00    -0.367 N
HETATM   42  C1  UNL     1       5.153  11.392  95.083  1.00  0.00     0.196 C
HETATM   43  N1  UNL     1       4.811  12.758  95.416  1.00  0.00    -0.067 NA
HETATM   44  N2  UNL     1       5.649  10.523  96.049  1.00  0.00    -0.067 NA
ATOM     45  H3  UNL     1       4.595  11.754  93.227  1.00  0.00     0.161 HD
ENDBRANCH  40  41
ENDBRANCH  39  40
ENDBRANCH  38  39
ENDBRANCH  37  38
ENDBRANCH  36  37
ENDBRANCH  35  36
ENDBRANCH  33  35
ENDBRANCH  31  33
ENDBRANCH  30  31
BRANCH  30  46
HETATM   46  O1  UNL     1      -0.478  10.196  92.449  1.00  0.00    -0.344 OA
ATOM     47  H1  UNL     1       0.306  10.728  92.382  1.00  0.00     0.219 HD
ENDBRANCH  30  46
ENDBRANCH   1  29
TORSDOF 18
ENDMDL