MODEL 4
REMARK VINA RESULT: -6.557712268      2.678      5.535
REMARK  20 active torsions:
REMARK  status: ('A' for Active; 'I' for Inactive)
REMARK    1  A    between atoms: N1_1  and  C1_5
REMARK    2  A    between atoms: C1_5  and  C2_6
REMARK    3  A    between atoms: C2_6  and  C3_7
REMARK    4  A    between atoms: C3_7  and  C4_8
REMARK    5  A    between atoms: C4_8  and  C5_9
REMARK    6  A    between atoms: C5_9  and  C6_10
REMARK    7  A    between atoms: C6_10  and  C7_11
REMARK    8  A    between atoms: C7_11  and  C8_12
REMARK    9  A    between atoms: C8_12  and  N2_13
REMARK       I    between atoms: N2_13  and  C9_15
REMARK   10  A    between atoms: C9_15  and  C10_17
REMARK       I    between atoms: N3_21  and  C14_22
REMARK   11  A    between atoms: C14_22  and  C15_24
REMARK   12  A    between atoms: C15_24  and  O3_25
REMARK   13  A    between atoms: C15_24  and  N4_27
REMARK       I    between atoms: N4_27  and  C16_29
REMARK   14  A    between atoms: C16_29  and  C17_31
REMARK   15  A    between atoms: C17_31  and  N5_32
REMARK   16  A    between atoms: N5_32  and  C18_33
REMARK   17  A    between atoms: N5_32  and  C24_42
REMARK   18  A    between atoms: C18_33  and  C19_34
REMARK   19  A    between atoms: C19_34  and  N6_35
REMARK   20  A    between atoms: C22_38  and  O5_39
ROOT
HETATM    1  C15 UNL     1       0.137   5.983  91.736  1.00  0.00     0.314 C
ENDROOT
BRANCH   1   2
HETATM    2  C14 UNL     1      -1.117   5.531  92.362  1.00  0.00     0.269 C
HETATM    3  N3  UNL     1      -2.312   6.294  92.399  1.00  0.00    -0.335 N
HETATM    4  C10 UNL     1      -3.542   5.860  93.036  1.00  0.00     0.179 C
HETATM    5  C13 UNL     1      -2.563   7.602  91.818  1.00  0.00     0.127 C
HETATM    6  C11 UNL     1      -4.546   6.332  91.962  1.00  0.00     0.037 C
HETATM    7  C12 UNL     1      -4.074   7.776  91.849  1.00  0.00     0.022 C
HETATM    8  O2  UNL     1      -1.106   4.380  92.895  1.00  0.00    -0.268 OA
BRANCH   4   9
HETATM    9  C9  UNL     1      -3.734   6.645  94.270  1.00  0.00     0.240 C
HETATM   10  N2  UNL     1      -2.641   7.109  95.058  1.00  0.00    -0.359 N
ATOM     11  H2  UNL     1      -1.695   6.889  94.748  1.00  0.00     0.162 HD
HETATM   12  O1  UNL     1      -4.884   6.923  94.655  1.00  0.00    -0.271 OA
BRANCH  10  13
HETATM   13  C8  UNL     1      -2.802   7.877  96.275  1.00  0.00     0.122 C
BRANCH  13  14
HETATM   14  C7  UNL     1      -2.542   6.972  97.444  1.00  0.00     0.020 C
BRANCH  14  15
HETATM   15  C6  UNL     1      -3.808   6.389  98.051  1.00  0.00     0.002 C
BRANCH  15  16
HETATM   16  C5  UNL     1      -3.679   4.947  98.216  1.00  0.00     0.000 C
BRANCH  16  17
HETATM   17  C4  UNL     1      -2.923   4.198  97.199  1.00  0.00     0.000 C
BRANCH  17  18
HETATM   18  C3  UNL     1      -2.601   2.806  97.447  1.00  0.00     0.002 C
BRANCH  18  19
HETATM   19  C2  UNL     1      -1.544   2.041  96.780  1.00  0.00     0.027 C
BRANCH  19  20
HETATM   20  C1  UNL     1      -0.495   2.818  96.047  1.00  0.00     0.229 C
BRANCH  20  21
HETATM   21  N1  UNL     1      -0.132   2.391  94.753  1.00  0.00    -0.079 N
ATOM     22  H13 UNL     1      -0.666   1.555  94.517  1.00  0.00     0.274 HD
ATOM     23  H12 UNL     1      -0.495   3.055  94.069  1.00  0.00     0.274 HD
ATOM     24  H11 UNL     1       0.856   2.222  94.562  1.00  0.00     0.274 HD
ENDBRANCH  20  21
ENDBRANCH  19  20
ENDBRANCH  18  19
ENDBRANCH  17  18
ENDBRANCH  16  17
ENDBRANCH  15  16
ENDBRANCH  14  15
ENDBRANCH  13  14
ENDBRANCH  10  13
ENDBRANCH   4   9
ENDBRANCH   1   2
BRANCH   1  25
HETATM   25  O3  UNL     1       1.142   4.987  91.843  1.00  0.00    -0.368 OA
ATOM     26  H3  UNL     1       1.662   4.945  91.049  1.00  0.00     0.212 HD
ENDBRANCH   1  25
BRANCH   1  27
HETATM   27  N4  UNL     1       0.647   7.200  92.353  1.00  0.00    -0.322 N
HETATM   28  C16 UNL     1       1.020   8.365  91.660  1.00  0.00     0.259 C
HETATM   29  O4  UNL     1       0.917   8.396  90.419  1.00  0.00    -0.267 OA
ATOM     30  H4  UNL     1       0.740   7.208  93.369  1.00  0.00     0.165 HD
BRANCH  28  31
HETATM   31  C17 UNL     1       1.532   9.549  92.391  1.00  0.00     0.165 C
BRANCH  31  32
HETATM   32  N5  UNL     1       2.559  10.254  91.781  1.00  0.00    -0.357 N
BRANCH  32  33
HETATM   33  C18 UNL     1       2.318  11.200  90.767  1.00  0.00     0.094 C
BRANCH  33  34
HETATM   34  C19 UNL     1       1.074  12.044  90.941  1.00  0.00     0.317 C
BRANCH  34  35
HETATM   35  N6  UNL     1       0.304  12.142  89.733  1.00  0.00     0.095 N
HETATM   36  C20 UNL     1       0.862  11.499  88.602  1.00  0.00     0.275 C
HETATM   37  C21 UNL     1       1.086  12.548  87.535  1.00  0.00     0.064 C
HETATM   38  C22 UNL     1       0.543  13.823  88.086  1.00  0.00     0.148 C
HETATM   39  C23 UNL     1      -0.098  13.470  89.389  1.00  0.00     0.304 C
BRANCH  38  40
HETATM   40  O5  UNL     1      -0.323  14.472  87.204  1.00  0.00    -0.394 OA
ATOM     41  H5  UNL     1      -1.211  14.137  87.240  1.00  0.00     0.210 HD
ENDBRANCH  38  40
ENDBRANCH  34  35
ENDBRANCH  33  34
ENDBRANCH  32  33
BRANCH  32  42
HETATM   42  C24 UNL     1       3.827  10.373  92.371  1.00  0.00     0.116 C
HETATM   43  C25 UNL     1       4.047   9.475  93.570  1.00  0.00     0.055 C
HETATM   44  C26 UNL     1       5.559   9.464  93.669  1.00  0.00     0.234 C
HETATM   45  N7  UNL     1       6.096   9.850  92.400  1.00  0.00    -0.073 N
HETATM   46  C27 UNL     1       4.982   9.982  91.486  1.00  0.00     0.257 C
ATOM     47  H72 UNL     1       6.673  10.688  92.449  1.00  0.00     0.277 HD
ATOM     48  H71 UNL     1       6.817   9.213  92.061  1.00  0.00     0.277 HD
ENDBRANCH  32  42
ENDBRANCH  31  32
ENDBRANCH  28  31
ENDBRANCH   1  27
TORSDOF 20
ENDMDL