MODEL 3
REMARK VINA RESULT: -5.741849254      0.888      1.398
REMARK  3 active torsions:
REMARK  status: ('A' for Active; 'I' for Inactive)
REMARK    1  A    between atoms: O1_2  and  N1_3
REMARK    2  A    between atoms: N1_3  and  S1_5
REMARK    3  A    between atoms: C8_17  and  N4_18
ROOT
HETATM    1  S1  UNL     1     -38.984   9.211  22.607  1.00  0.00    -0.017 SA
HETATM    2  C2  UNL     1     -39.352  10.992  22.568  1.00  0.00     0.056 A
HETATM    3  C3  UNL     1     -39.081  11.746  21.319  1.00  0.00     0.077 C
HETATM    4  N2  UNL     1     -39.824  11.484  23.620  1.00  0.00    -0.350 N
ATOM      5  H2  UNL     1     -40.034  12.482  23.612  1.00  0.00     0.166 HD
HETATM    6  C4  UNL     1     -40.092  10.779  24.818  1.00  0.00     0.092 A
HETATM    7  C5  UNL     1     -40.584  11.356  26.005  1.00  0.00     0.058 A
HETATM    8  C6  UNL     1     -40.951  12.756  26.270  1.00  0.00     0.072 C
HETATM    9  N3  UNL     1     -40.667  10.365  26.901  1.00  0.00    -0.263 N
ATOM     10  H3  UNL     1     -40.990  10.459  27.864  1.00  0.00     0.194 HD
HETATM   11  O2  UNL     1     -40.270   9.272  26.342  1.00  0.00    -0.237 OA
HETATM   12  C7  UNL     1     -39.911   9.476  25.074  1.00  0.00     0.149 A
HETATM   13  C8  UNL     1     -39.415   8.397  24.175  1.00  0.00     0.362 A
ENDROOT
BRANCH  13  14
HETATM   14  N4  UNL     1     -40.438   7.375  24.102  1.00  0.00     0.110 N
HETATM   15  C9  UNL     1     -41.764   7.868  24.236  1.00  0.00     0.274 C
HETATM   16  C10 UNL     1     -42.805   6.773  24.113  1.00  0.00     0.030 C
HETATM   17  C11 UNL     1     -42.556   5.845  25.280  1.00  0.00     0.003 C
HETATM   18  C12 UNL     1     -41.179   5.316  25.231  1.00  0.00     0.030 C
HETATM   19  C13 UNL     1     -40.094   6.318  25.000  1.00  0.00     0.274 C
ENDBRANCH  13  14
BRANCH   1  20
HETATM   20  N1  UNL     1     -37.851   8.663  21.578  1.00  0.00    -0.243 N
ATOM     21  H1  UNL     1     -38.075   7.788  21.103  1.00  0.00     0.202 HD
BRANCH  20  22
HETATM   22  O1  UNL     1     -36.659   9.202  21.265  1.00  0.00    -0.280 OA
HETATM   23  C1  UNL     1     -35.544   9.227  22.144  1.00  0.00     0.238 C
ENDBRANCH  20  22
ENDBRANCH   1  20
TORSDOF 3
ENDMDL