MODEL 1
REMARK VINA RESULT: -5.409563746      0.000      0.000
REMARK  7 active torsions:
REMARK  status: ('A' for Active; 'I' for Inactive)
REMARK    1  A    between atoms: C2_2  and  N1_5
REMARK    2  A    between atoms: N1_5  and  C5_6
REMARK    3  A    between atoms: C5_6  and  S1_7
REMARK    4  A    between atoms: C5_6  and  C10_17
REMARK    5  A    between atoms: S1_7  and  C6_8
REMARK    6  A    between atoms: C6_8  and  C7_9
REMARK    7  A    between atoms: C7_9  and  C8_11
ROOT
HETATM    1  C5  UNL     1     -39.455   7.880  23.897  1.00  0.00     0.123 C
ENDROOT
BRANCH   1   2
HETATM    2  N1  UNL     1     -38.788   8.348  23.042  1.00  0.00    -0.434 NA
BRANCH   2   3
HETATM    3  C2  UNL     1     -38.028   8.926  22.112  1.00  0.00     0.083 C
HETATM    4  C1  UNL     1     -37.005   9.895  22.815  1.00  0.00     0.053 C
HETATM    5  C3  UNL     1     -38.787   9.804  21.080  1.00  0.00     0.053 C
HETATM    6  C4  UNL     1     -37.119   8.086  21.222  1.00  0.00     0.053 C
ENDBRANCH   2   3
ENDBRANCH   1   2
BRANCH   1   7
HETATM    7  S1  UNL     1     -40.234   8.671  25.289  1.00  0.00    -0.094 SA
BRANCH   7   8
HETATM    8  C6  UNL     1     -41.235  10.063  25.068  1.00  0.00     0.166 C
BRANCH   8   9
HETATM    9  C7  UNL     1     -40.528  11.371  24.819  1.00  0.00     0.178 C
HETATM   10  O1  UNL     1     -39.833  11.618  23.814  1.00  0.00    -0.291 OA
BRANCH   9  11
HETATM   11  C8  UNL     1     -40.683  12.430  25.874  1.00  0.00     0.082 A
HETATM   12  C9  UNL     1     -41.293  12.198  27.115  1.00  0.00     0.127 A
HETATM   13  N2  UNL     1     -41.362  13.310  27.925  1.00  0.00    -0.303 N
HETATM   14  N3  UNL     1     -40.851  14.435  27.442  1.00  0.00    -0.061 NA
ATOM     15  H2  UNL     1     -41.786  13.271  28.852  1.00  0.00     0.182 HD
HETATM   16  S2  UNL     1     -40.303  14.036  25.956  1.00  0.00     0.004 SA
ENDBRANCH   9  11
ENDBRANCH   8   9
ENDBRANCH   7   8
ENDBRANCH   1   7
BRANCH   1  17
HETATM   17  C10 UNL     1     -39.779   6.362  23.897  1.00  0.00     0.011 C
HETATM   18  C11 UNL     1     -39.220   5.812  25.177  1.00  0.00     0.023 C
HETATM   19  C12 UNL     1     -39.310   5.642  22.726  1.00  0.00     0.023 C
HETATM   20  C13 UNL     1     -41.319   6.271  23.950  1.00  0.00     0.023 C
ENDBRANCH   1  17
TORSDOF 7
ENDMDL