MODEL 4
REMARK VINA RESULT: -6.219267918      2.428      7.067
REMARK  3 active torsions:
REMARK  status: ('A' for Active; 'I' for Inactive)
REMARK    1  A    between atoms: O1_2  and  C2_3
REMARK    2  A    between atoms: C6_8  and  C7_9
REMARK    3  A    between atoms: C10_12  and  C11_13
ROOT
HETATM    1  C7  UNL     1     -38.864  10.217  23.166  1.00  0.00     0.121 C
HETATM    2  C8  UNL     1     -38.399   8.867  23.578  1.00  0.00     0.077 C
HETATM    3  C9  UNL     1     -38.064   8.080  22.284  1.00  0.00     0.077 C
HETATM    4  C10 UNL     1     -37.374   9.044  21.326  1.00  0.00     0.114 C
HETATM    5  O4  UNL     1     -37.955  10.239  21.211  1.00  0.00    -0.194 OA
HETATM    6  O5  UNL     1     -39.185  10.257  21.829  1.00  0.00    -0.194 OA
ENDROOT
BRANCH   1   7
HETATM    7  C6  UNL     1     -39.371  11.160  24.122  1.00  0.00     0.141 A
HETATM    8  C2  UNL     1     -40.341  10.991  25.115  1.00  0.00     0.112 A
HETATM    9  C3  UNL     1     -40.511  12.195  25.759  1.00  0.00    -0.003 A
HETATM   10  C4  UNL     1     -41.434  12.426  26.898  1.00  0.00     0.053 C
HETATM   11  C5  UNL     1     -39.633  13.085  25.152  1.00  0.00     0.152 A
HETATM   12  O2  UNL     1     -39.010  12.434  24.227  1.00  0.00    -0.317 OA
BRANCH   8  13
HETATM   13  O1  UNL     1     -41.002   9.874  25.411  1.00  0.00    -0.352 OA
HETATM   14  C1  UNL     1     -41.725   8.909  24.779  1.00  0.00     0.210 C
ENDBRANCH   8  13
ENDBRANCH   1   7
BRANCH   4  15
HETATM   15  C11 UNL     1     -35.929   8.857  21.398  1.00  0.00     0.096 A
HETATM   16  N1  UNL     1     -35.320   8.028  20.463  1.00  0.00    -0.336 N
HETATM   17  C12 UNL     1     -34.001   8.137  20.613  1.00  0.00     0.120 A
ATOM     18  H1  UNL     1     -35.800   7.439  19.782  1.00  0.00     0.168 HD
HETATM   19  C13 UNL     1     -32.928   7.463  19.844  1.00  0.00     0.098 C
HETATM   20  O3  UNL     1     -33.774   8.968  21.578  1.00  0.00    -0.300 OA
HETATM   21  C14 UNL     1     -34.901   9.423  22.074  1.00  0.00     0.080 A
HETATM   22  C15 UNL     1     -35.033  10.375  23.169  1.00  0.00     0.079 C
ENDBRANCH   4  15
TORSDOF 3
ENDMDL