MODEL 4
REMARK VINA RESULT: -6.624805567      3.033      6.556
REMARK  4 active torsions:
REMARK  status: ('A' for Active; 'I' for Inactive)
REMARK    1  A    between atoms: C3_6  and  S1_7
REMARK    2  A    between atoms: S1_7  and  C4_8
REMARK    3  A    between atoms: C8_13  and  C9_14
REMARK    4  A    between atoms: C14_19  and  N2_20
ROOT
HETATM    1  C4  UNL     1     -37.323  10.737  23.182  1.00  0.00     0.011 A
HETATM    2  C5  UNL     1     -36.489  11.635  23.604  1.00  0.00     0.069 A
HETATM    3  C6  UNL     1     -35.016  11.553  23.474  1.00  0.00     0.154 A
HETATM    4  O2  UNL     1     -34.300  12.501  23.916  1.00  0.00    -0.293 OA
HETATM    5  C7  UNL     1     -34.416  10.373  22.833  1.00  0.00     0.118 A
HETATM    6  C8  UNL     1     -35.429   9.397  22.379  1.00  0.00    -0.064 A
HETATM    7  C13 UNL     1     -36.715   9.551  22.529  1.00  0.00     0.023 A
ENDROOT
BRANCH   1   8
HETATM    8  S1  UNL     1     -39.084  10.809  23.324  1.00  0.00    -0.068 SA
BRANCH   8   9
HETATM    9  C3  UNL     1     -39.703  11.847  24.602  1.00  0.00     0.132 A
HETATM   10  N1  UNL     1     -39.596  13.166  24.797  1.00  0.00    -0.252 N
HETATM   11  O1  UNL     1     -40.211  13.535  25.887  1.00  0.00    -0.239 OA
ATOM     12  H1  UNL     1     -39.097  13.801  24.174  1.00  0.00     0.195 HD
HETATM   13  C2  UNL     1     -40.751  12.517  26.469  1.00  0.00     0.108 A
HETATM   14  C1  UNL     1     -41.546  12.466  27.728  1.00  0.00     0.081 C
HETATM   15  C14 UNL     1     -40.462  11.415  25.699  1.00  0.00     0.169 A
BRANCH  15  16
HETATM   16  N2  UNL     1     -40.821  10.072  25.901  1.00  0.00    -0.110 N
HETATM   17  O3  UNL     1     -40.351   9.423  26.841  1.00  0.00    -0.532 OA
HETATM   18  O4  UNL     1     -41.702   9.481  25.043  1.00  0.00    -0.532 OA
ENDBRANCH  15  16
ENDBRANCH   8   9
ENDBRANCH   1   8
BRANCH   6  19
HETATM   19  C9  UNL     1     -34.883   8.160  21.704  1.00  0.00    -0.027 C
HETATM   20  C10 UNL     1     -33.604   7.754  22.408  1.00  0.00     0.019 C
HETATM   21  C11 UNL     1     -34.519   8.493  20.274  1.00  0.00     0.019 C
HETATM   22  C12 UNL     1     -35.946   7.112  21.735  1.00  0.00     0.019 C
ENDBRANCH   6  19
TORSDOF 4
ENDMDL