MODEL 2
REMARK VINA RESULT: -5.283032379      1.622      4.045
REMARK  4 active torsions:
REMARK  status: ('A' for Active; 'I' for Inactive)
REMARK    1  A    between atoms: N1_2  and  C3_4
REMARK    2  A    between atoms: C3_4  and  C4_5
REMARK    3  A    between atoms: C4_5  and  C5_6
REMARK    4  A    between atoms: C5_6  and  C6_7
ROOT
HETATM    1  C6  UNL     1     -39.561   9.748  23.225  1.00  0.00     0.197 C
HETATM    2  O1  UNL     1     -40.209   8.691  23.861  1.00  0.00    -0.229 OA
HETATM    3  O2  UNL     1     -40.374   7.644  23.131  1.00  0.00    -0.197 OA
HETATM    4  C7  UNL     1     -39.395   6.709  23.547  1.00  0.00     0.229 C
HETATM    5  C8  UNL     1     -39.478   5.469  22.705  1.00  0.00     0.074 C
HETATM    6  C9  UNL     1     -38.484   4.469  23.252  1.00  0.00     0.006 C
HETATM    7  C10 UNL     1     -38.992   4.067  24.622  1.00  0.00     0.000 C
HETATM    8  C11 UNL     1     -38.978   5.242  25.561  1.00  0.00     0.006 C
HETATM    9  C12 UNL     1     -39.589   6.480  25.016  1.00  0.00     0.074 C
HETATM   10  O3  UNL     1     -38.175   7.335  23.266  1.00  0.00    -0.197 OA
HETATM   11  O4  UNL     1     -38.343   7.964  22.131  1.00  0.00    -0.225 OA
HETATM   12  C13 UNL     1     -38.514   9.331  22.258  1.00  0.00     0.118 C
HETATM   13  C14 UNL     1     -37.139   9.914  22.565  1.00  0.00     0.052 C
HETATM   14  C15 UNL     1     -38.837   9.838  20.842  1.00  0.00     0.052 C
ENDROOT
BRANCH   1  15
HETATM   15  C5  UNL     1     -38.977  10.587  24.332  1.00  0.00     0.040 C
BRANCH  15  16
HETATM   16  C4  UNL     1     -39.685  11.808  24.694  1.00  0.00     0.022 C
BRANCH  16  17
HETATM   17  C3  UNL     1     -40.927  11.814  25.459  1.00  0.00     0.116 C
BRANCH  17  18
HETATM   18  N1  UNL     1     -41.130  12.888  26.373  1.00  0.00    -0.421 N
HETATM   19  C1  UNL     1     -40.377  14.082  26.207  1.00  0.00     0.142 C
HETATM   20  C2  UNL     1     -41.238  12.495  27.752  1.00  0.00     0.142 C
ENDBRANCH  17  18
ENDBRANCH  16  17
ENDBRANCH  15  16
ENDBRANCH   1  15
TORSDOF 4
ENDMDL