MODEL 2
REMARK VINA RESULT: -4.863201900      1.181      1.414
REMARK  5 active torsions:
REMARK  status: ('A' for Active; 'I' for Inactive)
REMARK    1  A    between atoms: C2_2  and  O1_5
REMARK    2  A    between atoms: O1_5  and  C5_6
REMARK    3  A    between atoms: C5_6  and  C6_8
REMARK    4  A    between atoms: C6_8  and  S1_9
REMARK    5  A    between atoms: S1_9  and  C7_10
ROOT
HETATM    1  C7  UNL     1     -39.592  10.190  24.356  1.00  0.00     0.113 A
HETATM    2  N1  UNL     1     -39.449  11.491  24.349  1.00  0.00    -0.339 N
ATOM      3  H1  UNL     1     -38.875  11.938  23.633  1.00  0.00     0.167 HD
HETATM    4  C8  UNL     1     -40.042  12.220  25.261  1.00  0.00     0.084 A
HETATM    5  C9  UNL     1     -40.792  11.620  26.196  1.00  0.00     0.019 A
HETATM    6  S2  UNL     1     -40.615   9.971  25.718  1.00  0.00    -0.067 SA
HETATM    7  C10 UNL     1     -41.446  12.458  27.194  1.00  0.00     0.059 C
HETATM    8  C11 UNL     1     -40.729  13.743  27.366  1.00  0.00     0.086 C
HETATM    9  S3  UNL     1     -40.121  13.984  25.641  1.00  0.00    -0.111 SA
ENDROOT
BRANCH   1  10
HETATM   10  S1  UNL     1     -38.903   8.947  23.239  1.00  0.00    -0.095 SA
BRANCH  10  11
HETATM   11  C6  UNL     1     -37.494   9.661  22.390  1.00  0.00     0.192 C
BRANCH  11  12
HETATM   12  C5  UNL     1     -36.973   8.809  21.309  1.00  0.00     0.269 C
HETATM   13  O2  UNL     1     -37.314   7.601  21.243  1.00  0.00    -0.264 OA
BRANCH  12  14
HETATM   14  O1  UNL     1     -36.106   9.271  20.330  1.00  0.00    -0.311 OA
BRANCH  14  15
HETATM   15  C2  UNL     1     -34.741   8.897  20.362  1.00  0.00     0.060 C
HETATM   16  C1  UNL     1     -33.981   9.857  19.471  1.00  0.00     0.045 C
HETATM   17  C3  UNL     1     -34.560   7.516  19.775  1.00  0.00     0.045 C
HETATM   18  C4  UNL     1     -34.150   8.944  21.729  1.00  0.00     0.045 C
ENDBRANCH  14  15
ENDBRANCH  12  14
ENDBRANCH  11  12
ENDBRANCH  10  11
ENDBRANCH   1  10
TORSDOF 5
ENDMDL