MODEL 3
REMARK VINA RESULT: -6.473140140      4.425      5.862
REMARK  4 active torsions:
REMARK  status: ('A' for Active; 'I' for Inactive)
REMARK    1  A    between atoms: C2_2  and  C3_3
REMARK    2  A    between atoms: C3_3  and  O1_4
REMARK    3  A    between atoms: O1_4  and  C4_5
REMARK       I    between atoms: C4_5  and  N1_7
REMARK    4  A    between atoms: N2_9  and  C5_11
ROOT
HETATM    1  C5  UNL     1     -42.324   6.920  24.004  1.00  0.00     0.122 A
HETATM    2  C6  UNL     1     -42.091   8.202  24.460  1.00  0.00     0.066 A
HETATM    3  C7  UNL     1     -40.852   8.634  24.018  1.00  0.00     0.035 A
HETATM    4  C8  UNL     1     -40.339   7.578  23.278  1.00  0.00     0.163 A
HETATM    5  N3  UNL     1     -41.237   6.567  23.285  1.00  0.00    -0.321 N
ATOM      6  H3  UNL     1     -41.112   5.671  22.817  1.00  0.00     0.169 HD
HETATM    7  O3  UNL     1     -39.149   8.000  22.855  1.00  0.00    -0.269 OA
HETATM    8  C9  UNL     1     -38.884   9.199  23.260  1.00  0.00     0.207 A
HETATM    9  O4  UNL     1     -37.811   9.958  23.049  1.00  0.00    -0.250 OA
HETATM   10  C10 UNL     1     -37.766  11.165  23.571  1.00  0.00     0.290 A
HETATM   11  O5  UNL     1     -36.726  11.834  23.336  1.00  0.00    -0.260 OA
HETATM   12  C11 UNL     1     -38.788  11.688  24.332  1.00  0.00     0.090 A
HETATM   13  C12 UNL     1     -39.910  10.926  24.566  1.00  0.00    -0.040 A
HETATM   14  C13 UNL     1     -41.054  11.413  25.373  1.00  0.00     0.049 C
HETATM   15  C14 UNL     1     -39.941   9.661  24.011  1.00  0.00     0.044 A
ENDROOT
BRANCH   1  16
HETATM   16  N2  UNL     1     -43.491   6.149  24.256  1.00  0.00    -0.281 N
HETATM   17  N1  UNL     1     -43.573   5.217  25.082  1.00  0.00    -0.244 N
HETATM   18  C4  UNL     1     -42.508   4.767  25.915  1.00  0.00     0.379 C
ATOM     19  H1  UNL     1     -44.471   4.742  25.168  1.00  0.00     0.192 HD
HETATM   20  O2  UNL     1     -42.838   4.142  26.951  1.00  0.00    -0.237 OA
ATOM     21  H2  UNL     1     -44.328   6.376  23.719  1.00  0.00     0.188 HD
BRANCH  18  22
HETATM   22  O1  UNL     1     -41.183   4.994  25.623  1.00  0.00    -0.299 OA
BRANCH  22  23
HETATM   23  C3  UNL     1     -40.303   3.922  25.367  1.00  0.00     0.207 C
BRANCH  23  24
HETATM   24  C2  UNL     1     -38.898   4.356  25.572  1.00  0.00    -0.011 C
HETATM   25  C1  UNL     1     -38.186   4.996  24.673  1.00  0.00     0.009 C
ENDBRANCH  23  24
ENDBRANCH  22  23
ENDBRANCH  18  22
ENDBRANCH   1  16
TORSDOF 4
ENDMDL