MODEL 1
REMARK VINA RESULT: -7.119497135      0.000      0.000
REMARK  2 active torsions:
REMARK  status: ('A' for Active; 'I' for Inactive)
REMARK    1  A    between atoms: C2_2  and  C3_3
REMARK    2  A    between atoms: C6_6  and  C7_7
ROOT
HETATM    1  C7  UNL     1     -38.724   9.791  24.267  1.00  0.00     0.258 C
HETATM    2  O1  UNL     1     -37.816  10.268  23.293  1.00  0.00    -0.220 OA
HETATM    3  O2  UNL     1     -37.156   9.267  22.785  1.00  0.00    -0.168 OA
HETATM    4  C8  UNL     1     -37.840   8.635  21.744  1.00  0.00     0.335 C
HETATM    5  C9  UNL     1     -37.071   8.586  20.469  1.00  0.00     0.120 C
HETATM    6  O3  UNL     1     -39.021   9.338  21.552  1.00  0.00    -0.168 OA
HETATM    7  O4  UNL     1     -39.945   9.010  22.394  1.00  0.00    -0.218 OA
HETATM    8  C10 UNL     1     -39.455   8.650  23.653  1.00  0.00     0.160 C
HETATM    9  C11 UNL     1     -40.587   8.111  24.452  1.00  0.00     0.025 C
HETATM   10  C12 UNL     1     -41.648   7.481  23.564  1.00  0.00     0.013 C
HETATM   11  C13 UNL     1     -39.969   6.974  25.250  1.00  0.00     0.010 C
HETATM   12  C14 UNL     1     -39.099   6.316  24.187  1.00  0.00     0.036 C
HETATM   13  C15 UNL     1     -38.457   7.493  23.539  1.00  0.00     0.169 C
HETATM   14  O5  UNL     1     -38.198   7.342  22.197  1.00  0.00    -0.321 OA
ENDROOT
BRANCH   1  15
HETATM   15  C6  UNL     1     -39.562  10.856  24.803  1.00  0.00     0.088 A
HETATM   16  C5  UNL     1     -40.831  10.697  25.312  1.00  0.00     0.038 A
HETATM   17  C4  UNL     1     -41.248  11.951  25.703  1.00  0.00     0.035 A
HETATM   18  C3  UNL     1     -40.223  12.811  25.419  1.00  0.00     0.053 A
HETATM   19  O6  UNL     1     -39.246  12.123  24.888  1.00  0.00    -0.317 OA
BRANCH  18  20
HETATM   20  C2  UNL     1     -40.262  14.291  25.689  1.00  0.00     0.060 C
HETATM   21  C1  UNL     1     -40.291  14.568  27.175  1.00  0.00     0.012 C
ENDBRANCH  18  20
ENDBRANCH   1  15
TORSDOF 2
ENDMDL