MODEL 4
REMARK VINA RESULT: -5.456368136      4.171      5.742
REMARK  4 active torsions:
REMARK  status: ('A' for Active; 'I' for Inactive)
REMARK    1  A    between atoms: C2_2  and  C3_3
REMARK    2  A    between atoms: C3_3  and  C4_4
REMARK    3  A    between atoms: C4_4  and  C5_5
REMARK    4  A    between atoms: N1_7  and  C6_9
ROOT
HETATM    1  C6  UNL     1     -39.305   7.468  23.737  1.00  0.00     0.098 A
HETATM    2  S1  UNL     1     -39.284   5.860  23.174  1.00  0.00    -0.045 SA
HETATM    3  C7  UNL     1     -40.894   5.406  23.565  1.00  0.00     0.121 A
HETATM    4  C8  UNL     1     -41.402   6.541  24.130  1.00  0.00     0.008 A
HETATM    5  C9  UNL     1     -40.580   7.617  24.222  1.00  0.00     0.088 A
HETATM    6  C10 UNL     1     -41.030   8.898  24.818  1.00  0.00     0.103 C
HETATM    7  N2  UNL     1     -41.363   9.908  25.281  1.00  0.00    -0.191 NA
HETATM    8  C11 UNL     1     -42.848   6.567  24.630  1.00  0.00     0.074 C
HETATM    9  C12 UNL     1     -43.717   5.890  23.626  1.00  0.00     0.279 C
HETATM   10  N3  UNL     1     -43.842   4.490  23.714  1.00  0.00     0.107 N
HETATM   11  C13 UNL     1     -44.543   3.987  22.569  1.00  0.00     0.312 C
HETATM   12  C14 UNL     1     -42.693   3.708  23.944  1.00  0.00     0.447 C
HETATM   13  O2  UNL     1     -41.496   4.147  23.334  1.00  0.00    -0.314 OA
ENDROOT
BRANCH   1  14
HETATM   14  N1  UNL     1     -38.263   8.454  23.724  1.00  0.00    -0.353 N
HETATM   15  C3  UNL     1     -38.118   9.270  22.744  1.00  0.00     0.012 C
ATOM     16  H1  UNL     1     -37.621   8.508  24.514  1.00  0.00     0.166 HD
BRANCH  15  17
HETATM   17  C2  UNL     1     -37.065  10.307  22.673  1.00  0.00     0.052 C
HETATM   18  C1  UNL     1     -37.463  11.485  23.542  1.00  0.00     0.011 C
ENDBRANCH  15  17
BRANCH  15  19
HETATM   19  C4  UNL     1     -39.048   9.175  21.631  1.00  0.00     0.066 C
BRANCH  19  20
HETATM   20  C5  UNL     1     -38.858   9.962  20.608  1.00  0.00     0.260 C
HETATM   21  O1  UNL     1     -38.504  10.360  19.492  1.00  0.00    -0.302 OA
ENDBRANCH  19  20
ENDBRANCH  15  19
ENDBRANCH   1  14
TORSDOF 4
ENDMDL