MODEL 2
REMARK VINA RESULT: -5.315208307      3.621      4.967
REMARK  4 active torsions:
REMARK  status: ('A' for Active; 'I' for Inactive)
REMARK    1  A    between atoms: O1_2  and  C2_3
REMARK    2  A    between atoms: C2_3  and  C3_5
REMARK    3  A    between atoms: C3_5  and  O3_6
REMARK    4  A    between atoms: O3_6  and  C4_7
ROOT
HETATM    1  C4  UNL     1     -39.402  12.070  24.796  1.00  0.00     0.112 A
HETATM    2  C5  UNL     1     -40.053  10.955  25.265  1.00  0.00     0.065 A
HETATM    3  C6  UNL     1     -39.749   9.778  24.689  1.00  0.00     0.038 A
HETATM    4  C7  UNL     1     -38.816   9.799  23.683  1.00  0.00     0.061 A
HETATM    5  S1  UNL     1     -38.398  11.444  23.578  1.00  0.00    -0.057 SA
HETATM    6  S2  UNL     1     -38.112   8.517  22.652  1.00  0.00    -0.120 SA
HETATM    7  C8  UNL     1     -38.417   6.881  23.308  1.00  0.00     0.091 C
HETATM    8  C9  UNL     1     -39.734   6.382  22.761  1.00  0.00     0.097 C
HETATM    9  S3  UNL     1     -41.156   7.057  23.632  1.00  0.00    -0.091 SA
HETATM   10  S4  UNL     1     -40.582   8.254  25.267  1.00  0.00    -0.056 SA
ENDROOT
BRANCH   1  11
HETATM   11  O3  UNL     1     -39.503  13.405  25.188  1.00  0.00    -0.334 OA
BRANCH  11  12
HETATM   12  C3  UNL     1     -40.660  13.966  25.712  1.00  0.00     0.287 C
BRANCH  12  13
HETATM   13  C2  UNL     1     -40.408  14.320  27.136  1.00  0.00     0.282 C
HETATM   14  O2  UNL     1     -40.180  15.524  27.425  1.00  0.00    -0.263 OA
BRANCH  13  15
HETATM   15  O1  UNL     1     -40.412  13.397  28.160  1.00  0.00    -0.325 OA
HETATM   16  C1  UNL     1     -41.310  12.299  28.218  1.00  0.00     0.213 C
ENDBRANCH  13  15
ENDBRANCH  12  13
ENDBRANCH  11  12
ENDBRANCH   1  11
TORSDOF 4
ENDMDL