MODEL 3
REMARK VINA RESULT: -7.213380236      1.379      1.536
REMARK  2 active torsions:
REMARK  status: ('A' for Active; 'I' for Inactive)
REMARK    1  A    between atoms: N1_4  and  N2_6
REMARK       I    between atoms: N2_6  and  C4_8
REMARK    2  A    between atoms: C4_8  and  C5_10
ROOT
HETATM    1  C5  UNL     1       0.865   7.933  23.516  1.00  0.00     0.097 A
HETATM    2  C6  UNL     1      -0.409   7.748  23.974  1.00  0.00     0.122 A
HETATM    3 CL1  UNL     1      -1.017   6.130  24.335  1.00  0.00    -0.063 Cl
HETATM    4  N3  UNL     1      -1.252   8.805  24.168  1.00  0.00    -0.332 N
ATOM      5  H3  UNL     1      -2.197   8.624  24.510  1.00  0.00     0.168 HD
HETATM    6  C7  UNL     1      -0.886  10.073  23.924  1.00  0.00     0.110 A
HETATM    7  C8  UNL     1       0.385  10.338  23.460  1.00  0.00     0.011 A
HETATM    8  C9  UNL     1       1.228   9.280  23.266  1.00  0.00     0.075 A
HETATM    9  N4  UNL     1       2.537   9.569  22.786  1.00  0.00    -0.101 NA
HETATM   10  C10 UNL     1       0.862  11.726  23.166  1.00  0.00     0.046 C
HETATM   11  C11 UNL     1       0.079  12.666  24.058  1.00  0.00     0.024 C
HETATM   12  C12 UNL     1      -1.405  12.495  23.735  1.00  0.00     0.121 C
HETATM   13  N5  UNL     1      -1.768  11.170  24.128  1.00  0.00    -0.376 N
ATOM     14  H5  UNL     1      -2.676  11.007  24.562  1.00  0.00     0.161 HD
ENDROOT
BRANCH   1  15
HETATM   15  C4  UNL     1       1.852   6.900  23.270  1.00  0.00     0.275 C
HETATM   16  N2  UNL     1       2.853   6.383  24.079  1.00  0.00    -0.266 N
ATOM     17  H2  UNL     1       2.980   6.740  25.026  1.00  0.00     0.190 HD
HETATM   18  O1  UNL     1       1.795   6.362  22.096  1.00  0.00    -0.266 OA
BRANCH  16  19
HETATM   19  N1  UNL     1       3.707   5.348  23.584  1.00  0.00    -0.307 N
HETATM   20  C2  UNL     1       3.526   4.127  23.933  1.00  0.00    -0.004 C
HETATM   21  C1  UNL     1       4.430   3.074  23.401  1.00  0.00     0.064 C
HETATM   22  C3  UNL     1       2.434   3.751  24.857  1.00  0.00     0.064 C
ATOM     23  H1  UNL     1       4.468   5.584  22.947  1.00  0.00     0.186 HD
ENDBRANCH  16  19
ENDBRANCH   1  15
TORSDOF 2
ENDMDL