MODEL 2
REMARK VINA RESULT: -6.660855182      4.140      6.700
REMARK  4 active torsions:
REMARK  status: ('A' for Active; 'I' for Inactive)
REMARK    1  A    between atoms: S1_2  and  C2_3
REMARK    2  A    between atoms: C3_6  and  N2_7
REMARK    3  A    between atoms: C4_12  and  N4_13
REMARK    4  A    between atoms: C10_19  and  O1_20
ROOT
HETATM    1  C2  UNL     1      -0.932  11.350  24.047  1.00  0.00     0.110 A
HETATM    2  N1  UNL     1      -2.157  11.443  24.643  1.00  0.00    -0.184 N
ATOM      3  H1  UNL     1      -2.654  12.333  24.691  1.00  0.00     0.185 HD
HETATM    4  C3  UNL     1      -2.679  10.339  25.158  1.00  0.00     0.678 A
HETATM    5  N3  UNL     1      -2.039   9.167  25.104  1.00  0.00    -0.175 N
ATOM      6  H3  UNL     1      -2.485   8.348  25.517  1.00  0.00     0.186 HD
HETATM    7  C4  UNL     1      -0.818   9.022  24.522  1.00  0.00     0.144 A
HETATM    8  C11 UNL     1      -0.262  10.161  23.981  1.00  0.00     0.123 A
HETATM    9  C12 UNL     1       1.021  10.119  23.344  1.00  0.00     0.106 C
HETATM   10  N5  UNL     1       2.068  10.083  22.846  1.00  0.00    -0.191 NA
ENDROOT
BRANCH   1  11
HETATM   11  S1  UNL     1      -0.243  12.849  23.356  1.00  0.00    -0.115 SA
HETATM   12  C1  UNL     1      -0.705  13.039  21.621  1.00  0.00     0.097 C
ENDBRANCH   1  11
BRANCH   7  13
HETATM   13  N4  UNL     1      -0.170   7.764  24.489  1.00  0.00    -0.339 N
HETATM   14  C5  UNL     1      -0.374   6.914  23.346  1.00  0.00     0.127 C
HETATM   15  C6  UNL     1       0.855   6.218  22.854  1.00  0.00     0.024 C
HETATM   16  C7  UNL     1       1.520   5.532  24.037  1.00  0.00    -0.013 C
HETATM   17  C8  UNL     1       2.738   4.752  23.662  1.00  0.00     0.010 C
HETATM   18  C9  UNL     1       1.935   6.675  24.974  1.00  0.00     0.058 C
HETATM   19  C10 UNL     1       0.686   7.297  25.548  1.00  0.00     0.221 C
BRANCH  19  20
HETATM   20  O1  UNL     1       1.054   8.308  26.429  1.00  0.00    -0.377 OA
ATOM     21  H1  UNL     1       1.893   8.697  26.212  1.00  0.00     0.212 HD
ENDBRANCH  19  20
ENDBRANCH   7  13
BRANCH   4  22
HETATM   22  N2  UNL     1      -3.836  10.416  25.725  1.00  0.00    -0.234 N
ATOM     23  H22 UNL     1      -4.666  10.609  25.163  1.00  0.00     0.174 HD
ATOM     24  H21 UNL     1      -3.891  10.277  26.734  1.00  0.00     0.174 HD
ENDBRANCH   4  22
TORSDOF 4
ENDMDL