MODEL 4
REMARK VINA RESULT: -5.862441918      2.886      3.444
REMARK  3 active torsions:
REMARK  status: ('A' for Active; 'I' for Inactive)
REMARK    1  A    between atoms: C2_2  and  C3_3
REMARK    2  A    between atoms: C5_7  and  N1_8
REMARK    3  A    between atoms: N1_8  and  C6_10
ROOT
HETATM    1  N1  UNL     1      -0.120   8.271  23.842  1.00  0.00    -0.368 N
ATOM      2  H1  UNL     1      -0.542   7.796  23.044  1.00  0.00     0.161 HD
ENDROOT
BRANCH   1   3
HETATM    3  C5  UNL     1       1.237   7.983  24.079  1.00  0.00     0.147 C
HETATM    4  C4  UNL     1       1.985   7.716  22.776  1.00  0.00     0.067 C
HETATM    5  C2  UNL     1       1.923   6.220  22.850  1.00  0.00     0.097 C
HETATM    6  C1  UNL     1       0.755   5.600  22.091  1.00  0.00     0.039 C
HETATM    7  S2  UNL     1       1.558   6.250  24.617  1.00  0.00    -0.123 SA
BRANCH   5   8
HETATM    8  C3  UNL     1       3.221   5.611  22.493  1.00  0.00     0.192 C
HETATM    9  O1  UNL     1       3.511   5.439  21.289  1.00  0.00    -0.647 OA
HETATM   10  O2  UNL     1       4.137   5.218  23.446  1.00  0.00    -0.647 OA
ENDBRANCH   5   8
ENDBRANCH   1   3
BRANCH   1  11
HETATM   11  C6  UNL     1      -0.897   9.052  24.499  1.00  0.00     0.113 A
HETATM   12  S1  UNL     1      -1.388  10.645  24.003  1.00  0.00     0.006 SA
HETATM   13  N2  UNL     1      -2.359  11.034  25.317  1.00  0.00    -0.312 N
HETATM   14  C7  UNL     1      -2.300   9.962  26.104  1.00  0.00     0.147 A
ATOM     15  H2  UNL     1      -2.879  11.897  25.476  1.00  0.00     0.175 HD
HETATM   16  N3  UNL     1      -3.031   9.973  27.325  1.00  0.00    -0.080 NA
HETATM   17  C8  UNL     1      -1.540   8.933  25.679  1.00  0.00     0.110 A
HETATM   18 CL1  UNL     1      -1.369   7.434  26.637  1.00  0.00    -0.078 Cl
ENDBRANCH   1  11
TORSDOF 3
ENDMDL