MODEL 2
REMARK VINA RESULT: -6.222269110      2.603      6.349
REMARK  4 active torsions:
REMARK  status: ('A' for Active; 'I' for Inactive)
REMARK    1  A    between atoms: C2_2  and  C3_3
REMARK    2  A    between atoms: C5_7  and  C7_9
REMARK       I    between atoms: C7_9  and  N1_11
REMARK    3  A    between atoms: N1_11  and  C8_13
REMARK    4  A    between atoms: N2_19  and  O4_20
ROOT
HETATM    1  C3  UNL     1       2.322   5.123  23.897  1.00  0.00     0.189 C
HETATM    2  C4  UNL     1       2.139   3.677  24.321  1.00  0.00     0.074 C
HETATM    3  O1  UNL     1       2.070   5.999  24.950  1.00  0.00    -0.206 OA
HETATM    4  O2  UNL     1       0.799   5.977  25.265  1.00  0.00    -0.215 OA
HETATM    5  C5  UNL     1       0.024   6.661  24.321  1.00  0.00     0.204 C
HETATM    6  C6  UNL     1      -1.315   5.926  24.176  1.00  0.00     0.063 C
HETATM    7  C12 UNL     1       0.695   6.646  22.989  1.00  0.00     0.232 C
HETATM    8 CL1  UNL     1       1.609   8.149  22.737  1.00  0.00    -0.102 Cl
HETATM    9  N2  UNL     1       1.518   5.477  22.773  1.00  0.00    -0.136 NA
ENDROOT
BRANCH   5  10
HETATM   10  C7  UNL     1      -0.307   8.019  24.817  1.00  0.00     0.259 C
HETATM   11  O3  UNL     1       0.382   8.531  25.752  1.00  0.00    -0.270 OA
HETATM   12  N1  UNL     1      -1.394   8.723  24.229  1.00  0.00    -0.350 N
ATOM     13  H1  UNL     1      -1.921   8.275  23.479  1.00  0.00     0.163 HD
BRANCH  12  14
HETATM   14  C8  UNL     1      -1.780  10.053  24.658  1.00  0.00     0.022 C
HETATM   15  C9  UNL     1      -3.002  10.544  23.911  1.00  0.00     0.037 C
HETATM   16  C10 UNL     1      -0.628  10.988  24.328  1.00  0.00     0.037 C
HETATM   17  C11 UNL     1      -2.104  10.101  26.133  1.00  0.00     0.037 C
ENDBRANCH  12  14
ENDBRANCH   5  10
BRANCH   9  18
HETATM   18  O4  UNL     1       0.740   4.436  22.371  1.00  0.00    -0.308 OA
ATOM     19  H4  UNL     1      -0.179   4.679  22.348  1.00  0.00     0.237 HD
ENDBRANCH   9  18
BRANCH   1  20
HETATM   20  C2  UNL     1       3.792   5.269  23.577  1.00  0.00     0.022 C
HETATM   21  C1  UNL     1       4.283   4.866  22.419  1.00  0.00     0.011 C
ENDBRANCH   1  20
TORSDOF 4
ENDMDL