MODEL 2
REMARK VINA RESULT: -6.971253202      1.839      2.639
REMARK  7 active torsions:
REMARK  status: ('A' for Active; 'I' for Inactive)
REMARK    1  A    between atoms: C2_2  and  C3_3
REMARK    2  A    between atoms: C4_4  and  C5_5
REMARK    3  A    between atoms: C6_7  and  C7_8
REMARK    4  A    between atoms: C7_8  and  C8_9
REMARK    5  A    between atoms: C10_11  and  O1_12
REMARK    6  A    between atoms: N2_18  and  N3_19
REMARK    7  A    between atoms: C13_22  and  N4_23
ROOT
HETATM    1  C8  UNL     1      -0.581   7.913  25.102  1.00  0.00     0.031 C
HETATM    2  C9  UNL     1       0.468   7.487  24.137  1.00  0.00     0.048 C
HETATM    3  C10 UNL     1       1.713   7.164  24.958  1.00  0.00     0.169 C
HETATM    4  C11 UNL     1       1.236   7.133  26.365  1.00  0.00     0.049 A
HETATM    5  N1  UNL     1       1.887   6.766  27.475  1.00  0.00    -0.351 N
ATOM      6  H1  UNL     1       2.855   6.451  27.405  1.00  0.00     0.166 HD
HETATM    7  C12 UNL     1       1.294   6.802  28.681  1.00  0.00     0.208 A
HETATM    8  N2  UNL     1       0.029   7.215  28.771  1.00  0.00    -0.242 N
HETATM    9  C13 UNL     1      -0.676   7.597  27.683  1.00  0.00     0.130 A
HETATM   10  C14 UNL     1      -0.070   7.561  26.447  1.00  0.00     0.017 A
ENDROOT
BRANCH   1  11
HETATM   11  C7  UNL     1      -0.862   9.399  25.054  1.00  0.00     0.038 C
BRANCH  11  12
HETATM   12  C6  UNL     1       0.357  10.115  24.614  1.00  0.00    -0.010 C
HETATM   13  C2  UNL     1       0.313  11.153  23.803  1.00  0.00    -0.012 C
HETATM   14  C1  UNL     1       1.531  11.841  23.383  1.00  0.00     0.058 C
BRANCH  13  15
HETATM   15  C3  UNL     1      -0.951  11.659  23.288  1.00  0.00    -0.071 C
HETATM   16  C4  UNL     1      -1.995  12.073  22.846  1.00  0.00    -0.086 C
BRANCH  16  17
HETATM   17  C5  UNL     1      -3.266  12.563  22.299  1.00  0.00     0.208 C
HETATM   18 CL1  UNL     1      -3.100  13.198  20.666  1.00  0.00    -0.117 Cl
ENDBRANCH  16  17
ENDBRANCH  13  15
ENDBRANCH  11  12
ENDBRANCH   1  11
BRANCH   3  19
HETATM   19  O1  UNL     1       2.221   5.942  24.577  1.00  0.00    -0.389 OA
ATOM     20  H1  UNL     1       1.746   5.245  25.012  1.00  0.00     0.210 HD
ENDBRANCH   3  19
BRANCH   9  21
HETATM   21  N4  UNL     1      -1.895   7.988  27.816  1.00  0.00    -0.383 N
ATOM     22  H42 UNL     1      -2.552   7.478  28.408  1.00  0.00     0.157 HD
ATOM     23  H41 UNL     1      -2.216   8.822  27.324  1.00  0.00     0.157 HD
ENDBRANCH   9  21
BRANCH   8  24
HETATM   24  N3  UNL     1      -0.562   7.239  30.054  1.00  0.00    -0.336 N
ATOM     25  H32 UNL     1      -0.381   6.490  30.722  1.00  0.00     0.177 HD
ATOM     26  H31 UNL     1      -1.166   8.028  30.281  1.00  0.00     0.177 HD
ENDBRANCH   8  24
TORSDOF 7
ENDMDL