MODEL 4
REMARK VINA RESULT: -6.735706435      4.307      6.680
REMARK  5 active torsions:
REMARK  status: ('A' for Active; 'I' for Inactive)
REMARK    1  A    between atoms: O1_1  and  N1_3
REMARK    2  A    between atoms: C1_5  and  O2_6
REMARK    3  A    between atoms: C1_5  and  C2_8
REMARK    4  A    between atoms: C5_11  and  O3_12
REMARK    5  A    between atoms: C7_16  and  C8_17
ROOT
HETATM    1  C2  UNL     1       2.443   5.652  21.952  1.00  0.00     0.072 C
HETATM    2  C3  UNL     1       0.917   5.564  22.089  1.00  0.00     0.016 C
HETATM    3  C4  UNL     1       0.680   6.061  23.529  1.00  0.00     0.041 C
HETATM    4  C5  UNL     1       1.759   5.252  24.191  1.00  0.00     0.086 C
HETATM    5  C6  UNL     1       1.462   3.770  24.158  1.00  0.00     0.207 C
HETATM    6  O4  UNL     1       2.333   3.228  23.180  1.00  0.00    -0.378 OA
HETATM    7  C7  UNL     1       3.480   3.944  23.510  1.00  0.00     0.166 C
HETATM    8  C12 UNL     1       2.992   5.341  23.312  1.00  0.00     0.068 C
ENDROOT
BRANCH   1   9
HETATM    9  C1  UNL     1       2.717   7.044  21.503  1.00  0.00     0.140 C
HETATM   10  N1  UNL     1       3.321   7.291  20.371  1.00  0.00    -0.251 N
ATOM     11  H1  UNL     1       3.605   6.497  19.796  1.00  0.00     0.196 HD
BRANCH  10  12
HETATM   12  O1  UNL     1       3.596   8.544  19.912  1.00  0.00    -0.288 OA
ATOM     13  H1  UNL     1       3.459   8.823  19.015  1.00  0.00     0.244 HD
ENDBRANCH  10  12
BRANCH   9  14
HETATM   14  O2  UNL     1       2.363   8.179  22.226  1.00  0.00    -0.348 OA
ATOM     15  H2  UNL     1       1.846   8.004  23.003  1.00  0.00     0.219 HD
ENDBRANCH   9  14
ENDBRANCH   1   9
BRANCH   4  16
HETATM   16  O3  UNL     1       2.076   5.703  25.458  1.00  0.00    -0.387 OA
ATOM     17  H3  UNL     1       2.936   5.425  25.749  1.00  0.00     0.210 HD
ENDBRANCH   4  16
BRANCH   7  18
HETATM   18  C8  UNL     1       4.698   3.528  22.895  1.00  0.00     0.017 A
HETATM   19  C9  UNL     1       5.039   3.300  21.586  1.00  0.00     0.152 A
HETATM   20  O5  UNL     1       6.309   2.926  21.515  1.00  0.00    -0.332 OA
HETATM   21  C10 UNL     1       6.836   2.889  22.690  1.00  0.00     0.165 A
HETATM   22  C11 UNL     1       5.875   3.257  23.602  1.00  0.00     0.067 A
HETATM   23 CL1  UNL     1       6.044   3.380  25.352  1.00  0.00    -0.082 Cl
ENDBRANCH   7  18
TORSDOF 5
ENDMDL