MODEL 2
REMARK VINA RESULT: -6.131592718      2.590      2.917
REMARK  4 active torsions:
REMARK  status: ('A' for Active; 'I' for Inactive)
REMARK    1  A    between atoms: C6_9  and  C7_10
REMARK       I    between atoms: C7_10  and  N2_12
REMARK    2  A    between atoms: N2_12  and  N3_14
REMARK    3  A    between atoms: N3_14  and  C8_16
REMARK    4  A    between atoms: C8_16  and  S2_18
ROOT
HETATM    1  C7  UNL     1      -1.209   8.531  24.552  1.00  0.00     0.272 C
HETATM    2  O1  UNL     1      -1.035   8.296  25.808  1.00  0.00    -0.266 OA
HETATM    3  N2  UNL     1      -1.011   7.447  23.701  1.00  0.00    -0.264 N
ATOM      4  H2  UNL     1      -1.141   7.549  22.694  1.00  0.00     0.190 HD
ENDROOT
BRANCH   1   5
HETATM    5  C6  UNL     1      -1.592   9.878  24.174  1.00  0.00     0.056 A
HETATM    6  C2  UNL     1      -0.741  10.913  23.923  1.00  0.00    -0.022 A
HETATM    7  C1  UNL     1       0.738  10.805  24.120  1.00  0.00     0.051 C
HETATM    8  C3  UNL     1      -1.263  12.152  23.511  1.00  0.00     0.056 A
HETATM    9 CL1  UNL     1      -0.142  13.444  23.204  1.00  0.00    -0.082 Cl
HETATM   10  C4  UNL     1      -2.608  12.338  23.360  1.00  0.00     0.112 A
HETATM   11  N1  UNL     1      -3.424  11.319  23.609  1.00  0.00    -0.373 N
HETATM   12  C5  UNL     1      -2.966  10.134  24.000  1.00  0.00     0.105 A
ATOM     13  H1  UNL     1      -4.430  11.450  23.499  1.00  0.00     0.164 HD
ENDBRANCH   1   5
BRANCH   3  14
HETATM   14  N3  UNL     1      -0.624   6.201  24.255  1.00  0.00    -0.281 N
ATOM     15  H3  UNL     1      -1.277   5.700  24.858  1.00  0.00     0.188 HD
BRANCH  14  16
HETATM   16  C8  UNL     1       0.643   5.637  23.993  1.00  0.00     0.164 C
HETATM   17  S1  UNL     1       1.981   6.550  24.209  1.00  0.00    -0.050 SA
BRANCH  16  18
HETATM   18  S2  UNL     1       0.735   3.949  23.436  1.00  0.00    -0.014 SA
HETATM   19  S3  UNL     1       2.412   3.038  24.388  1.00  0.00    -0.005 SA
ENDBRANCH  16  18
ENDBRANCH  14  16
ENDBRANCH   3  14
TORSDOF 4
ENDMDL