MODEL 5
REMARK VINA RESULT: -6.323443397      2.941      5.547
REMARK  3 active torsions:
REMARK  status: ('A' for Active; 'I' for Inactive)
REMARK    1  A    between atoms: C2_2  and  C4_4
REMARK    2  A    between atoms: C4_4  and  C5_5
REMARK    3  A    between atoms: C9_18  and  N5_19
ROOT
HETATM    1  C5  UNL     1       0.531   7.294  24.393  1.00  0.00     0.141 A
HETATM    2  N1  UNL     1      -0.724   6.995  24.410  1.00  0.00    -0.282 N
ATOM      3  H1  UNL     1      -0.982   6.012  24.500  1.00  0.00     0.188 HD
HETATM    4  N2  UNL     1      -1.750   7.935  24.312  1.00  0.00    -0.292 N
ATOM      5  H2  UNL     1      -2.727   7.645  24.329  1.00  0.00     0.187 HD
HETATM    6  C6  UNL     1      -1.404   9.300  24.187  1.00  0.00     0.143 A
HETATM    7  C7  UNL     1      -0.059   9.595  24.172  1.00  0.00     0.183 A
HETATM    8  N3  UNL     1       0.319  10.873  24.055  1.00  0.00    -0.315 N
ATOM      9  H3  UNL     1       1.311  11.108  24.042  1.00  0.00     0.170 HD
HETATM   10  C8  UNL     1      -0.609  11.862  23.954  1.00  0.00     0.157 A
HETATM   11 BR1  UNL     1       0.057  13.643  23.794  1.00  0.00    -0.010 Br
HETATM   12  N4  UNL     1      -1.922  11.615  23.965  1.00  0.00    -0.321 N
ATOM     13  H4  UNL     1      -2.603  12.370  23.888  1.00  0.00     0.169 HD
HETATM   14  C9  UNL     1      -2.316  10.317  24.084  1.00  0.00     0.134 A
HETATM   15  O1  UNL     1       0.915   8.619  24.272  1.00  0.00    -0.277 OA
ENDROOT
BRANCH   1  16
HETATM   16  C4  UNL     1       1.585   6.250  24.500  1.00  0.00     0.090 C
BRANCH  16  17
HETATM   17  C2  UNL     1       2.390   6.190  23.216  1.00  0.00    -0.015 C
HETATM   18  C1  UNL     1       1.438   5.635  22.150  1.00  0.00     0.010 C
HETATM   19  C3  UNL     1       3.604   5.330  23.350  1.00  0.00     0.010 C
ENDBRANCH  16  17
ENDBRANCH   1  16
BRANCH  14  20
HETATM   20  N5  UNL     1      -3.560  10.093  24.093  1.00  0.00    -0.383 N
ATOM     21  H52 UNL     1      -4.044  10.132  23.195  1.00  0.00     0.157 HD
ATOM     22  H51 UNL     1      -4.059   9.883  24.957  1.00  0.00     0.157 HD
ENDBRANCH  14  20
TORSDOF 3
ENDMDL