MODEL 2
REMARK VINA RESULT: -6.892130875      4.028      5.989
REMARK  3 active torsions:
REMARK  status: ('A' for Active; 'I' for Inactive)
REMARK    1  A    between atoms: C8_10  and  S1_11
REMARK    2  A    between atoms: S1_11  and  C9_12
REMARK    3  A    between atoms: C11_17  and  N4_18
ROOT
HETATM    1  C9  UNL     1       2.486   4.445  18.869  1.00  0.00     0.206 C
HETATM    2  C10 UNL     1       2.877   5.624  18.097  1.00  0.00     0.069 C
HETATM    3  N2  UNL     1       3.173   6.574  17.481  1.00  0.00    -0.197 NA
ENDROOT
BRANCH   1   4
HETATM    4  S1  UNL     1       1.991   5.005  20.520  1.00  0.00    -0.080 SA
BRANCH   4   5
HETATM    5  C8  UNL     1       3.075   4.344  21.771  1.00  0.00     0.148 A
HETATM    6  N1  UNL     1       2.557   3.613  22.772  1.00  0.00    -0.323 N
HETATM    7  C7  UNL     1       3.356   3.096  23.737  1.00  0.00     0.114 A
ATOM      8  H1  UNL     1       1.552   3.445  22.806  1.00  0.00     0.169 HD
HETATM    9  C6  UNL     1       4.726   3.294  23.738  1.00  0.00     0.030 A
HETATM   10  N5  UNL     1       2.604   2.387  24.700  1.00  0.00    -0.354 N
HETATM   11  C5  UNL     1       5.785   2.829  24.642  1.00  0.00     0.051 C
HETATM   12  C11 UNL     1       5.239   4.053  22.693  1.00  0.00     0.110 A
HETATM   13  C4  UNL     1       5.396   1.642  25.456  1.00  0.00     0.042 C
HETATM   14  C3  UNL     1       4.259   1.842  26.378  1.00  0.00    -0.047 C
HETATM   15  C2  UNL     1       4.542   1.712  27.653  1.00  0.00    -0.025 C
HETATM   16  C12 UNL     1       2.832   2.163  26.113  1.00  0.00     0.209 C
HETATM   17  C1  UNL     1       3.589   1.860  28.784  1.00  0.00     0.036 C
HETATM   18 CL1  UNL     1       1.790   0.884  26.714  1.00  0.00    -0.098 Cl
HETATM   19  N3  UNL     1       4.394   4.554  21.742  1.00  0.00    -0.323 N
ATOM     20  H3  UNL     1       4.786   5.109  20.981  1.00  0.00     0.169 HD
ATOM     21  H5  UNL     1       1.752   1.960  24.338  1.00  0.00     0.163 HD
BRANCH  12  22
HETATM   22  N4  UNL     1       6.458   4.362  22.545  1.00  0.00    -0.385 N
ATOM     23  H42 UNL     1       7.108   3.576  22.549  1.00  0.00     0.157 HD
ATOM     24  H41 UNL     1       6.813   5.309  22.406  1.00  0.00     0.157 HD
ENDBRANCH  12  22
ENDBRANCH   4   5
ENDBRANCH   1   4
TORSDOF 3
ENDMDL