MODEL 3
REMARK VINA RESULT: -7.747916057      3.324      6.587
REMARK  4 active torsions:
REMARK  status: ('A' for Active; 'I' for Inactive)
REMARK    1  A    between atoms: C4_4  and  N1_5
REMARK    2  A    between atoms: N1_5  and  C5_7
REMARK    3  A    between atoms: C6_10  and  C7_11
REMARK    4  A    between atoms: C7_11  and  N3_12
ROOT
HETATM    1  C5  UNL     1      -0.328   8.180  24.834  1.00  0.00     0.134 A
HETATM    2  N2  UNL     1      -0.391   8.101  26.175  1.00  0.00    -0.326 N
ATOM      3  H2  UNL     1      -1.200   8.513  26.640  1.00  0.00     0.169 HD
HETATM    4  C6  UNL     1       0.546   7.514  26.942  1.00  0.00     0.126 A
HETATM    5  N4  UNL     1       1.592   6.989  26.281  1.00  0.00    -0.325 N
ATOM      6  H4  UNL     1       2.328   6.533  26.821  1.00  0.00     0.169 HD
HETATM    7  C8  UNL     1       1.716   7.034  24.943  1.00  0.00     0.139 A
HETATM    8  N5  UNL     1       2.679   6.571  24.092  1.00  0.00    -0.337 N
ATOM      9  H5  UNL     1       3.532   6.075  24.351  1.00  0.00     0.168 HD
HETATM   10  C9  UNL     1       2.287   6.894  22.855  1.00  0.00     0.182 A
HETATM   11  N6  UNL     1       1.125   7.538  22.883  1.00  0.00    -0.346 N
ATOM     12  H6  UNL     1       0.614   7.892  22.075  1.00  0.00     0.167 HD
HETATM   13  C10 UNL     1       0.747   7.640  24.163  1.00  0.00     0.122 A
ENDROOT
BRANCH   1  14
HETATM   14  N1  UNL     1      -1.257   8.749  24.224  1.00  0.00    -0.370 N
ATOM     15  H1  UNL     1      -2.072   8.147  24.103  1.00  0.00     0.161 HD
BRANCH  14  16
HETATM   16  C4  UNL     1      -1.445  10.023  23.665  1.00  0.00     0.085 C
HETATM   17  C3  UNL     1      -0.493  11.033  24.334  1.00  0.00     0.049 C
HETATM   18  C2  UNL     1      -0.047  12.028  23.308  1.00  0.00     0.074 C
HETATM   19  C1  UNL     1       0.176  13.409  23.919  1.00  0.00     0.032 C
HETATM   20  N7  UNL     1      -0.920  12.150  22.198  1.00  0.00    -0.417 N
HETATM   21  C13 UNL     1      -2.229  12.614  22.458  1.00  0.00     0.114 C
ATOM     22  H7  UNL     1      -0.617  11.912  21.254  1.00  0.00     0.153 HD
HETATM   23  C12 UNL     1      -3.235  11.592  22.814  1.00  0.00     0.021 C
HETATM   24  C11 UNL     1      -2.831  10.592  23.835  1.00  0.00     0.027 C
ENDBRANCH  14  16
ENDBRANCH   1  14
BRANCH   4  25
HETATM   25  C7  UNL     1       0.433   7.453  28.395  1.00  0.00     0.167 C
BRANCH  25  26
HETATM   26  N3  UNL     1      -0.655   7.152  28.961  1.00  0.00    -0.232 N
HETATM   27  F1  UNL     1      -0.805   6.002  29.640  1.00  0.00    -0.102 F
ATOM     28  H3  UNL     1      -1.440   7.799  28.902  1.00  0.00     0.199 HD
ENDBRANCH  25  26
ENDBRANCH   4  25
TORSDOF 4
ENDMDL