MODEL 5
REMARK VINA RESULT: -6.079665677      2.602      8.059
REMARK  10 active torsions:
REMARK  status: ('A' for Active; 'I' for Inactive)
REMARK    1  A    between atoms: C2_2  and  C3_3
REMARK    2  A    between atoms: C3_3  and  C4_4
REMARK    3  A    between atoms: C5_5  and  C6_6
REMARK    4  A    between atoms: C8_10  and  C9_11
REMARK    5  A    between atoms: C12_16  and  O3_17
REMARK    6  A    between atoms: C13_19  and  C14_20
REMARK    7  A    between atoms: C14_20  and  C15_21
REMARK    8  A    between atoms: C15_21  and  C16_22
REMARK    9  A    between atoms: C22_34  and  O6_35
REMARK   10  A    between atoms: C23_37  and  C24_38
REMARK       I    between atoms: C24_38  and  N4_40
ROOT
HETATM    1  C6  UNL     1     -67.000  10.946   8.571  1.00  0.00     0.170 C
HETATM    2  O1  UNL     1     -66.701  10.255   9.732  1.00  0.00    -0.309 OA
HETATM    3  C7  UNL     1     -66.732  10.572  11.049  1.00  0.00     0.282 C
HETATM    4  O2  UNL     1     -65.740  10.930  11.709  1.00  0.00    -0.263 OA
HETATM    5  C8  UNL     1     -68.047  10.508  11.859  1.00  0.00     0.186 C
HETATM    6  N1  UNL     1     -68.735   9.384  11.333  1.00  0.00    -0.359 N
ATOM      7  H1  UNL     1     -68.447   9.205  10.371  1.00  0.00     0.162 HD
HETATM    8  C12 UNL     1     -69.684   8.454  11.740  1.00  0.00     0.135 C
HETATM    9  C13 UNL     1     -71.008   8.575  12.333  1.00  0.00     0.159 C
HETATM   10  N2  UNL     1     -71.920   7.591  11.657  1.00  0.00    -0.347 N
ATOM     11  H2  UNL     1     -72.471   6.941  12.218  1.00  0.00     0.163 HD
HETATM   12  C18 UNL     1     -72.017   7.562  10.253  1.00  0.00     0.240 C
HETATM   13  O4  UNL     1     -72.533   6.554   9.708  1.00  0.00    -0.271 OA
HETATM   14  C19 UNL     1     -71.571   8.606   9.294  1.00  0.00     0.172 C
HETATM   15  C20 UNL     1     -72.810   8.900   8.429  1.00  0.00     0.042 C
HETATM   16  N3  UNL     1     -70.558   8.165   8.380  1.00  0.00    -0.346 N
ATOM     17  H3  UNL     1     -70.336   7.171   8.429  1.00  0.00     0.163 HD
HETATM   18  C21 UNL     1     -69.833   8.881   7.441  1.00  0.00     0.248 C
HETATM   19  O5  UNL     1     -69.675   8.319   6.297  1.00  0.00    -0.271 OA
HETATM   20  C22 UNL     1     -69.204  10.209   7.548  1.00  0.00     0.225 C
HETATM   21  C23 UNL     1     -67.684  10.142   7.487  1.00  0.00     0.149 C
ENDROOT
BRANCH   1  22
HETATM   22  C5  UNL     1     -65.669  11.345   7.957  1.00  0.00     0.002 C
HETATM   23  C4  UNL     1     -64.592  10.601   8.203  1.00  0.00    -0.028 C
BRANCH  23  24
HETATM   24  C3  UNL     1     -63.256  10.918   7.644  1.00  0.00     0.026 C
BRANCH  24  25
HETATM   25  C2  UNL     1     -62.176  10.005   8.191  1.00  0.00    -0.001 C
HETATM   26  C1  UNL     1     -62.220   9.967   9.708  1.00  0.00     0.005 C
ENDBRANCH  24  25
ENDBRANCH  23  24
ENDBRANCH   1  22
BRANCH  21  27
HETATM   27  C24 UNL     1     -67.276  10.728   6.186  1.00  0.00     0.227 C
HETATM   28  O7  UNL     1     -67.119  11.952   6.065  1.00  0.00    -0.273 OA
HETATM   29  N4  UNL     1     -67.069   9.871   5.087  1.00  0.00    -0.365 N
HETATM   30  C25 UNL     1     -66.662  10.425   3.786  1.00  0.00     0.149 C
ATOM     31  H4  UNL     1     -67.202   8.865   5.193  1.00  0.00     0.161 HD
ENDBRANCH  21  27
BRANCH  20  32
HETATM   32  O6  UNL     1     -69.730  10.973   6.487  1.00  0.00    -0.385 OA
ATOM     33  H6  UNL     1     -70.355  10.411   6.045  1.00  0.00     0.210 HD
ENDBRANCH  20  32
BRANCH   5  34
HETATM   34  C9  UNL     1     -68.702  11.861  11.583  1.00  0.00     0.010 C
HETATM   35  C10 UNL     1     -69.301  12.254  12.955  1.00  0.00     0.012 C
HETATM   36  C11 UNL     1     -69.931  11.704  10.704  1.00  0.00     0.012 C
ENDBRANCH   5  34
BRANCH   8  37
HETATM   37  O3  UNL     1     -69.404   7.172  11.579  1.00  0.00    -0.348 OA
ATOM     38  H3  UNL     1     -69.941   6.673  10.975  1.00  0.00     0.219 HD
ENDBRANCH   8  37
BRANCH   9  39
HETATM   39  C14 UNL     1     -71.127   8.628  13.761  1.00  0.00     0.033 C
BRANCH  39  40
HETATM   40  C15 UNL     1     -70.082   8.449  14.760  1.00  0.00     0.002 C
BRANCH  40  41
HETATM   41  C16 UNL     1     -70.212   7.411  15.820  1.00  0.00    -0.004 C
HETATM   42  C17 UNL     1     -70.284   6.060  15.060  1.00  0.00     0.005 C
ENDBRANCH  40  41
ENDBRANCH  39  40
ENDBRANCH   9  39
TORSDOF 10
ENDMDL