MODEL 1
REMARK VINA RESULT: -6.606071088      0.000      0.000
REMARK  7 active torsions:
REMARK  status: ('A' for Active; 'I' for Inactive)
REMARK    1  A    between atoms: C2_2  and  C3_3
REMARK    2  A    between atoms: C3_3  and  C5_5
REMARK    3  A    between atoms: C7_10  and  C8_11
REMARK    4  A    between atoms: C8_11  and  C10_13
REMARK    5  A    between atoms: C13_19  and  C14_20
REMARK    6  A    between atoms: C16_26  and  C17_27
REMARK    7  A    between atoms: C17_27  and  C18_28
ROOT
HETATM    1  C5  UNL     1     -66.514  12.005   4.530  1.00  0.00     0.202 C
HETATM    2  N1  UNL     1     -66.386  13.180   5.368  1.00  0.00    -0.076 NA
HETATM    3  O1  UNL     1     -66.398  12.793   6.655  1.00  0.00    -0.204 OA
HETATM    4  C6  UNL     1     -66.088  13.308   7.844  1.00  0.00     0.300 C
HETATM    5  O2  UNL     1     -66.569  14.366   8.402  1.00  0.00    -0.261 OA
HETATM    6  C7  UNL     1     -65.056  12.643   8.722  1.00  0.00     0.189 C
HETATM    7  N2  UNL     1     -65.362  12.943  10.108  1.00  0.00    -0.345 N
ATOM      8  H2  UNL     1     -64.963  13.800  10.493  1.00  0.00     0.163 HD
HETATM    9  C12 UNL     1     -66.154  12.169  10.974  1.00  0.00     0.248 C
HETATM   10  O3  UNL     1     -66.770  12.755  11.890  1.00  0.00    -0.271 OA
HETATM   11  C13 UNL     1     -66.298  10.712  10.865  1.00  0.00     0.238 C
HETATM   12  N3  UNL     1     -67.369  10.182  11.679  1.00  0.00    -0.340 N
ATOM     13  H3  UNL     1     -67.210  10.166  12.686  1.00  0.00     0.163 HD
HETATM   14  C15 UNL     1     -68.608   9.686  11.229  1.00  0.00     0.241 C
HETATM   15  O5  UNL     1     -69.273   8.850  11.894  1.00  0.00    -0.271 OA
HETATM   16  C16 UNL     1     -69.228  10.112   9.924  1.00  0.00     0.177 C
HETATM   17  N4  UNL     1     -70.017   9.086   9.340  1.00  0.00    -0.348 N
ATOM     18  H4  UNL     1     -70.606   8.527   9.957  1.00  0.00     0.163 HD
HETATM   19  C21 UNL     1     -70.038   8.787   7.940  1.00  0.00     0.219 C
HETATM   20  O6  UNL     1     -71.134   8.562   7.366  1.00  0.00    -0.274 OA
HETATM   21  C22 UNL     1     -68.809   8.724   7.108  1.00  0.00     0.122 C
HETATM   22  C23 UNL     1     -68.588  10.074   6.402  1.00  0.00     0.132 C
HETATM   23  N5  UNL     1     -67.172  10.355   6.419  1.00  0.00    -0.359 N
ATOM     24  H5  UNL     1     -66.702  10.202   7.311  1.00  0.00     0.162 HD
HETATM   25  C24 UNL     1     -66.358  10.810   5.372  1.00  0.00     0.239 C
HETATM   26  O7  UNL     1     -65.329  10.091   5.101  1.00  0.00    -0.272 OA
ENDROOT
BRANCH   1  27
HETATM   27  C3  UNL     1     -67.802  12.041   3.752  1.00  0.00     0.012 C
HETATM   28  C4  UNL     1     -67.373  12.353   2.300  1.00  0.00     0.012 C
BRANCH  27  29
HETATM   29  C2  UNL     1     -68.613  13.243   4.182  1.00  0.00     0.002 C
HETATM   30  C1  UNL     1     -70.070  12.982   4.375  1.00  0.00     0.005 C
ENDBRANCH  27  29
ENDBRANCH   1  27
BRANCH   6  31
HETATM   31  C8  UNL     1     -63.711  13.221   8.391  1.00  0.00     0.014 C
HETATM   32  C9  UNL     1     -62.968  12.570   7.288  1.00  0.00     0.012 C
BRANCH  31  33
HETATM   33  C10 UNL     1     -62.799  13.253   9.616  1.00  0.00     0.002 C
HETATM   34  C11 UNL     1     -61.814  12.106   9.535  1.00  0.00     0.005 C
ENDBRANCH  31  33
ENDBRANCH   6  31
BRANCH  11  35
HETATM   35  C14 UNL     1     -65.029  10.092  11.348  1.00  0.00     0.266 C
HETATM   36  O4  UNL     1     -64.104   9.818  10.600  1.00  0.00    -0.304 OA
ENDBRANCH  11  35
BRANCH  16  37
HETATM   37  C17 UNL     1     -69.977  11.390  10.024  1.00  0.00     0.038 C
BRANCH  37  38
HETATM   38  C18 UNL     1     -69.406  12.615   9.451  1.00  0.00    -0.020 C
HETATM   39  C19 UNL     1     -69.689  13.832  10.284  1.00  0.00     0.009 C
HETATM   40  C20 UNL     1     -70.072  12.892   8.087  1.00  0.00     0.009 C
ENDBRANCH  37  38
ENDBRANCH  16  37
TORSDOF 7
ENDMDL