MODEL 5
REMARK VINA RESULT: -5.760133696      1.382      1.486
REMARK  6 active torsions:
REMARK  status: ('A' for Active; 'I' for Inactive)
REMARK    1  A    between atoms: C2_2  and  N1_3
REMARK    2  A    between atoms: C8_15  and  C9_16
REMARK    3  A    between atoms: C9_16  and  C10_17
REMARK    4  A    between atoms: C10_17  and  C11_18
REMARK    5  A    between atoms: C11_18  and  S1_19
REMARK    6  A    between atoms: C14_27  and  C15_28
ROOT
HETATM    1  N1  UNL     1     -68.258  10.900   4.155  1.00  0.00    -0.371 N
ATOM      2  H1  UNL     1     -69.238  10.620   4.204  1.00  0.00     0.161 HD
HETATM    3  C3  UNL     1     -67.667  11.134   5.273  1.00  0.00     0.137 C
HETATM    4  N2  UNL     1     -66.313  11.526   5.258  1.00  0.00    -0.354 N
ATOM      5  H2  UNL     1     -65.741  11.214   4.474  1.00  0.00     0.163 HD
HETATM    6  C4  UNL     1     -65.671  12.340   6.272  1.00  0.00     0.105 C
HETATM    7  C5  UNL     1     -66.441  13.606   6.404  1.00  0.00     0.048 C
HETATM    8  C6  UNL     1     -64.273  12.718   5.760  1.00  0.00     0.048 C
HETATM    9  C7  UNL     1     -65.462  11.593   7.531  1.00  0.00     0.246 C
HETATM   10  O1  UNL     1     -64.799  10.501   7.341  1.00  0.00    -0.271 OA
HETATM   11  N3  UNL     1     -65.865  11.902   8.818  1.00  0.00    -0.346 N
ATOM     12  H3  UNL     1     -66.423  11.188   9.285  1.00  0.00     0.163 HD
HETATM   13  C8  UNL     1     -65.612  13.079   9.586  1.00  0.00     0.176 C
HETATM   14  C13 UNL     1     -66.291  13.168  10.884  1.00  0.00     0.241 C
HETATM   15  O4  UNL     1     -65.875  14.159  11.603  1.00  0.00    -0.271 OA
HETATM   16  N4  UNL     1     -67.303  12.325  11.402  1.00  0.00    -0.346 N
ATOM     17  H4  UNL     1     -67.117  11.900  12.311  1.00  0.00     0.163 HD
HETATM   18  C14 UNL     1     -68.570  11.998  10.788  1.00  0.00     0.180 C
HETATM   19  C18 UNL     1     -69.000  10.624  11.226  1.00  0.00     0.240 C
HETATM   20  O5  UNL     1     -68.441  10.146  12.274  1.00  0.00    -0.271 OA
HETATM   21  N5  UNL     1     -69.958   9.842  10.574  1.00  0.00    -0.359 N
ATOM     22  H5  UNL     1     -70.645   9.367  11.159  1.00  0.00     0.162 HD
HETATM   23  C19 UNL     1     -70.064   9.648   9.147  1.00  0.00     0.123 C
HETATM   24  C20 UNL     1     -68.858   8.923   8.573  1.00  0.00     0.030 C
HETATM   25  C21 UNL     1     -68.890   9.164   7.057  1.00  0.00     0.084 C
HETATM   26  S2  UNL     1     -68.627  10.941   6.753  1.00  0.00    -0.094 SA
ENDROOT
BRANCH  13  27
HETATM   27  C9  UNL     1     -64.170  13.465   9.708  1.00  0.00     0.036 C
BRANCH  27  28
HETATM   28  C10 UNL     1     -63.187  12.445  10.098  1.00  0.00     0.017 C
BRANCH  28  29
HETATM   29  C11 UNL     1     -62.104  12.229   9.105  1.00  0.00     0.140 C
BRANCH  29  30
HETATM   30  S1  UNL     1     -61.045  10.855   9.604  1.00  0.00     0.140 S
HETATM   31  C12 UNL     1     -60.100  10.268   8.244  1.00  0.00     0.161 C
HETATM   32  O2  UNL     1     -61.947   9.753  10.082  1.00  0.00    -0.228 OA
HETATM   33  O3  UNL     1     -60.201  11.282  10.772  1.00  0.00    -0.228 OA
ENDBRANCH  29  30
ENDBRANCH  28  29
ENDBRANCH  27  28
ENDBRANCH  13  27
BRANCH  18  34
HETATM   34  C15 UNL     1     -69.647  12.935  11.363  1.00  0.00     0.009 C
HETATM   35  C16 UNL     1     -69.263  13.386  12.755  1.00  0.00     0.012 C
HETATM   36  C17 UNL     1     -69.866  14.147  10.521  1.00  0.00     0.012 C
ENDBRANCH  18  34
BRANCH   1  37
HETATM   37  C2  UNL     1     -67.681  10.992   2.853  1.00  0.00     0.117 C
HETATM   38  C1  UNL     1     -68.389  12.049   2.054  1.00  0.00     0.026 C
ENDBRANCH   1  37
TORSDOF 6
ENDMDL