MODEL 4
REMARK VINA RESULT: -7.199649954      1.978      2.470
REMARK  11 active torsions:
REMARK  status: ('A' for Active; 'I' for Inactive)
REMARK       I    between atoms: N1_2  and  C2_4
REMARK    1  A    between atoms: C2_4  and  C3_6
REMARK    2  A    between atoms: C3_6  and  N2_8
REMARK    3  A    between atoms: N2_8  and  C5_10
REMARK    4  A    between atoms: C5_10  and  O2_11
REMARK    5  A    between atoms: C5_10  and  C6_13
REMARK    6  A    between atoms: C6_13  and  C7_14
REMARK    7  A    between atoms: C6_13  and  N3_19
REMARK    8  A    between atoms: C7_14  and  C8_15
REMARK    9  A    between atoms: C8_15  and  C9_16
REMARK       I    between atoms: N3_19  and  C10_21
REMARK   10  A    between atoms: C10_21  and  C11_23
REMARK   11  A    between atoms: C23_38  and  O8_39
ROOT
HETATM    1  N3  UNL     1     -63.886  10.888   9.592  1.00  0.00    -0.349 N
ATOM      2  H3  UNL     1     -64.410  10.846  10.466  1.00  0.00     0.163 HD
HETATM    3  C10 UNL     1     -64.582  10.513   8.413  1.00  0.00     0.223 C
HETATM    4  O5  UNL     1     -63.822  10.612   7.420  1.00  0.00    -0.273 OA
ENDROOT
BRANCH   1   5
HETATM    5  C6  UNL     1     -62.522  11.320   9.677  1.00  0.00     0.159 C
BRANCH   5   6
HETATM    6  C5  UNL     1     -61.752  10.388  10.520  1.00  0.00     0.135 C
BRANCH   6   7
HETATM    7  N2  UNL     1     -60.372  10.323  10.721  1.00  0.00    -0.360 N
ATOM      8  H2  UNL     1     -60.003   9.810  11.521  1.00  0.00     0.162 HD
BRANCH   7   9
HETATM    9  C3  UNL     1     -59.454  10.978   9.803  1.00  0.00     0.171 C
HETATM   10  C4  UNL     1     -59.376  10.217   8.487  1.00  0.00     0.042 C
BRANCH   9  11
HETATM   11  C2  UNL     1     -58.068  10.965  10.359  1.00  0.00     0.239 C
HETATM   12  N1  UNL     1     -57.771  10.150  11.472  1.00  0.00    -0.364 N
HETATM   13  C1  UNL     1     -56.449  10.120  12.027  1.00  0.00     0.149 C
ATOM     14  H1  UNL     1     -58.505   9.577  11.886  1.00  0.00     0.161 HD
HETATM   15  O1  UNL     1     -57.195  11.692   9.812  1.00  0.00    -0.271 OA
ENDBRANCH   9  11
ENDBRANCH   7   9
ENDBRANCH   6   7
BRANCH   6  16
HETATM   16  O2  UNL     1     -62.421   9.489  11.195  1.00  0.00    -0.348 OA
ATOM     17  H2  UNL     1     -63.201   9.181  10.749  1.00  0.00     0.219 HD
ENDBRANCH   6  16
ENDBRANCH   5   6
BRANCH   5  18
HETATM   18  C7  UNL     1     -62.315  12.745   9.928  1.00  0.00     0.044 C
BRANCH  18  19
HETATM   19  C8  UNL     1     -62.824  13.592   8.792  1.00  0.00     0.116 C
BRANCH  19  20
HETATM   20  C9  UNL     1     -63.398  14.861   9.331  1.00  0.00     0.172 C
HETATM   21  O3  UNL     1     -63.557  15.815   8.531  1.00  0.00    -0.648 OA
HETATM   22  O4  UNL     1     -63.746  14.984  10.663  1.00  0.00    -0.648 OA
ENDBRANCH  19  20
ENDBRANCH  18  19
ENDBRANCH   5  18
ENDBRANCH   1   5
BRANCH   3  23
HETATM   23  C11 UNL     1     -65.954  10.099   8.497  1.00  0.00     0.088 C
HETATM   24  C12 UNL     1     -66.904  10.357   7.324  1.00  0.00     0.006 C
HETATM   25  C13 UNL     1     -66.230  10.510   6.005  1.00  0.00     0.011 C
HETATM   26  C14 UNL     1     -67.519  11.502   7.999  1.00  0.00    -0.002 C
HETATM   27  C15 UNL     1     -67.075  12.726   7.416  1.00  0.00     0.019 C
HETATM   28  C16 UNL     1     -67.002  10.750   9.185  1.00  0.00     0.019 C
HETATM   29  C23 UNL     1     -68.904  11.625   8.508  1.00  0.00     0.084 C
HETATM   30  C17 UNL     1     -67.203  11.634  10.281  1.00  0.00    -0.035 C
HETATM   31  C18 UNL     1     -66.377  12.786  10.564  1.00  0.00     0.016 C
HETATM   32  C19 UNL     1     -67.236  10.820  11.592  1.00  0.00     0.016 C
HETATM   33  C20 UNL     1     -68.680  11.954   9.982  1.00  0.00     0.044 C
HETATM   34  C21 UNL     1     -69.106  13.315  10.277  1.00  0.00     0.148 C
HETATM   35  S1  UNL     1     -70.634  13.333   9.321  1.00  0.00     0.147 S
HETATM   36  O6  UNL     1     -71.653  12.444   9.906  1.00  0.00    -0.228 OA
HETATM   37  O7  UNL     1     -71.088  14.713   9.047  1.00  0.00    -0.228 OA
HETATM   38  C22 UNL     1     -69.822  12.589   7.892  1.00  0.00     0.179 C
BRANCH  29  39
HETATM   39  O8  UNL     1     -69.493  10.343   8.368  1.00  0.00    -0.388 OA
ATOM     40  H8  UNL     1     -69.522   9.968   9.241  1.00  0.00     0.210 HD
ENDBRANCH  29  39
ENDBRANCH   3  23
TORSDOF 11
ENDMDL