MODEL 5
REMARK VINA RESULT: -5.563280749      2.269      6.580
REMARK  8 active torsions:
REMARK  status: ('A' for Active; 'I' for Inactive)
REMARK    1  A    between atoms: C2_2  and  C3_3
REMARK    2  A    between atoms: C8_9  and  N1_10
REMARK    3  A    between atoms: C12_17  and  C13_18
REMARK    4  A    between atoms: C14_20  and  O3_21
REMARK    5  A    between atoms: C15_25  and  C16_26
REMARK    6  A    between atoms: C20_33  and  C21_34
REMARK    7  A    between atoms: C21_34  and  C22_35
REMARK    8  A    between atoms: C22_35  and  O5_37
ROOT
HETATM    1  C3  UNL     1     -69.509  11.352   9.230  1.00  0.00     0.024 C
HETATM    2  C4  UNL     1     -70.219  10.734  10.415  1.00  0.00     0.038 C
HETATM    3  C5  UNL     1     -70.483  12.228   8.511  1.00  0.00     0.040 C
HETATM    4  C6  UNL     1     -69.856  13.408   7.800  1.00  0.00     0.076 C
HETATM    5  S1  UNL     1     -69.237  12.952   6.130  1.00  0.00    -0.166 SA
HETATM    6  C7  UNL     1     -67.775  13.927   5.671  1.00  0.00     0.119 C
HETATM    7  C8  UNL     1     -66.804  13.138   4.890  1.00  0.00     0.322 C
HETATM    8  C11 UNL     1     -66.101  12.123   5.684  1.00  0.00     0.256 C
HETATM    9  O1  UNL     1     -66.794  11.091   5.958  1.00  0.00    -0.271 OA
HETATM   10  N2  UNL     1     -64.805  12.128   6.162  1.00  0.00    -0.319 N
ATOM     11  H2  UNL     1     -64.267  11.310   5.876  1.00  0.00     0.169 HD
HETATM   12  C12 UNL     1     -64.062  13.038   6.972  1.00  0.00     0.124 C
HETATM   13  C14 UNL     1     -64.482  13.356   8.316  1.00  0.00     0.167 C
HETATM   14  N3  UNL     1     -64.185  12.833   9.572  1.00  0.00    -0.355 N
ATOM     15  H3  UNL     1     -63.810  13.536  10.210  1.00  0.00     0.162 HD
HETATM   16  C15 UNL     1     -64.284  11.523  10.183  1.00  0.00     0.179 C
HETATM   17  C19 UNL     1     -65.332  10.623   9.699  1.00  0.00     0.242 C
HETATM   18  O4  UNL     1     -65.057   9.765   8.786  1.00  0.00    -0.271 OA
HETATM   19  N4  UNL     1     -66.686  10.576  10.137  1.00  0.00    -0.338 N
ATOM     20  H4  UNL     1     -67.179   9.688  10.234  1.00  0.00     0.164 HD
HETATM   21  C20 UNL     1     -67.357  11.862  10.446  1.00  0.00     0.182 C
HETATM   22  N5  UNL     1     -68.369  12.123   9.489  1.00  0.00    -0.393 N
ATOM     23  H5  UNL     1     -68.254  12.966   8.926  1.00  0.00     0.156 HD
ENDROOT
BRANCH  21  24
HETATM   24  C21 UNL     1     -67.760  11.750  11.885  1.00  0.00     0.077 C
BRANCH  24  25
HETATM   25  C22 UNL     1     -67.771  13.048  12.652  1.00  0.00     0.117 C
HETATM   26  C23 UNL     1     -69.223  13.638  12.451  1.00  0.00     0.039 C
BRANCH  25  27
HETATM   27  O5  UNL     1     -67.666  12.892  14.038  1.00  0.00    -0.396 OA
ATOM     28  H5  UNL     1     -68.264  13.438  14.536  1.00  0.00     0.210 HD
ENDBRANCH  25  27
ENDBRANCH  24  25
ENDBRANCH  21  24
BRANCH   1  29
HETATM   29  C2  UNL     1     -69.301  10.128   8.321  1.00  0.00     0.026 C
HETATM   30  C1  UNL     1     -69.689   8.832   9.000  1.00  0.00     0.007 C
ENDBRANCH   1  29
BRANCH  16  31
HETATM   31  C16 UNL     1     -62.902  10.866   9.996  1.00  0.00     0.009 C
HETATM   32  C17 UNL     1     -62.862   9.775  11.039  1.00  0.00     0.012 C
HETATM   33  C18 UNL     1     -61.795  11.816  10.186  1.00  0.00     0.012 C
ENDBRANCH  16  31
BRANCH  13  34
HETATM   34  O3  UNL     1     -65.314  14.358   8.415  1.00  0.00    -0.345 OA
ATOM     35  H3  UNL     1     -64.920  15.186   8.665  1.00  0.00     0.219 HD
ENDBRANCH  13  34
BRANCH  12  36
HETATM   36  C13 UNL     1     -62.590  12.857   6.794  1.00  0.00     0.292 C
HETATM   37  O2  UNL     1     -62.027  13.529   5.927  1.00  0.00    -0.300 OA
ENDBRANCH  12  36
BRANCH   7  38
HETATM   38  N1  UNL     1     -65.876  13.871   4.056  1.00  0.00     0.094 N
HETATM   39  C9  UNL     1     -66.288  13.824   2.665  1.00  0.00     0.310 C
HETATM   40  C10 UNL     1     -65.872  15.290   4.398  1.00  0.00     0.310 C
ENDBRANCH   7  38
TORSDOF 8
ENDMDL