MODEL 2
REMARK VINA RESULT: -5.917585604      2.494      5.599
REMARK  8 active torsions:
REMARK  status: ('A' for Active; 'I' for Inactive)
REMARK    1  A    between atoms: S1_2  and  C2_3
REMARK    2  A    between atoms: C2_3  and  C3_4
REMARK    3  A    between atoms: C3_4  and  C4_5
REMARK    4  A    between atoms: C6_10  and  C7_11
REMARK    5  A    between atoms: C7_11  and  C8_12
REMARK    6  A    between atoms: C14_24  and  C15_25
REMARK    7  A    between atoms: C19_32  and  C20_33
REMARK    8  A    between atoms: C23_39  and  O5_40
ROOT
HETATM    1  C20 UNL     1     -67.307  14.075  11.336  1.00  0.00     0.120 C
HETATM    2  C21 UNL     1     -66.372  15.275  11.546  1.00  0.00     0.028 C
HETATM    3  C22 UNL     1     -67.589  13.479  12.634  1.00  0.00     0.066 C
HETATM    4  N5  UNL     1     -67.820  13.027  13.659  1.00  0.00    -0.197 NA
ENDROOT
BRANCH   1   5
HETATM    5  C19 UNL     1     -66.512  13.098  10.445  1.00  0.00     0.193 C
HETATM    6  C18 UNL     1     -67.127  11.751  10.457  1.00  0.00     0.242 C
HETATM    7  N4  UNL     1     -68.388  11.311  10.785  1.00  0.00    -0.346 N
HETATM    8  O4  UNL     1     -66.306  10.822  10.084  1.00  0.00    -0.271 OA
HETATM    9  C14 UNL     1     -69.719  11.642  10.337  1.00  0.00     0.180 C
ATOM     10  H4  UNL     1     -68.381  10.589  11.506  1.00  0.00     0.163 HD
HETATM   11  C13 UNL     1     -69.863  12.329   9.068  1.00  0.00     0.241 C
HETATM   12  N3  UNL     1     -69.386  12.014   7.784  1.00  0.00    -0.351 N
HETATM   13  O3  UNL     1     -70.545  13.422   9.118  1.00  0.00    -0.271 OA
HETATM   14  C12 UNL     1     -69.402  10.767   7.079  1.00  0.00     0.225 C
ATOM     15  H3  UNL     1     -68.964  12.792   7.277  1.00  0.00     0.163 HD
HETATM   16  C11 UNL     1     -68.159   9.999   7.092  1.00  0.00     0.236 C
HETATM   17  N2  UNL     1     -66.977  10.175   6.377  1.00  0.00    -0.346 N
HETATM   18  O2  UNL     1     -68.171   8.996   7.904  1.00  0.00    -0.272 OA
HETATM   19  C6  UNL     1     -66.197  11.388   6.195  1.00  0.00     0.177 C
ATOM     20  H2  UNL     1     -66.609   9.341   5.920  1.00  0.00     0.163 HD
HETATM   21  C5  UNL     1     -64.822  11.255   6.757  1.00  0.00     0.244 C
HETATM   22  N1  UNL     1     -63.925  12.229   7.159  1.00  0.00    -0.325 N
HETATM   23  O1  UNL     1     -64.478  10.024   6.855  1.00  0.00    -0.271 OA
HETATM   24  C4  UNL     1     -64.043  13.274   8.144  1.00  0.00     0.063 C
ATOM     25  H1  UNL     1     -63.027  12.202   6.676  1.00  0.00     0.169 HD
HETATM   26  C23 UNL     1     -65.361  13.900   8.272  1.00  0.00     0.160 C
HETATM   27  N6  UNL     1     -66.397  13.710   9.165  1.00  0.00    -0.355 N
ATOM     28  H6  UNL     1     -67.280  14.097   8.832  1.00  0.00     0.162 HD
BRANCH   9  29
HETATM   29  C15 UNL     1     -70.642  10.405  10.425  1.00  0.00     0.009 C
HETATM   30  C16 UNL     1     -71.740  10.709  11.399  1.00  0.00     0.012 C
HETATM   31  C17 UNL     1     -69.812   9.289  11.026  1.00  0.00     0.012 C
ENDBRANCH   9  29
BRANCH  19  32
HETATM   32  C7  UNL     1     -65.973  11.466   4.675  1.00  0.00     0.038 C
BRANCH  32  33
HETATM   33  C8  UNL     1     -67.138  11.975   3.912  1.00  0.00    -0.020 C
HETATM   34  C9  UNL     1     -67.551  10.823   2.976  1.00  0.00     0.009 C
HETATM   35  C10 UNL     1     -66.798  13.145   3.043  1.00  0.00     0.009 C
ENDBRANCH  32  33
ENDBRANCH  19  32
BRANCH  24  36
HETATM   36  C3  UNL     1     -63.351  12.932   9.448  1.00  0.00     0.072 C
BRANCH  36  37
HETATM   37  C2  UNL     1     -62.056  12.202   9.024  1.00  0.00     0.079 C
BRANCH  37  38
HETATM   38  S1  UNL     1     -61.507  11.083  10.342  1.00  0.00    -0.173 SA
HETATM   39  C1  UNL     1     -59.705  10.908  10.314  1.00  0.00     0.089 C
ENDBRANCH  37  38
ENDBRANCH  36  37
ENDBRANCH  24  36
BRANCH  26  40
HETATM   40  O5  UNL     1     -65.579  14.808   7.355  1.00  0.00    -0.345 OA
ATOM     41  H5  UNL     1     -66.354  14.626   6.837  1.00  0.00     0.219 HD
ENDBRANCH  26  40
ENDBRANCH   1   5
TORSDOF 8
ENDMDL