MODEL 4
REMARK VINA RESULT: -6.294955016      2.750      6.179
REMARK  8 active torsions:
REMARK  status: ('A' for Active; 'I' for Inactive)
REMARK    1  A    between atoms: C2_2  and  C3_3
REMARK    2  A    between atoms: C3_3  and  C4_4
REMARK    3  A    between atoms: C4_4  and  C5_5
REMARK    4  A    between atoms: C8_11  and  C9_12
REMARK       I    between atoms: C9_12  and  N2_14
REMARK    5  A    between atoms: C11_19  and  O3_20
REMARK    6  A    between atoms: C12_22  and  C13_23
REMARK    7  A    between atoms: C13_23  and  C14_24
REMARK    8  A    between atoms: C23_36  and  C24_37
ROOT
HETATM    1  C5  UNL     1     -68.831  14.130   7.029  1.00  0.00     0.176 C
HETATM    2  N1  UNL     1     -67.546  14.782   7.194  1.00  0.00    -0.348 N
ATOM      3  H1  UNL     1     -67.466  15.490   7.923  1.00  0.00     0.163 HD
HETATM    4  C6  UNL     1     -66.397  14.507   6.419  1.00  0.00     0.220 C
HETATM    5  O1  UNL     1     -65.488  15.390   6.443  1.00  0.00    -0.274 OA
HETATM    6  C7  UNL     1     -66.091  13.357   5.590  1.00  0.00     0.137 C
HETATM    7  C8  UNL     1     -65.465  12.166   6.257  1.00  0.00     0.184 C
HETATM    8  N3  UNL     1     -64.053  12.374   6.496  1.00  0.00    -0.360 N
ATOM      9  H3  UNL     1     -63.462  12.142   5.698  1.00  0.00     0.162 HD
HETATM   10  C11 UNL     1     -63.352  12.825   7.596  1.00  0.00     0.130 C
HETATM   11  C12 UNL     1     -63.231  12.332   8.981  1.00  0.00     0.108 C
HETATM   12  C16 UNL     1     -63.027  13.448   9.969  1.00  0.00     0.054 C
HETATM   13  C17 UNL     1     -64.212  14.285  10.231  1.00  0.00    -0.028 C
HETATM   14  C18 UNL     1     -65.516  14.242  10.350  1.00  0.00    -0.022 C
HETATM   15  C19 UNL     1     -66.626  13.211  10.279  1.00  0.00     0.060 C
HETATM   16  C20 UNL     1     -66.224  12.104  11.144  1.00  0.00     0.090 C
HETATM   17  C21 UNL     1     -67.231  11.298  11.866  1.00  0.00     0.033 C
HETATM   18  N4  UNL     1     -65.327  11.237  10.351  1.00  0.00    -0.355 N
ATOM     19  H4  UNL     1     -65.525  10.253  10.535  1.00  0.00     0.162 HD
HETATM   20  C22 UNL     1     -64.271  11.366   9.411  1.00  0.00     0.235 C
HETATM   21  O4  UNL     1     -64.138  10.331   8.671  1.00  0.00    -0.272 OA
HETATM   22  C23 UNL     1     -67.963  13.827  10.376  1.00  0.00     0.155 C
HETATM   23  N5  UNL     1     -68.963  13.294   9.482  1.00  0.00    -0.348 N
ATOM     24  H5  UNL     1     -69.342  12.391   9.766  1.00  0.00     0.163 HD
HETATM   25  C25 UNL     1     -69.502  13.801   8.295  1.00  0.00     0.241 C
HETATM   26  O6  UNL     1     -70.783  14.012   8.305  1.00  0.00    -0.271 OA
ENDROOT
BRANCH   7  27
HETATM   27  C9  UNL     1     -65.649  11.040   5.250  1.00  0.00     0.240 C
HETATM   28  O2  UNL     1     -65.029   9.950   5.418  1.00  0.00    -0.271 OA
HETATM   29  N2  UNL     1     -66.504  11.214   4.145  1.00  0.00    -0.364 N
HETATM   30  C10 UNL     1     -66.712  10.177   3.164  1.00  0.00     0.149 C
ATOM     31  H2  UNL     1     -66.992  12.103   4.034  1.00  0.00     0.161 HD
ENDBRANCH   7  27
BRANCH  10  32
HETATM   32  O3  UNL     1     -62.639  13.900   7.420  1.00  0.00    -0.349 OA
ATOM     33  H3  UNL     1     -62.946  14.682   7.864  1.00  0.00     0.219 HD
ENDBRANCH  10  32
BRANCH  11  34
HETATM   34  C13 UNL     1     -61.936  11.492   9.102  1.00  0.00     0.028 C
BRANCH  34  35
HETATM   35  C14 UNL     1     -61.351  11.487  10.459  1.00  0.00    -0.003 C
HETATM   36  C15 UNL     1     -59.936  10.902  10.325  1.00  0.00     0.005 C
ENDBRANCH  34  35
ENDBRANCH  11  34
BRANCH   1  37
HETATM   37  C4  UNL     1     -69.737  14.990   6.141  1.00  0.00     0.035 C
BRANCH  37  38
HETATM   38  C3  UNL     1     -69.740  14.589   4.712  1.00  0.00     0.002 C
BRANCH  38  39
HETATM   39  C2  UNL     1     -69.719  13.056   4.642  1.00  0.00    -0.004 C
HETATM   40  C1  UNL     1     -69.773  12.572   3.227  1.00  0.00     0.005 C
ENDBRANCH  38  39
ENDBRANCH  37  38
ENDBRANCH   1  37
BRANCH  22  41
HETATM   41  C24 UNL     1     -68.510  13.790  11.792  1.00  0.00     0.257 C
HETATM   42  O5  UNL     1     -69.695  13.829  12.015  1.00  0.00    -0.305 OA
ENDBRANCH  22  41
TORSDOF 8
ENDMDL