MODEL 2
REMARK VINA RESULT: -7.772492104      2.744      8.140
REMARK  8 active torsions:
REMARK  status: ('A' for Active; 'I' for Inactive)
REMARK       I    between atoms: N1_2  and  C2_4
REMARK       I    between atoms: C2_4  and  N2_6
REMARK    1  A    between atoms: N2_6  and  C3_8
REMARK    2  A    between atoms: C3_8  and  C4_9
REMARK    3  A    between atoms: C4_9  and  C5_10
REMARK    4  A    between atoms: C9_20  and  C10_21
REMARK    5  A    between atoms: C10_21  and  C11_22
REMARK    6  A    between atoms: C15_28  and  C16_29
REMARK    7  A    between atoms: C19_32  and  C20_33
REMARK    8  A    between atoms: C20_33  and  O6_34
ROOT
HETATM    1  C5  UNL     1     -69.449  10.715  12.010  1.00  0.00     0.112 C
HETATM    2  C6  UNL     1     -68.427   9.692  11.927  1.00  0.00     0.225 C
HETATM    3  O2  UNL     1     -68.901   8.506  11.985  1.00  0.00    -0.273 OA
HETATM    4  N3  UNL     1     -67.038   9.866  11.795  1.00  0.00    -0.344 N
ATOM      5  H3  UNL     1     -66.515   9.176  12.335  1.00  0.00     0.163 HD
HETATM    6  C7  UNL     1     -66.172  10.761  11.100  1.00  0.00     0.207 C
HETATM    7  C8  UNL     1     -66.121  10.283   9.719  1.00  0.00     0.245 C
HETATM    8  O3  UNL     1     -67.238  10.241   9.084  1.00  0.00    -0.271 OA
HETATM    9  N4  UNL     1     -65.016   9.859   8.987  1.00  0.00    -0.345 N
ATOM     10  H4  UNL     1     -65.233   9.451   8.077  1.00  0.00     0.163 HD
HETATM   11  C9  UNL     1     -63.608   9.908   9.314  1.00  0.00     0.184 C
HETATM   12  C14 UNL     1     -63.216  11.050  10.175  1.00  0.00     0.282 C
HETATM   13  O4  UNL     1     -62.202  10.772  10.923  1.00  0.00    -0.263 OA
HETATM   14  O5  UNL     1     -63.819  12.165  10.170  1.00  0.00    -0.313 OA
HETATM   15  C15 UNL     1     -64.528  13.272  10.068  1.00  0.00     0.145 C
HETATM   16  C19 UNL     1     -66.074  13.018  10.043  1.00  0.00     0.071 C
HETATM   17  C21 UNL     1     -66.417  12.254  11.264  1.00  0.00    -0.035 C
HETATM   18  C22 UNL     1     -67.636  12.417  12.022  1.00  0.00    -0.043 C
HETATM   19  C23 UNL     1     -67.854  13.620  12.870  1.00  0.00     0.063 C
HETATM   20  C24 UNL     1     -69.318  13.398  13.257  1.00  0.00     0.173 C
HETATM   21  O7  UNL     1     -69.876  12.983  12.054  1.00  0.00    -0.380 OA
HETATM   22  C25 UNL     1     -68.957  12.072  11.478  1.00  0.00     0.163 C
ENDROOT
BRANCH   1  23
HETATM   23  C4  UNL     1     -70.790  10.346  11.422  1.00  0.00     0.036 C
BRANCH  23  24
HETATM   24  C3  UNL     1     -70.857  10.424   9.940  1.00  0.00     0.125 C
BRANCH  24  25
HETATM   25  N2  UNL     1     -70.714   9.100   9.381  1.00  0.00    -0.343 N
HETATM   26  C2  UNL     1     -71.709   8.398   8.662  1.00  0.00     0.315 C
HETATM   27  N1  UNL     1     -71.413   7.110   8.164  1.00  0.00    -0.347 N
HETATM   28  O1  UNL     1     -72.823   8.906   8.472  1.00  0.00    -0.247 OA
HETATM   29  C1  UNL     1     -72.350   6.295   7.418  1.00  0.00     0.151 C
ATOM     30  H1  UNL     1     -70.482   6.730   8.341  1.00  0.00     0.163 HD
ATOM     31  H2  UNL     1     -69.819   8.632   9.516  1.00  0.00     0.164 HD
ENDBRANCH  24  25
ENDBRANCH  23  24
ENDBRANCH   1  23
BRANCH  16  32
HETATM   32  C20 UNL     1     -66.673  14.325   9.770  1.00  0.00     0.175 C
BRANCH  32  33
HETATM   33  O6  UNL     1     -67.826  14.395   9.004  1.00  0.00    -0.400 OA
ATOM     34  H6  UNL     1     -68.390  15.156   9.082  1.00  0.00     0.209 HD
ENDBRANCH  32  33
ENDBRANCH  16  32
BRANCH  15  35
HETATM   35  C16 UNL     1     -64.101  14.270   9.027  1.00  0.00     0.008 C
HETATM   36  C17 UNL     1     -63.400  13.714   7.845  1.00  0.00     0.012 C
HETATM   37  C18 UNL     1     -63.040  15.228   9.654  1.00  0.00     0.012 C
ENDBRANCH  15  35
BRANCH  11  38
HETATM   38  C10 UNL     1     -62.775   9.976   8.062  1.00  0.00     0.039 C
BRANCH  38  39
HETATM   39  C11 UNL     1     -61.343   9.612   8.202  1.00  0.00    -0.020 C
HETATM   40  C12 UNL     1     -60.432  10.772   7.769  1.00  0.00     0.009 C
HETATM   41  C13 UNL     1     -60.959   8.421   7.366  1.00  0.00     0.009 C
ENDBRANCH  38  39
ENDBRANCH  11  38
TORSDOF 8
ENDMDL