MODEL 3
REMARK VINA RESULT: -6.137015372      2.878      5.658
REMARK  8 active torsions:
REMARK  status: ('A' for Active; 'I' for Inactive)
REMARK    1  A    between atoms: C2_2  and  C3_3
REMARK    2  A    between atoms: C3_3  and  C5_5
REMARK    3  A    between atoms: C11_16  and  C12_17
REMARK    4  A    between atoms: C12_17  and  C13_18
REMARK    5  A    between atoms: C17_25  and  C18_26
REMARK    6  A    between atoms: C18_26  and  C20_28
REMARK    7  A    between atoms: C23_33  and  C24_34
REMARK    8  A    between atoms: C24_34  and  O6_35
ROOT
HETATM    1  C5  UNL     1     -71.329   9.995   8.376  1.00  0.00     0.180 C
HETATM    2  N1  UNL     1     -70.822  10.954   7.438  1.00  0.00    -0.346 N
ATOM      3  H1  UNL     1     -71.462  11.710   7.195  1.00  0.00     0.163 HD
HETATM    4  C6  UNL     1     -69.579  10.998   6.813  1.00  0.00     0.241 C
HETATM    5  O1  UNL     1     -69.374  11.883   5.938  1.00  0.00    -0.271 OA
HETATM    6  C7  UNL     1     -68.416  10.084   7.070  1.00  0.00     0.175 C
HETATM    7  C8  UNL     1     -68.768   8.639   6.718  1.00  0.00     0.042 C
HETATM    8  N2  UNL     1     -67.277  10.432   6.258  1.00  0.00    -0.338 N
HETATM    9  C9  UNL     1     -67.456  10.044   4.838  1.00  0.00     0.154 C
HETATM   10  C10 UNL     1     -66.087  11.054   6.593  1.00  0.00     0.266 C
HETATM   11  O2  UNL     1     -65.567  11.778   5.650  1.00  0.00    -0.266 OA
HETATM   12  C11 UNL     1     -65.278  11.066   7.807  1.00  0.00     0.081 C
HETATM   13  N3  UNL     1     -65.895  10.584   9.005  1.00  0.00    -0.320 N
ATOM     14  H3  UNL     1     -66.127   9.591   9.014  1.00  0.00     0.169 HD
HETATM   15  C16 UNL     1     -66.225  11.297  10.174  1.00  0.00     0.276 C
HETATM   16  O3  UNL     1     -66.002  10.718  11.267  1.00  0.00    -0.265 OA
HETATM   17  C17 UNL     1     -66.814  12.676  10.205  1.00  0.00     0.128 C
HETATM   18  O4  UNL     1     -68.100  12.741   9.751  1.00  0.00    -0.276 OA
HETATM   19  C22 UNL     1     -69.278  13.290   9.930  1.00  0.00     0.289 C
HETATM   20  O5  UNL     1     -69.673  14.510   9.817  1.00  0.00    -0.262 OA
HETATM   21  C23 UNL     1     -70.422  12.411  10.339  1.00  0.00     0.208 C
HETATM   22  N4  UNL     1     -70.062  11.011  10.408  1.00  0.00    -0.343 N
ATOM     23  H4  UNL     1     -69.332  10.765  11.076  1.00  0.00     0.163 HD
HETATM   24  C25 UNL     1     -70.605   9.950   9.660  1.00  0.00     0.241 C
HETATM   25  O7  UNL     1     -70.468   8.792  10.129  1.00  0.00    -0.271 OA
ENDROOT
BRANCH   1  26
HETATM   26  C3  UNL     1     -72.828  10.139   8.538  1.00  0.00     0.013 C
HETATM   27  C4  UNL     1     -73.224  11.542   8.195  1.00  0.00     0.012 C
BRANCH  26  28
HETATM   28  C2  UNL     1     -73.549   9.118   7.666  1.00  0.00     0.002 C
HETATM   29  C1  UNL     1     -72.862   7.793   7.667  1.00  0.00     0.005 C
ENDBRANCH  26  28
ENDBRANCH   1  26
BRANCH  21  30
HETATM   30  C24 UNL     1     -71.098  12.896  11.602  1.00  0.00     0.199 C
BRANCH  30  31
HETATM   31  O6  UNL     1     -72.078  13.822  11.370  1.00  0.00    -0.398 OA
ATOM     32  H6  UNL     1     -71.829  14.483  10.734  1.00  0.00     0.209 HD
ENDBRANCH  30  31
ENDBRANCH  21  30
BRANCH  12  33
HETATM   33  C12 UNL     1     -63.857  10.604   7.648  1.00  0.00     0.067 C
BRANCH  33  34
HETATM   34  C13 UNL     1     -62.961  10.556   8.797  1.00  0.00    -0.017 C
HETATM   35  C14 UNL     1     -61.779   9.633   8.686  1.00  0.00     0.010 C
HETATM   36  C15 UNL     1     -62.566  11.885   9.408  1.00  0.00     0.010 C
ENDBRANCH  33  34
ENDBRANCH  12  33
BRANCH  17  37
HETATM   37  C18 UNL     1     -66.450  13.469  11.411  1.00  0.00     0.044 C
HETATM   38  C19 UNL     1     -67.514  13.340  12.513  1.00  0.00     0.017 C
BRANCH  37  39
HETATM   39  C20 UNL     1     -66.023  14.870  11.238  1.00  0.00     0.006 C
HETATM   40  C21 UNL     1     -64.656  14.820  10.520  1.00  0.00     0.006 C
ENDBRANCH  37  39
ENDBRANCH  17  37
TORSDOF 8
ENDMDL