MODEL 5
REMARK VINA RESULT: -6.174422408      4.597      6.931
REMARK  9 active torsions:
REMARK  status: ('A' for Active; 'I' for Inactive)
REMARK    1  A    between atoms: C2_2  and  C4_4
REMARK    2  A    between atoms: C4_4  and  C5_5
REMARK    3  A    between atoms: C7_10  and  C8_11
REMARK    4  A    between atoms: C8_11  and  C9_12
REMARK    5  A    between atoms: C15_24  and  C16_25
REMARK    6  A    between atoms: C16_25  and  C17_26
REMARK    7  A    between atoms: C22_34  and  C23_35
REMARK    8  A    between atoms: C23_35  and  O6_36
REMARK    9  A    between atoms: C24_40  and  O7_41
ROOT
HETATM    1  C5  UNL     1     -65.259  11.693   8.931  1.00  0.00     0.086 C
HETATM    2  N1  UNL     1     -65.867  12.913   8.598  1.00  0.00    -0.322 N
ATOM      3  H1  UNL     1     -66.066  13.521   9.392  1.00  0.00     0.169 HD
HETATM    4  C6  UNL     1     -66.251  13.439   7.342  1.00  0.00     0.245 C
HETATM    5  O1  UNL     1     -65.826  14.566   6.936  1.00  0.00    -0.271 OA
HETATM    6  C7  UNL     1     -67.185  12.752   6.363  1.00  0.00     0.177 C
HETATM    7  N2  UNL     1     -68.069  13.848   5.919  1.00  0.00    -0.344 N
ATOM      8  H2  UNL     1     -67.887  14.246   4.997  1.00  0.00     0.163 HD
HETATM    9  C12 UNL     1     -69.130  14.390   6.645  1.00  0.00     0.272 C
HETATM   10  O2  UNL     1     -69.287  15.663   6.541  1.00  0.00    -0.268 OA
HETATM   11  C13 UNL     1     -70.114  13.736   7.523  1.00  0.00     0.375 A
HETATM   12  O3  UNL     1     -69.592  12.546   8.114  1.00  0.00    -0.234 OA
HETATM   13  N3  UNL     1     -69.948  13.782   8.833  1.00  0.00    -0.179 N
HETATM   14  C14 UNL     1     -70.013  14.434  10.024  1.00  0.00     0.269 C
HETATM   15  O4  UNL     1     -69.347  15.485  10.372  1.00  0.00    -0.269 OA
HETATM   16  C15 UNL     1     -70.901  14.023  11.163  1.00  0.00     0.179 C
HETATM   17  N4  UNL     1     -70.346  13.171  12.128  1.00  0.00    -0.348 N
ATOM     18  H4  UNL     1     -71.052  12.649  12.647  1.00  0.00     0.163 HD
HETATM   19  C20 UNL     1     -69.038  12.875  12.541  1.00  0.00     0.220 C
HETATM   20  O5  UNL     1     -68.734  12.977  13.796  1.00  0.00    -0.274 OA
HETATM   21  C21 UNL     1     -67.889  12.436  11.697  1.00  0.00     0.130 C
HETATM   22  C22 UNL     1     -68.185  11.089  11.138  1.00  0.00     0.115 C
HETATM   23  N5  UNL     1     -67.270  10.526  10.194  1.00  0.00    -0.362 N
ATOM     24  H5  UNL     1     -67.704   9.760   9.679  1.00  0.00     0.162 HD
HETATM   25  C24 UNL     1     -65.983  10.722   9.784  1.00  0.00     0.163 C
ENDROOT
BRANCH   1  26
HETATM   26  C4  UNL     1     -63.829  11.835   9.329  1.00  0.00     0.036 C
BRANCH  26  27
HETATM   27  C2  UNL     1     -62.732  11.613   8.411  1.00  0.00    -0.085 C
HETATM   28  C1  UNL     1     -62.374  10.190   8.065  1.00  0.00     0.043 C
HETATM   29  C3  UNL     1     -62.681  12.485   7.184  1.00  0.00     0.043 C
ENDBRANCH  26  27
ENDBRANCH   1  26
BRANCH  25  30
HETATM   30  O7  UNL     1     -65.120   9.848  10.227  1.00  0.00    -0.345 OA
ATOM     31  H7  UNL     1     -65.589   9.051  10.441  1.00  0.00     0.219 HD
ENDBRANCH  25  30
BRANCH   6  32
HETATM   32  C8  UNL     1     -66.313  12.296   5.220  1.00  0.00     0.038 C
BRANCH  32  33
HETATM   33  C9  UNL     1     -66.320  10.851   4.916  1.00  0.00    -0.020 C
HETATM   34  C10 UNL     1     -65.091  10.192   5.574  1.00  0.00     0.009 C
HETATM   35  C11 UNL     1     -66.290  10.447   3.490  1.00  0.00     0.009 C
ENDBRANCH  32  33
ENDBRANCH   6  32
BRANCH  22  36
HETATM   36  C23 UNL     1     -68.555  10.085  12.234  1.00  0.00     0.189 C
BRANCH  36  37
HETATM   37  O6  UNL     1     -67.669   9.039  12.309  1.00  0.00    -0.399 OA
ATOM     38  H6  UNL     1     -67.709   8.473  11.547  1.00  0.00     0.209 HD
ENDBRANCH  36  37
ENDBRANCH  22  36
BRANCH  16  39
HETATM   39  C16 UNL     1     -71.640  15.241  11.680  1.00  0.00     0.038 C
BRANCH  39  40
HETATM   40  C17 UNL     1     -72.068  15.171  13.100  1.00  0.00    -0.020 C
HETATM   41  C18 UNL     1     -71.939  16.499  13.819  1.00  0.00     0.009 C
HETATM   42  C19 UNL     1     -73.390  14.544  13.363  1.00  0.00     0.009 C
ENDBRANCH  39  40
ENDBRANCH  16  39
TORSDOF 9
ENDMDL