MODEL 1
REMARK VINA RESULT: -8.699170113      0.000      0.000
REMARK  9 active torsions:
REMARK  status: ('A' for Active; 'I' for Inactive)
REMARK    1  A    between atoms: N1_1  and  C1_5
REMARK    2  A    between atoms: C4_9  and  C5_10
REMARK    3  A    between atoms: C5_10  and  O2_11
REMARK    4  A    between atoms: C6_13  and  O3_14
REMARK    5  A    between atoms: C8_17  and  O4_18
REMARK    6  A    between atoms: O4_18  and  C9_19
REMARK    7  A    between atoms: C9_19  and  C10_20
REMARK    8  A    between atoms: C13_23  and  O5_24
REMARK    9  A    between atoms: O5_24  and  C14_25
ROOT
HETATM    1  C1  UNL     1     -36.547 -13.113  24.333  1.00  0.00     0.215 C
HETATM    2  C2  UNL     1     -36.733 -14.407  25.156  1.00  0.00     0.070 C
HETATM    3  C3  UNL     1     -37.906 -15.055  24.616  1.00  0.00     0.164 A
HETATM    4  O1  UNL     1     -38.936 -15.751  25.020  1.00  0.00    -0.364 OA
HETATM    5  C4  UNL     1     -39.122 -14.411  25.295  1.00  0.00     0.134 A
HETATM    6  C6  UNL     1     -39.503 -13.332  24.386  1.00  0.00     0.160 C
HETATM    7  C7  UNL     1     -38.813 -12.044  24.465  1.00  0.00     0.069 C
HETATM    8  C8  UNL     1     -37.351 -11.993  24.839  1.00  0.00     0.154 C
ENDROOT
BRANCH   8   9
HETATM    9  O4  UNL     1     -36.889 -10.810  24.300  1.00  0.00    -0.379 OA
BRANCH   9  10
HETATM   10  C9  UNL     1     -37.686 -10.063  23.526  1.00  0.00     0.206 C
BRANCH  10  11
HETATM   11  C10 UNL     1     -37.684  -8.589  23.668  1.00  0.00    -0.034 A
HETATM   12  C11 UNL     1     -36.684  -7.882  24.275  1.00  0.00     0.012 A
HETATM   13  C12 UNL     1     -36.758  -6.522  24.388  1.00  0.00     0.038 A
HETATM   14  C13 UNL     1     -37.826  -5.782  23.907  1.00  0.00     0.076 A
HETATM   15  C20 UNL     1     -38.834  -6.501  23.295  1.00  0.00     0.038 A
HETATM   16  C21 UNL     1     -38.779  -7.859  23.172  1.00  0.00     0.012 A
BRANCH  14  17
HETATM   17  O5  UNL     1     -37.919  -4.415  24.011  1.00  0.00    -0.311 OA
BRANCH  17  18
HETATM   18  C14 UNL     1     -38.999  -3.844  24.666  1.00  0.00     0.076 A
HETATM   19  C15 UNL     1     -39.192  -4.062  26.021  1.00  0.00     0.039 A
HETATM   20  C16 UNL     1     -40.258  -3.505  26.701  1.00  0.00     0.026 A
HETATM   21  C17 UNL     1     -41.167  -2.710  26.043  1.00  0.00     0.034 A
HETATM   22 CL1  UNL     1     -42.506  -2.016  26.921  1.00  0.00    -0.084 Cl
HETATM   23  C18 UNL     1     -40.979  -2.490  24.698  1.00  0.00     0.026 A
HETATM   24  C19 UNL     1     -39.912  -3.046  24.015  1.00  0.00     0.039 A
ENDBRANCH  17  18
ENDBRANCH  14  17
ENDBRANCH  10  11
ENDBRANCH   9  10
ENDBRANCH   8   9
BRANCH   1  25
HETATM   25  N1  UNL     1     -35.154 -12.888  24.137  1.00  0.00    -0.072 N
ATOM     26  H13 UNL     1     -34.945 -12.532  23.204  1.00  0.00     0.274 HD
ATOM     27  H12 UNL     1     -34.810 -12.092  24.674  1.00  0.00     0.274 HD
ATOM     28  H11 UNL     1     -34.648 -13.749  24.348  1.00  0.00     0.274 HD
ENDBRANCH   1  25
BRANCH   6  29
HETATM   29  O3  UNL     1     -40.898 -13.064  24.475  1.00  0.00    -0.392 OA
ATOM     30  H3  UNL     1     -41.057 -12.135  24.594  1.00  0.00     0.210 HD
ENDBRANCH   6  29
BRANCH   5  31
HETATM   31  C5  UNL     1     -39.325 -14.247  26.727  1.00  0.00     0.207 C
BRANCH  31  32
HETATM   32  O2  UNL     1     -40.510 -14.833  27.152  1.00  0.00    -0.398 OA
ATOM     33  H2  UNL     1     -41.183 -14.185  27.323  1.00  0.00     0.209 HD
ENDBRANCH  31  32
ENDBRANCH   5  31
TORSDOF 9
ENDMDL