MODEL 1
REMARK VINA RESULT: -8.299137258      0.000      0.000
REMARK  11 active torsions:
REMARK  status: ('A' for Active; 'I' for Inactive)
REMARK    1  A    between atoms: C2_2  and  N1_3
REMARK    2  A    between atoms: C2_2  and  N2_7
REMARK    3  A    between atoms: N2_7  and  C3_9
REMARK    4  A    between atoms: C3_9  and  O1_10
REMARK    5  A    between atoms: C3_9  and  C4_12
REMARK    6  A    between atoms: C5_15  and  C6_16
REMARK    7  A    between atoms: C10_22  and  N5_23
REMARK    8  A    between atoms: N5_23  and  C11_25
REMARK    9  A    between atoms: C14_30  and  O2_31
REMARK   10  A    between atoms: O2_31  and  C15_32
REMARK   11  A    between atoms: C15_32  and  C16_33
ROOT
HETATM    1  C4  UNL     1     -34.271  -9.219  26.002  1.00  0.00     0.128 A
HETATM    2  N3  UNL     1     -33.956  -8.608  27.194  1.00  0.00    -0.352 N
ATOM      3  H3  UNL     1     -32.999  -8.679  27.539  1.00  0.00     0.166 HD
HETATM    4  C5  UNL     1     -34.844  -7.927  27.915  1.00  0.00     0.029 A
HETATM    5  C9  UNL     1     -36.128  -7.844  27.425  1.00  0.00     0.115 A
HETATM    6  N4  UNL     1     -36.454  -8.435  26.263  1.00  0.00    -0.348 N
ATOM      7  H4  UNL     1     -37.413  -8.358  25.925  1.00  0.00     0.167 HD
HETATM    8  C10 UNL     1     -35.550  -9.134  25.521  1.00  0.00     0.137 A
ENDROOT
BRANCH   8   9
HETATM    9  N5  UNL     1     -35.935  -9.675  24.424  1.00  0.00    -0.338 N
ATOM     10  H5  UNL     1     -35.223  -9.905  23.731  1.00  0.00     0.167 HD
BRANCH   9  11
HETATM   11  C11 UNL     1     -37.282  -9.975  24.110  1.00  0.00     0.074 A
HETATM   12  C12 UNL     1     -38.152  -8.984  23.685  1.00  0.00     0.119 A
HETATM   13  N6  UNL     1     -39.431  -9.244  23.383  1.00  0.00    -0.370 N
HETATM   14  C13 UNL     1     -39.948 -10.482  23.475  1.00  0.00     0.126 A
ATOM     15  H6  UNL     1     -40.032  -8.479  23.075  1.00  0.00     0.164 HD
HETATM   16  C14 UNL     1     -39.113 -11.491  23.894  1.00  0.00     0.108 A
HETATM   17  C19 UNL     1     -37.790 -11.247  24.210  1.00  0.00     0.096 A
HETATM   18 CL1  UNL     1     -36.701 -12.520  24.747  1.00  0.00    -0.079 Cl
BRANCH  16  19
HETATM   19  O2  UNL     1     -39.556 -12.775  24.013  1.00  0.00    -0.348 OA
BRANCH  19  20
HETATM   20  C15 UNL     1     -40.337 -13.373  24.976  1.00  0.00     0.180 C
BRANCH  20  21
HETATM   21  C16 UNL     1     -39.998 -14.844  25.139  1.00  0.00     0.010 A
HETATM   22  C17 UNL     1     -38.607 -15.236  24.908  1.00  0.00     0.007 A
HETATM   23  C18 UNL     1     -39.107 -15.214  26.306  1.00  0.00     0.007 A
ENDBRANCH  20  21
ENDBRANCH  19  20
ENDBRANCH  16  19
ENDBRANCH   9  11
ENDBRANCH   8   9
BRANCH   1  24
HETATM   24  C3  UNL     1     -33.227  -9.934  25.316  1.00  0.00     0.168 C
BRANCH  24  25
HETATM   25  N2  UNL     1     -32.807 -11.257  25.464  1.00  0.00    -0.342 N
ATOM     26  H2  UNL     1     -32.725 -11.659  26.398  1.00  0.00     0.163 HD
BRANCH  25  27
HETATM   27  C2  UNL     1     -32.482 -12.075  24.297  1.00  0.00     0.279 C
HETATM   28  C1  UNL     1     -33.592 -12.098  23.292  1.00  0.00     0.063 C
BRANCH  27  29
HETATM   29  N1  UNL     1     -31.260 -11.571  23.734  1.00  0.00    -0.059 N
ATOM     30  H13 UNL     1     -30.805 -10.911  24.365  1.00  0.00     0.276 HD
ATOM     31  H12 UNL     1     -30.539 -12.291  23.709  1.00  0.00     0.276 HD
ATOM     32  H11 UNL     1     -31.407 -11.161  22.811  1.00  0.00     0.276 HD
ENDBRANCH  27  29
ENDBRANCH  25  27
ENDBRANCH  24  25
BRANCH  24  33
HETATM   33  O1  UNL     1     -32.596  -9.213  24.428  1.00  0.00    -0.344 OA
ATOM     34  H1  UNL     1     -32.525  -8.283  24.606  1.00  0.00     0.219 HD
ENDBRANCH  24  33
ENDBRANCH   1  24
BRANCH   4  35
HETATM   35  C6  UNL     1     -34.450  -7.277  29.207  1.00  0.00     0.037 A
HETATM   36  C7  UNL     1     -34.940  -7.868  30.486  1.00  0.00     0.011 A
HETATM   37  C8  UNL     1     -35.460  -6.585  30.009  1.00  0.00     0.011 A
ENDBRANCH   4  35
TORSDOF 11
ENDMDL