MODEL 3
REMARK VINA RESULT: -9.101770326      2.026      2.491
REMARK  7 active torsions:
REMARK  status: ('A' for Active; 'I' for Inactive)
REMARK    1  A    between atoms: N1_1  and  C1_5
REMARK    2  A    between atoms: N2_7  and  C3_8
REMARK    3  A    between atoms: C11_16  and  N3_17
REMARK       I    between atoms: N3_17  and  C12_19
REMARK    4  A    between atoms: C12_19  and  C13_21
REMARK    5  A    between atoms: C13_21  and  C14_23
REMARK    6  A    between atoms: N4_24  and  N5_26
REMARK    7  A    between atoms: N5_26  and  C15_28
ROOT
HETATM    1  N3  UNL     1     -34.478  -9.689  26.058  1.00  0.00    -0.347 N
ATOM      2  H3  UNL     1     -34.013 -10.484  26.497  1.00  0.00     0.163 HD
HETATM    3  C12 UNL     1     -34.365  -8.421  26.676  1.00  0.00     0.293 C
HETATM    4  O1  UNL     1     -34.931  -7.433  26.142  1.00  0.00    -0.264 OA
ENDROOT
BRANCH   1   5
HETATM    5  C11 UNL     1     -35.220  -9.916  24.835  1.00  0.00     0.118 C
HETATM    6  C1  UNL     1     -34.690 -11.215  24.228  1.00  0.00     0.223 C
HETATM    7  C2  UNL     1     -35.581 -12.382  24.581  1.00  0.00     0.152 C
HETATM    8  N2  UNL     1     -36.915 -12.195  24.071  1.00  0.00    -0.406 N
HETATM    9  C9  UNL     1     -37.373 -10.861  24.113  1.00  0.00     0.119 C
HETATM   10  C10 UNL     1     -36.651 -10.065  25.173  1.00  0.00     0.047 C
BRANCH   6  11
HETATM   11  N1  UNL     1     -33.356 -11.520  24.707  1.00  0.00    -0.071 N
ATOM     12  H13 UNL     1     -33.007 -10.831  25.372  1.00  0.00     0.274 HD
ATOM     13  H12 UNL     1     -33.332 -12.330  25.326  1.00  0.00     0.274 HD
ATOM     14  H11 UNL     1     -32.751 -11.627  23.892  1.00  0.00     0.274 HD
ENDBRANCH   6  11
BRANCH   8  15
HETATM   15  C3  UNL     1     -37.799 -13.260  24.337  1.00  0.00     0.079 C
HETATM   16  C4  UNL     1     -37.201 -14.584  24.645  1.00  0.00     0.025 C
HETATM   17  C5  UNL     1     -38.295 -15.463  25.225  1.00  0.00     0.002 C
HETATM   18  C6  UNL     1     -39.639 -15.160  24.630  1.00  0.00     0.000 C
HETATM   19  C7  UNL     1     -40.121 -13.772  24.956  1.00  0.00     0.002 C
HETATM   20  C8  UNL     1     -38.882 -12.951  25.338  1.00  0.00     0.025 C
ENDBRANCH   8  15
ENDBRANCH   1   5
BRANCH   3  21
HETATM   21  C13 UNL     1     -33.607  -8.263  27.908  1.00  0.00     0.255 C
HETATM   22  O2  UNL     1     -32.483  -8.873  28.027  1.00  0.00    -0.281 OA
BRANCH  21  23
HETATM   23  C14 UNL     1     -34.092  -7.440  28.985  1.00  0.00     0.167 C
HETATM   24  N4  UNL     1     -35.326  -7.402  29.293  1.00  0.00    -0.307 N
ATOM     25  H4  UNL     1     -35.979  -7.974  28.757  1.00  0.00     0.186 HD
BRANCH  24  26
HETATM   26  N5  UNL     1     -35.833  -6.610  30.336  1.00  0.00    -0.301 N
ATOM     27  H5  UNL     1     -35.988  -7.010  31.262  1.00  0.00     0.187 HD
BRANCH  26  28
HETATM   28  C15 UNL     1     -36.125  -5.248  30.082  1.00  0.00     0.048 A
HETATM   29  C16 UNL     1     -35.621  -4.197  30.802  1.00  0.00     0.032 A
HETATM   30  C17 UNL     1     -35.938  -2.897  30.512  1.00  0.00     0.026 A
HETATM   31  C18 UNL     1     -36.801  -2.574  29.457  1.00  0.00     0.034 A
HETATM   32 CL1  UNL     1     -37.199  -0.900  29.097  1.00  0.00    -0.084 Cl
HETATM   33  C19 UNL     1     -37.305  -3.634  28.737  1.00  0.00     0.026 A
HETATM   34  C20 UNL     1     -36.986  -4.933  29.028  1.00  0.00     0.032 A
ENDBRANCH  26  28
ENDBRANCH  24  26
ENDBRANCH  21  23
ENDBRANCH   3  21
TORSDOF 7
ENDMDL