MODEL 5
REMARK VINA RESULT: -7.545580095      2.962      4.842
REMARK  7 active torsions:
REMARK  status: ('A' for Active; 'I' for Inactive)
REMARK    1  A    between atoms: C4_4  and  C5_5
REMARK    2  A    between atoms: C8_14  and  C9_15
REMARK    3  A    between atoms: C11_19  and  N3_20
REMARK    4  A    between atoms: C16_25  and  O3_26
REMARK    5  A    between atoms: O3_26  and  C17_27
REMARK    6  A    between atoms: C17_27  and  C18_28
REMARK    7  A    between atoms: C18_28  and  O4_30
ROOT
HETATM    1  C1  UNL     1     -39.306 -11.609  23.581  1.00  0.00     0.051 C
HETATM    2  C2  UNL     1     -38.070 -10.845  23.799  1.00  0.00    -0.026 A
HETATM    3  C3  UNL     1     -38.111  -9.484  23.926  1.00  0.00     0.021 A
HETATM    4  C4  UNL     1     -36.990  -8.693  24.134  1.00  0.00    -0.003 A
HETATM    5  C10 UNL     1     -35.790  -9.361  24.209  1.00  0.00     0.072 A
HETATM    6 CL1  UNL     1     -34.273  -8.487  24.489  1.00  0.00    -0.081 Cl
HETATM    7  C11 UNL     1     -35.710 -10.750  24.082  1.00  0.00     0.087 A
HETATM    8  C16 UNL     1     -36.838 -11.506  23.879  1.00  0.00     0.103 A
ENDROOT
BRANCH   4   9
HETATM    9  C5  UNL     1     -37.055  -7.230  24.254  1.00  0.00     0.091 C
HETATM   10  C6  UNL     1     -36.204  -6.649  25.347  1.00  0.00     0.047 C
HETATM   11  N1  UNL     1     -38.393  -6.723  24.386  1.00  0.00    -0.341 N
HETATM   12  C7  UNL     1     -38.312  -5.361  23.902  1.00  0.00     0.214 C
ATOM     13  H1  UNL     1     -39.215  -7.212  24.740  1.00  0.00     0.164 HD
HETATM   14  N2  UNL     1     -39.209  -4.449  24.011  1.00  0.00    -0.365 N
HETATM   15  O1  UNL     1     -37.081  -5.191  23.283  1.00  0.00    -0.307 OA
ATOM     16  H22 UNL     1     -40.114  -4.574  24.465  1.00  0.00     0.159 HD
ATOM     17  H21 UNL     1     -39.152  -3.490  23.669  1.00  0.00     0.159 HD
HETATM   18  C8  UNL     1     -36.648  -6.522  22.954  1.00  0.00     0.225 C
BRANCH  18  19
HETATM   19  C9  UNL     1     -37.469  -6.991  21.822  1.00  0.00     0.266 C
HETATM   20  O2  UNL     1     -37.416  -6.439  20.755  1.00  0.00    -0.304 OA
ENDBRANCH  18  19
ENDBRANCH   4   9
BRANCH   7  21
HETATM   21  N3  UNL     1     -34.433 -11.341  24.141  1.00  0.00    -0.377 N
HETATM   22  C12 UNL     1     -33.806 -12.016  23.011  1.00  0.00     0.123 C
HETATM   23  C13 UNL     1     -32.329 -12.063  23.325  1.00  0.00     0.021 C
HETATM   24  C14 UNL     1     -32.149 -11.518  24.708  1.00  0.00     0.021 C
HETATM   25  C15 UNL     1     -33.550 -11.352  25.276  1.00  0.00     0.123 C
ENDBRANCH   7  21
BRANCH   8  26
HETATM   26  O3  UNL     1     -36.862 -12.880  23.739  1.00  0.00    -0.346 OA
BRANCH  26  27
HETATM   27  C17 UNL     1     -36.788 -13.694  24.884  1.00  0.00     0.207 C
BRANCH  27  28
HETATM   28  C18 UNL     1     -38.181 -14.209  25.273  1.00  0.00     0.138 C
HETATM   29  C19 UNL     1     -38.159 -15.717  25.282  1.00  0.00     0.041 C
BRANCH  28  30
HETATM   30  O4  UNL     1     -38.453 -13.775  26.562  1.00  0.00    -0.394 OA
ATOM     31  H4  UNL     1     -38.378 -12.828  26.575  1.00  0.00     0.210 HD
ENDBRANCH  28  30
ENDBRANCH  27  28
ENDBRANCH  26  27
ENDBRANCH   8  26
TORSDOF 7
ENDMDL