MODEL 4
REMARK VINA RESULT: -7.883052104      1.936      2.371
REMARK  10 active torsions:
REMARK  status: ('A' for Active; 'I' for Inactive)
REMARK    1  A    between atoms: C5_5  and  C7_7
REMARK    2  A    between atoms: C7_7  and  O1_8
REMARK    3  A    between atoms: C11_13  and  O2_14
REMARK    4  A    between atoms: O2_14  and  O3_15
REMARK    5  A    between atoms: O3_15  and  C12_16
REMARK    6  A    between atoms: C12_16  and  C13_17
REMARK    7  A    between atoms: C12_16  and  C14_19
REMARK    8  A    between atoms: C14_19  and  C15_21
REMARK    9  A    between atoms: C15_21  and  N1_22
REMARK   10  A    between atoms: C15_21  and  O5_26
ROOT
HETATM    1  C1  UNL     1     -37.941 -13.394  24.088  1.00  0.00     0.015 C
HETATM    2  C2  UNL     1     -38.627 -12.243  24.801  1.00  0.00     0.011 C
HETATM    3  C3  UNL     1     -40.093 -12.180  24.479  1.00  0.00     0.010 C
HETATM    4  C4  UNL     1     -40.258 -11.652  23.094  1.00  0.00     0.016 C
HETATM    5  C5  UNL     1     -39.755 -10.253  22.923  1.00  0.00     0.001 C
HETATM    6  C6  UNL     1     -39.515 -10.063  21.417  1.00  0.00     0.022 C
HETATM    7  C8  UNL     1     -38.449 -10.082  23.610  1.00  0.00    -0.066 C
HETATM    8  C9  UNL     1     -37.962 -10.983  24.447  1.00  0.00    -0.070 C
HETATM    9  C10 UNL     1     -36.667 -10.908  25.190  1.00  0.00     0.070 C
HETATM   10  C11 UNL     1     -35.689  -9.991  24.535  1.00  0.00     0.168 C
HETATM   11  C16 UNL     1     -35.980  -8.560  24.917  1.00  0.00     0.018 C
HETATM   12  C17 UNL     1     -34.779  -7.736  24.495  1.00  0.00     0.013 C
HETATM   13  C18 UNL     1     -37.274  -8.040  24.400  1.00  0.00    -0.008 C
HETATM   14  C19 UNL     1     -37.141  -6.590  23.974  1.00  0.00     0.011 C
HETATM   15  C20 UNL     1     -37.807  -8.806  23.214  1.00  0.00     0.040 C
ENDROOT
BRANCH  10  16
HETATM   16  O2  UNL     1     -34.423 -10.285  25.089  1.00  0.00    -0.234 OA
BRANCH  16  17
HETATM   17  O3  UNL     1     -34.102 -11.527  24.928  1.00  0.00    -0.226 OA
BRANCH  17  18
HETATM   18  C12 UNL     1     -33.622 -11.710  23.628  1.00  0.00     0.248 C
BRANCH  18  19
HETATM   19  C13 UNL     1     -34.442 -12.863  23.066  1.00  0.00     0.157 C
HETATM   20 CL1  UNL     1     -34.590 -14.153  24.268  1.00  0.00    -0.127 Cl
ENDBRANCH  18  19
BRANCH  18  21
HETATM   21  C14 UNL     1     -32.175 -11.999  23.614  1.00  0.00     0.215 C
HETATM   22  O4  UNL     1     -31.461 -11.447  24.451  1.00  0.00    -0.290 OA
BRANCH  21  23
HETATM   23  C15 UNL     1     -31.537 -12.903  22.654  1.00  0.00     0.389 C
BRANCH  23  24
HETATM   24  N1  UNL     1     -30.407 -13.641  23.135  1.00  0.00    -0.046 N
ATOM     25  H13 UNL     1     -29.804 -13.028  23.683  1.00  0.00     0.277 HD
ATOM     26  H12 UNL     1     -30.705 -14.299  23.855  1.00  0.00     0.277 HD
ATOM     27  H11 UNL     1     -29.854 -14.128  22.429  1.00  0.00     0.277 HD
ENDBRANCH  23  24
BRANCH  23  28
HETATM   28  O5  UNL     1     -31.121 -12.182  21.519  1.00  0.00    -0.364 OA
ATOM     29  H5  UNL     1     -30.791 -11.331  21.780  1.00  0.00     0.212 HD
ENDBRANCH  23  28
ENDBRANCH  21  23
ENDBRANCH  18  21
ENDBRANCH  17  18
ENDBRANCH  16  17
ENDBRANCH  10  16
BRANCH   5  30
HETATM   30  C7  UNL     1     -40.771  -9.215  23.313  1.00  0.00     0.177 C
BRANCH  30  31
HETATM   31  O1  UNL     1     -42.063  -9.497  22.932  1.00  0.00    -0.400 OA
ATOM     32  H1  UNL     1     -42.284 -10.421  22.922  1.00  0.00     0.209 HD
ENDBRANCH  30  31
ENDBRANCH   5  30
TORSDOF 10
ENDMDL