MODEL 4
REMARK VINA RESULT: -8.334731717      2.795      3.348
REMARK  8 active torsions:
REMARK  status: ('A' for Active; 'I' for Inactive)
REMARK    1  A    between atoms: C2_2  and  C12_21
REMARK    2  A    between atoms: N1_3  and  N2_5
REMARK       I    between atoms: N2_5  and  C3_7
REMARK    3  A    between atoms: C3_7  and  C4_9
REMARK    4  A    between atoms: C4_9  and  C5_10
REMARK       I    between atoms: C5_10  and  N3_12
REMARK    5  A    between atoms: N3_12  and  C6_14
REMARK    6  A    between atoms: C12_21  and  N4_23
REMARK       I    between atoms: N4_23  and  C14_25
REMARK    7  A    between atoms: C14_25  and  O4_27
REMARK    8  A    between atoms: O4_27  and  C15_28
ROOT
HETATM    1  C15 UNL     1     -40.616  -2.666  25.728  1.00  0.00     0.153 C
HETATM    2  C16 UNL     1     -40.886  -2.806  24.248  1.00  0.00     0.063 C
HETATM    3  C17 UNL     1     -40.251  -3.981  26.365  1.00  0.00     0.063 C
HETATM    4  C18 UNL     1     -41.780  -2.086  26.408  1.00  0.00     0.097 C
HETATM    5  N5  UNL     1     -42.705  -1.616  26.948  1.00  0.00    -0.194 NA
ENDROOT
BRANCH   1   6
HETATM    6  O4  UNL     1     -39.544  -1.734  25.861  1.00  0.00    -0.278 OA
BRANCH   6   7
HETATM    7  C14 UNL     1     -38.250  -2.214  25.868  1.00  0.00     0.362 C
HETATM    8  N4  UNL     1     -37.647  -2.774  24.713  1.00  0.00    -0.327 N
ATOM      9  H4  UNL     1     -38.186  -2.825  23.848  1.00  0.00     0.165 HD
HETATM   10  O3  UNL     1     -37.585  -2.145  26.956  1.00  0.00    -0.238 OA
BRANCH   8  11
HETATM   11  C12 UNL     1     -36.309  -3.268  24.728  1.00  0.00     0.129 C
HETATM   12  C13 UNL     1     -35.546  -2.539  23.612  1.00  0.00     0.038 C
BRANCH  11  13
HETATM   13  C2  UNL     1     -36.225  -4.737  24.539  1.00  0.00     0.022 C
HETATM   14  C1  UNL     1     -35.280  -5.348  23.582  1.00  0.00     0.067 C
HETATM   15  N1  UNL     1     -37.011  -5.478  25.244  1.00  0.00    -0.305 N
ATOM     16  H1  UNL     1     -37.651  -5.024  25.895  1.00  0.00     0.186 HD
BRANCH  15  17
HETATM   17  N2  UNL     1     -37.027  -6.867  25.158  1.00  0.00    -0.270 N
HETATM   18  C3  UNL     1     -36.305  -7.665  26.107  1.00  0.00     0.244 C
HETATM   19  O1  UNL     1     -35.665  -7.096  27.006  1.00  0.00    -0.271 OA
ATOM     20  H2  UNL     1     -37.558  -7.322  24.414  1.00  0.00     0.190 HD
BRANCH  18  21
HETATM   21  C4  UNL     1     -36.354  -9.110  25.973  1.00  0.00     0.207 C
BRANCH  21  22
HETATM   22  C5  UNL     1     -35.473  -9.558  24.839  1.00  0.00     0.231 C
HETATM   23  O2  UNL     1     -35.316  -8.842  23.836  1.00  0.00    -0.273 OA
HETATM   24  N3  UNL     1     -34.849 -10.796  24.965  1.00  0.00    -0.327 N
ATOM     25  H3  UNL     1     -35.047 -11.308  25.826  1.00  0.00     0.169 HD
BRANCH  24  26
HETATM   26  C6  UNL     1     -33.980 -11.435  24.059  1.00  0.00     0.034 A
HETATM   27  C7  UNL     1     -32.626 -11.313  24.093  1.00  0.00     0.031 A
HETATM   28  C8  UNL     1     -31.799 -11.957  23.157  1.00  0.00     0.026 A
HETATM   29  C9  UNL     1     -32.331 -12.739  22.164  1.00  0.00     0.034 A
HETATM   30 CL1  UNL     1     -31.296 -13.547  20.989  1.00  0.00    -0.084 Cl
HETATM   31  C10 UNL     1     -33.698 -12.863  22.130  1.00  0.00     0.026 A
HETATM   32  C11 UNL     1     -34.518 -12.242  23.035  1.00  0.00     0.031 A
ENDBRANCH  24  26
ENDBRANCH  21  22
ENDBRANCH  18  21
ENDBRANCH  15  17
ENDBRANCH  11  13
ENDBRANCH   8  11
ENDBRANCH   6   7
ENDBRANCH   1   6
TORSDOF 8
ENDMDL