MODEL 5
REMARK VINA RESULT: -8.073939156      1.487      2.112
REMARK  7 active torsions:
REMARK  status: ('A' for Active; 'I' for Inactive)
REMARK    1  A    between atoms: N1_8  and  C8_9
REMARK    2  A    between atoms: C8_9  and  C9_10
REMARK    3  A    between atoms: C9_10  and  N2_11
REMARK    4  A    between atoms: C10_16  and  C11_17
REMARK    5  A    between atoms: C13_21  and  N6_22
REMARK    6  A    between atoms: C15_31  and  C16_32
REMARK    7  A    between atoms: C16_32  and  C17_33
ROOT
HETATM    1  N2  UNL     1     -36.856  -9.157  24.956  1.00  0.00    -0.274 N
HETATM    2  N3  UNL     1     -37.763  -8.710  24.117  1.00  0.00    -0.240 N
ATOM      3  H3  UNL     1     -38.363  -9.306  23.548  1.00  0.00     0.208 HD
HETATM    4  N4  UNL     1     -37.794  -7.436  24.105  1.00  0.00    -0.283 N
ATOM      5  H4  UNL     1     -38.414  -6.857  23.538  1.00  0.00     0.188 HD
HETATM    6  C10 UNL     1     -36.845  -6.980  24.991  1.00  0.00     0.092 A
HETATM    7  C15 UNL     1     -36.249  -8.074  25.527  1.00  0.00     0.079 A
ENDROOT
BRANCH   6   8
HETATM    8  C11 UNL     1     -36.801  -5.541  25.209  1.00  0.00     0.054 A
HETATM    9  C12 UNL     1     -36.212  -4.614  24.414  1.00  0.00     0.123 A
HETATM   10  N5  UNL     1     -36.336  -3.307  24.664  1.00  0.00    -0.201 N
HETATM   11  C13 UNL     1     -37.054  -2.853  25.722  1.00  0.00     0.677 A
ATOM     12  H5  UNL     1     -35.881  -2.635  24.046  1.00  0.00     0.183 HD
HETATM   13  N7  UNL     1     -37.629  -3.767  26.500  1.00  0.00    -0.176 N
HETATM   14  C14 UNL     1     -37.542  -5.078  26.302  1.00  0.00     0.128 A
ATOM     15  H7  UNL     1     -38.171  -3.440  27.299  1.00  0.00     0.186 HD
HETATM   16  N8  UNL     1     -38.124  -5.891  27.142  1.00  0.00    -0.384 N
ATOM     17  H82 UNL     1     -38.057  -6.898  26.991  1.00  0.00     0.157 HD
ATOM     18  H81 UNL     1     -38.663  -5.553  27.939  1.00  0.00     0.157 HD
BRANCH  11  19
HETATM   19  N6  UNL     1     -37.153  -1.575  25.943  1.00  0.00    -0.234 N
ATOM     20  H62 UNL     1     -36.412  -0.913  25.711  1.00  0.00     0.174 HD
ATOM     21  H61 UNL     1     -38.001  -1.192  26.362  1.00  0.00     0.174 HD
ENDBRANCH  11  19
ENDBRANCH   6   8
BRANCH   7  22
HETATM   22  C16 UNL     1     -35.151  -8.152  26.481  1.00  0.00     0.031 C
BRANCH  22  23
HETATM   23  C17 UNL     1     -33.745  -8.064  26.087  1.00  0.00     0.050 C
HETATM   24  C18 UNL     1     -33.073  -9.349  25.645  1.00  0.00     0.036 C
HETATM   25  C19 UNL     1     -32.958  -7.809  27.472  1.00  0.00     0.036 C
HETATM   26 CL1  UNL     1     -33.186  -6.727  25.120  1.00  0.00    -0.116 Cl
ENDBRANCH  22  23
ENDBRANCH   7  22
BRANCH   1  27
HETATM   27  C9  UNL     1     -36.677 -10.574  25.293  1.00  0.00     0.181 C
BRANCH  27  28
HETATM   28  C8  UNL     1     -37.965 -11.282  25.215  1.00  0.00     0.295 C
BRANCH  28  29
HETATM   29  N1  UNL     1     -38.074 -12.623  24.805  1.00  0.00     0.098 N
HETATM   30  C2  UNL     1     -37.956 -13.514  25.964  1.00  0.00     0.219 C
HETATM   31  C1  UNL     1     -37.333 -14.804  25.534  1.00  0.00     0.043 C
HETATM   32  C3  UNL     1     -39.183 -13.726  26.747  1.00  0.00     0.035 C
HETATM   33  C4  UNL     1     -40.372 -14.148  25.913  1.00  0.00     0.004 C
HETATM   34  C5  UNL     1     -39.979 -14.189  24.448  1.00  0.00     0.035 C
HETATM   35  C6  UNL     1     -39.211 -12.982  23.996  1.00  0.00     0.219 C
HETATM   36  C7  UNL     1     -40.191 -11.905  23.690  1.00  0.00     0.043 C
ENDBRANCH  28  29
ENDBRANCH  27  28
ENDBRANCH   1  27
TORSDOF 7
ENDMDL