MODEL 3
REMARK VINA RESULT: -8.046156609      1.127      1.446
REMARK  11 active torsions:
REMARK  status: ('A' for Active; 'I' for Inactive)
REMARK    1  A    between atoms: C2_2  and  O2_4
REMARK    2  A    between atoms: O2_4  and  C3_5
REMARK    3  A    between atoms: C5_7  and  C6_8
REMARK       I    between atoms: C6_8  and  N1_10
REMARK    4  A    between atoms: N1_10  and  C7_12
REMARK    5  A    between atoms: C12_17  and  C13_18
REMARK    6  A    between atoms: C13_18  and  O4_19
REMARK    7  A    between atoms: C13_18  and  O5_21
REMARK    8  A    between atoms: C15_25  and  C16_26
REMARK    9  A    between atoms: C16_26  and  N3_27
REMARK   10  A    between atoms: N3_27  and  N4_29
REMARK   11  A    between atoms: N4_29  and  N5_30
ROOT
HETATM    1  C3  UNL     1     -35.138  -9.103  24.865  1.00  0.00     0.216 C
HETATM    2  C4  UNL     1     -36.418  -8.853  24.176  1.00  0.00     0.061 A
HETATM    3  C5  UNL     1     -37.594  -9.553  24.071  1.00  0.00     0.070 A
HETATM    4  C12 UNL     1     -38.432  -8.818  23.289  1.00  0.00     0.029 A
HETATM    5  C14 UNL     1     -37.746  -7.632  22.909  1.00  0.00     0.104 A
HETATM    6  N2  UNL     1     -36.546  -7.682  23.454  1.00  0.00    -0.350 N
HETATM    7  C15 UNL     1     -35.400  -6.785  23.450  1.00  0.00     0.112 C
HETATM    8  C17 UNL     1     -34.907  -6.567  24.844  1.00  0.00     0.067 C
HETATM    9  C18 UNL     1     -34.651  -7.837  25.544  1.00  0.00     0.207 C
HETATM   10  F1  UNL     1     -33.303  -7.929  25.866  1.00  0.00    -0.246 F
ENDROOT
BRANCH   3  11
HETATM   11  C6  UNL     1     -37.858 -10.839  24.683  1.00  0.00     0.254 C
HETATM   12  O3  UNL     1     -37.522 -11.015  25.925  1.00  0.00    -0.268 OA
HETATM   13  N1  UNL     1     -38.458 -11.964  24.096  1.00  0.00    -0.352 N
ATOM     14  H1  UNL     1     -38.770 -11.927  23.126  1.00  0.00     0.163 HD
BRANCH  13  15
HETATM   15  C7  UNL     1     -38.634 -13.180  24.869  1.00  0.00     0.084 C
HETATM   16  C8  UNL     1     -37.541 -14.165  24.471  1.00  0.00     0.025 C
HETATM   17  C9  UNL     1     -38.071 -15.452  25.068  1.00  0.00     0.002 C
HETATM   18  C10 UNL     1     -39.576 -15.314  25.119  1.00  0.00     0.002 C
HETATM   19  C11 UNL     1     -39.876 -13.930  24.533  1.00  0.00     0.025 C
ENDBRANCH  13  15
ENDBRANCH   3  11
BRANCH   4  20
HETATM   20  C13 UNL     1     -39.787  -9.098  22.770  1.00  0.00     0.290 C
BRANCH  20  21
HETATM   21  O4  UNL     1     -40.643  -9.443  23.874  1.00  0.00    -0.367 OA
ATOM     22  H4  UNL     1     -41.302  -8.766  23.972  1.00  0.00     0.213 HD
ENDBRANCH  20  21
BRANCH  20  23
HETATM   23  O5  UNL     1     -39.864 -10.164  21.897  1.00  0.00    -0.367 OA
ATOM     24  H5  UNL     1     -39.102 -10.280  21.342  1.00  0.00     0.213 HD
ENDBRANCH  20  23
ENDBRANCH   4  20
BRANCH   1  25
HETATM   25  O2  UNL     1     -34.106  -9.449  23.946  1.00  0.00    -0.307 OA
BRANCH  25  26
HETATM   26  C2  UNL     1     -33.461 -10.670  24.017  1.00  0.00     0.255 C
HETATM   27  C1  UNL     1     -34.204 -11.961  24.051  1.00  0.00     0.126 C
HETATM   28  O1  UNL     1     -32.215 -10.698  24.056  1.00  0.00    -0.266 OA
ENDBRANCH  25  26
ENDBRANCH   1  25
BRANCH   7  29
HETATM   29  C16 UNL     1     -35.723  -5.466  22.803  1.00  0.00     0.181 C
BRANCH  29  30
HETATM   30  N3  UNL     1     -35.320  -5.409  21.410  1.00  0.00    -0.251 N
ATOM     31  H3  UNL     1     -34.333  -5.393  21.154  1.00  0.00     0.197 HD
BRANCH  30  32
HETATM   32  N4  UNL     1     -36.185  -5.381  20.553  1.00  0.00    -0.248 NA
BRANCH  32  33
HETATM   33  N5  UNL     1     -37.044  -5.682  19.725  1.00  0.00    -0.261 N
ATOM     34  H52 UNL     1     -36.379  -5.723  18.953  1.00  0.00     0.193 HD
ATOM     35  H51 UNL     1     -37.922  -5.916  19.260  1.00  0.00     0.193 HD
ENDBRANCH  32  33
ENDBRANCH  30  32
ENDBRANCH  29  30
ENDBRANCH   7  29
TORSDOF 11
ENDMDL