MODEL 4
REMARK VINA RESULT: -9.093592950      1.107      1.158
REMARK  6 active torsions:
REMARK  status: ('A' for Active; 'I' for Inactive)
REMARK    1  A    between atoms: C1_2  and  C2_4
REMARK    2  A    between atoms: C5_8  and  N2_9
REMARK       I    between atoms: N2_9  and  C6_11
REMARK    3  A    between atoms: C6_11  and  C7_13
REMARK    4  A    between atoms: C7_13  and  N3_14
REMARK       I    between atoms: N3_14  and  C8_16
REMARK    5  A    between atoms: C8_16  and  C9_18
REMARK    6  A    between atoms: C10_22  and  C11_23
ROOT
HETATM    1  N3  UNL     1     -38.658  -7.330  23.789  1.00  0.00    -0.347 N
ATOM      2  H3  UNL     1     -39.106  -7.489  24.691  1.00  0.00     0.163 HD
HETATM    3  C8  UNL     1     -38.474  -8.401  22.908  1.00  0.00     0.272 C
HETATM    4  O3  UNL     1     -37.923  -8.274  21.764  1.00  0.00    -0.266 OA
ENDROOT
BRANCH   1   5
HETATM    5  C7  UNL     1     -38.220  -6.006  23.434  1.00  0.00     0.226 C
BRANCH   5   6
HETATM    6  C6  UNL     1     -38.459  -4.992  24.470  1.00  0.00     0.240 C
HETATM    7  N2  UNL     1     -37.355  -4.394  25.137  1.00  0.00    -0.319 N
ATOM      8  H2  UNL     1     -36.402  -4.665  24.894  1.00  0.00     0.169 HD
HETATM    9  O2  UNL     1     -39.611  -4.636  24.785  1.00  0.00    -0.271 OA
BRANCH   7  10
HETATM   10  C5  UNL     1     -37.589  -3.400  26.159  1.00  0.00     0.091 A
HETATM   11  C2  UNL     1     -37.709  -3.493  27.509  1.00  0.00     0.063 A
HETATM   12  C3  UNL     1     -37.933  -2.356  28.191  1.00  0.00     0.026 A
HETATM   13  C4  UNL     1     -38.025  -1.195  27.479  1.00  0.00     0.053 A
HETATM   14  S1  UNL     1     -37.798  -1.701  25.878  1.00  0.00    -0.083 SA
BRANCH  11  15
HETATM   15  C1  UNL     1     -37.596  -4.808  28.201  1.00  0.00     0.267 C
HETATM   16  N1  UNL     1     -36.685  -4.980  29.301  1.00  0.00    -0.057 NA
HETATM   17  O1  UNL     1     -38.254  -5.810  27.890  1.00  0.00    -0.271 OA
ENDBRANCH  11  15
ENDBRANCH   7  10
ENDBRANCH   5   6
ENDBRANCH   1   5
BRANCH   3  18
HETATM   18  C9  UNL     1     -38.902  -9.773  23.220  1.00  0.00     0.146 A
HETATM   19  N4  UNL     1     -39.973 -10.411  22.713  1.00  0.00    -0.254 N
HETATM   20  O4  UNL     1     -40.069 -11.607  23.192  1.00  0.00    -0.240 OA
ATOM     21  H4  UNL     1     -40.622 -10.005  22.040  1.00  0.00     0.195 HD
HETATM   22  C10 UNL     1     -39.080 -11.837  24.040  1.00  0.00     0.104 A
HETATM   23  C16 UNL     1     -38.336 -10.696  24.071  1.00  0.00     0.100 A
HETATM   24 CL1  UNL     1     -36.896 -10.386  25.008  1.00  0.00    -0.079 Cl
BRANCH  22  25
HETATM   25  C11 UNL     1     -38.815 -13.069  24.808  1.00  0.00     0.047 C
HETATM   26  C12 UNL     1     -39.841 -14.128  24.614  1.00  0.00     0.011 C
HETATM   27  C13 UNL     1     -39.144 -15.373  25.129  1.00  0.00     0.001 C
HETATM   28  C14 UNL     1     -37.671 -15.106  25.038  1.00  0.00     0.001 C
HETATM   29  C15 UNL     1     -37.536 -13.752  24.373  1.00  0.00     0.011 C
ENDBRANCH  22  25
ENDBRANCH   3  18
TORSDOF 6
ENDMDL