MODEL 2
REMARK VINA RESULT: -7.002319767      3.744      4.775
REMARK  9 active torsions:
REMARK  status: ('A' for Active; 'I' for Inactive)
REMARK    1  A    between atoms: N1_1  and  C1_5
REMARK    2  A    between atoms: C1_5  and  C2_6
REMARK    3  A    between atoms: C2_6  and  C3_7
REMARK    4  A    between atoms: C3_7  and  N2_8
REMARK    5  A    between atoms: N2_8  and  C4_11
REMARK    6  A    between atoms: C4_11  and  C5_12
REMARK    7  A    between atoms: C5_12  and  N3_13
REMARK    8  A    between atoms: C12_21  and  N4_22
REMARK    9  A    between atoms: C17_30  and  O1_31
ROOT
HETATM    1  N3  UNL     1     -37.859  -5.054  23.948  1.00  0.00    -0.381 N
HETATM    2  C6  UNL     1     -36.631  -4.530  23.564  1.00  0.00     0.086 C
HETATM    3  C7  UNL     1     -36.156  -3.522  24.609  1.00  0.00     0.027 C
HETATM    4  C8  UNL     1     -37.202  -3.148  25.610  1.00  0.00     0.024 C
HETATM    5  C9  UNL     1     -38.009  -4.267  26.162  1.00  0.00     0.105 C
HETATM    6 CL1  UNL     1     -37.673  -4.557  27.853  1.00  0.00    -0.123 Cl
HETATM    7  C10 UNL     1     -37.918  -5.514  25.302  1.00  0.00     0.104 C
HETATM    8  C11 UNL     1     -36.808  -6.397  25.664  1.00  0.00     0.053 C
HETATM    9  C12 UNL     1     -35.508  -6.248  24.978  1.00  0.00     0.103 C
HETATM   10  C18 UNL     1     -35.600  -5.650  23.600  1.00  0.00     0.051 C
ENDROOT
BRANCH   1  11
HETATM   11  C5  UNL     1     -39.076  -4.716  23.387  1.00  0.00     0.086 C
BRANCH  11  12
HETATM   12  C4  UNL     1     -39.300  -3.621  22.472  1.00  0.00     0.276 C
BRANCH  12  13
HETATM   13  N2  UNL     1     -39.679  -2.377  23.132  1.00  0.00    -0.071 N
ATOM     14  H22 UNL     1     -39.927  -1.629  22.485  1.00  0.00     0.277 HD
ATOM     15  H21 UNL     1     -38.900  -1.896  23.580  1.00  0.00     0.277 HD
BRANCH  13  16
HETATM   16  C3  UNL     1     -40.767  -2.743  24.063  1.00  0.00     0.234 C
BRANCH  16  17
HETATM   17  C2  UNL     1     -40.699  -1.974  25.346  1.00  0.00     0.055 C
BRANCH  17  18
HETATM   18  C1  UNL     1     -41.726  -2.614  26.283  1.00  0.00     0.231 C
BRANCH  18  19
HETATM   19  N1  UNL     1     -42.466  -1.581  26.998  1.00  0.00    -0.079 N
ATOM     20  H13 UNL     1     -42.579  -1.806  27.986  1.00  0.00     0.274 HD
ATOM     21  H12 UNL     1     -41.921  -0.724  27.101  1.00  0.00     0.274 HD
ATOM     22  H11 UNL     1     -43.361  -1.411  26.540  1.00  0.00     0.274 HD
ENDBRANCH  18  19
ENDBRANCH  17  18
ENDBRANCH  16  17
ENDBRANCH  13  16
ENDBRANCH  12  13
ENDBRANCH  11  12
ENDBRANCH   1  11
BRANCH   9  23
HETATM   23  N4  UNL     1     -34.935  -7.596  24.799  1.00  0.00    -0.290 N
HETATM   24  S1  UNL     1     -35.700  -9.061  24.517  1.00  0.00    -0.008 SA
HETATM   25  C13 UNL     1     -34.339 -10.086  24.433  1.00  0.00     0.054 A
HETATM   26  C14 UNL     1     -33.851 -11.389  24.252  1.00  0.00     0.040 A
HETATM   27  C16 UNL     1     -33.304  -9.207  24.638  1.00  0.00     0.102 A
HETATM   28  C15 UNL     1     -32.493 -11.263  24.356  1.00  0.00     0.090 A
HETATM   29  N5  UNL     1     -32.165  -9.982  24.582  1.00  0.00    -0.361 N
ATOM     30  H5  UNL     1     -31.213  -9.633  24.696  1.00  0.00     0.165 HD
HETATM   31  C17 UNL     1     -33.636  -7.917  24.826  1.00  0.00     0.177 A
BRANCH  31  32
HETATM   32  O1  UNL     1     -32.757  -6.979  25.028  1.00  0.00    -0.344 OA
ATOM     33  H1  UNL     1     -31.870  -7.101  24.711  1.00  0.00     0.219 HD
ENDBRANCH  31  32
ENDBRANCH   9  23
TORSDOF 9
ENDMDL