MODEL 3
REMARK VINA RESULT: -8.303672539      1.445      1.531
REMARK  5 active torsions:
REMARK  status: ('A' for Active; 'I' for Inactive)
REMARK    1  A    between atoms: C5_6  and  C6_7
REMARK    2  A    between atoms: C6_7  and  N2_8
REMARK    3  A    between atoms: N2_8  and  C7_11
REMARK    4  A    between atoms: N3_14  and  C10_15
REMARK    5  A    between atoms: C11_18  and  N5_19
ROOT
HETATM    1  N1  UNL     1       7.936  37.226  15.018  1.00  0.00    -0.191 NA
HETATM    2  C1  UNL     1       7.431  37.690  15.932  1.00  0.00     0.103 C
HETATM    3  C2  UNL     1       6.798  38.295  17.077  1.00  0.00     0.088 A
HETATM    4  C3  UNL     1       6.290  39.581  16.976  1.00  0.00     0.028 A
HETATM    5  C4  UNL     1       5.691  40.128  18.091  1.00  0.00     0.028 A
HETATM    6  C5  UNL     1       5.577  39.458  19.291  1.00  0.00     0.036 A
HETATM    7  N7  UNL     1       6.083  38.216  19.342  1.00  0.00    -0.344 N
ATOM      8  H7  UNL     1       6.011  37.697  20.217  1.00  0.00     0.167 HD
HETATM    9  C21 UNL     1       6.680  37.623  18.290  1.00  0.00     0.120 A
HETATM   10  N8  UNL     1       7.167  36.430  18.334  1.00  0.00    -0.384 N
ATOM     11  H81 UNL     1       7.079  35.937  19.223  1.00  0.00     0.157 HD
ATOM     12  H82 UNL     1       7.619  35.980  17.538  1.00  0.00     0.157 HD
ENDROOT
BRANCH   6  13
HETATM   13  C6  UNL     1       4.915  40.124  20.444  1.00  0.00     0.289 C
BRANCH  13  14
HETATM   14  N2  UNL     1       4.905  39.277  21.616  1.00  0.00    -0.066 N
ATOM     15  H22 UNL     1       5.610  38.543  21.542  1.00  0.00     0.278 HD
ATOM     16  H21 UNL     1       5.268  39.775  22.429  1.00  0.00     0.278 HD
BRANCH  14  17
HETATM   17  C7  UNL     1       3.612  38.722  21.889  1.00  0.00     0.189 C
HETATM   18  C8  UNL     1       3.503  37.339  21.331  1.00  0.00     0.053 C
HETATM   19  C9  UNL     1       3.192  36.368  22.447  1.00  0.00     0.126 C
HETATM   20  N3  UNL     1       1.898  36.779  22.998  1.00  0.00    -0.365 N
HETATM   21  C19 UNL     1       1.865  38.116  23.494  1.00  0.00     0.126 C
HETATM   22  C20 UNL     1       3.284  38.705  23.354  1.00  0.00     0.053 C
BRANCH  20  23
HETATM   23  C10 UNL     1       0.835  35.843  22.993  1.00  0.00     0.142 A
HETATM   24  N4  UNL     1       0.685  35.012  24.049  1.00  0.00    -0.175 N
HETATM   25  C11 UNL     1      -0.251  34.092  24.194  1.00  0.00     0.681 A
ATOM     26  H4  UNL     1       1.361  35.104  24.807  1.00  0.00     0.186 HD
HETATM   27  N6  UNL     1      -1.162  33.960  23.181  1.00  0.00    -0.200 N
HETATM   28  C17 UNL     1      -1.068  34.759  22.100  1.00  0.00     0.133 A
ATOM     29  H6  UNL     1      -1.905  33.265  23.245  1.00  0.00     0.183 HD
HETATM   30  C18 UNL     1      -0.073  35.708  21.987  1.00  0.00     0.094 A
HETATM   31 CL1  UNL     1       0.003  36.715  20.561  1.00  0.00    -0.079 Cl
BRANCH  25  32
HETATM   32  N5  UNL     1      -0.379  33.238  25.314  1.00  0.00    -0.218 N
HETATM   33  C12 UNL     1       0.726  32.935  26.178  1.00  0.00     0.141 C
HETATM   34  C13 UNL     1       0.455  31.528  26.729  1.00  0.00     0.020 C
HETATM   35  C14 UNL     1      -0.687  31.641  27.699  1.00  0.00     0.003 C
HETATM   36  C15 UNL     1      -1.840  32.327  27.056  1.00  0.00     0.020 C
HETATM   37  C16 UNL     1      -1.662  32.643  25.609  1.00  0.00     0.141 C
ENDBRANCH  25  32
ENDBRANCH  20  23
ENDBRANCH  14  17
ENDBRANCH  13  14
ENDBRANCH   6  13
TORSDOF 5
ENDMDL