MODEL 5
REMARK VINA RESULT: -7.000585926      3.404      6.280
REMARK  8 active torsions:
REMARK  status: ('A' for Active; 'I' for Inactive)
REMARK    1  A    between atoms: C2_2  and  C3_3
REMARK    2  A    between atoms: C3_3  and  C4_4
REMARK    3  A    between atoms: C7_11  and  N3_12
REMARK    4  A    between atoms: C10_15  and  O1_16
REMARK    5  A    between atoms: N4_23  and  C15_24
REMARK    6  A    between atoms: C18_27  and  N5_28
REMARK    7  A    between atoms: C19_34  and  C20_35
REMARK    8  A    between atoms: C20_35  and  O2_38
ROOT
HETATM    1  C4  UNL     1       6.527  37.249  24.441  1.00  0.00     0.085 A
HETATM    2  N1  UNL     1       7.314  37.039  23.361  1.00  0.00    -0.343 N
ATOM      3  H1  UNL     1       8.195  36.525  23.376  1.00  0.00     0.167 HD
HETATM    4  C5  UNL     1       6.785  37.588  22.289  1.00  0.00     0.079 A
HETATM    5  C6  UNL     1       7.225  37.634  20.969  1.00  0.00     0.121 A
HETATM    6  N2  UNL     1       6.514  38.257  20.043  1.00  0.00    -0.348 N
ATOM      7  H2  UNL     1       6.837  38.292  19.075  1.00  0.00     0.167 HD
HETATM    8  C7  UNL     1       5.341  38.853  20.405  1.00  0.00     0.145 A
HETATM    9  C13 UNL     1       4.902  38.810  21.710  1.00  0.00     0.189 A
HETATM   10  F1  UNL     1       3.741  39.404  21.986  1.00  0.00    -0.200 F
HETATM   11  C14 UNL     1       5.612  38.173  22.707  1.00  0.00     0.107 A
HETATM   12  N4  UNL     1       5.467  37.952  24.046  1.00  0.00    -0.322 N
ENDROOT
BRANCH  12  13
HETATM   13  C15 UNL     1       4.349  38.388  24.778  1.00  0.00     0.140 C
HETATM   14  C16 UNL     1       4.759  39.054  26.083  1.00  0.00     0.035 C
HETATM   15  C17 UNL     1       3.646  40.058  26.441  1.00  0.00     0.056 C
HETATM   16  C18 UNL     1       2.340  39.412  26.246  1.00  0.00     0.281 C
HETATM   17  N6  UNL     1       2.316  38.075  25.784  1.00  0.00    -0.365 N
HETATM   18  C19 UNL     1       3.242  37.488  25.066  1.00  0.00     0.041 C
ATOM     19  H6  UNL     1       1.500  37.516  26.032  1.00  0.00     0.161 HD
BRANCH  16  20
HETATM   20  N5  UNL     1       1.492  39.458  27.444  1.00  0.00    -0.058 N
ATOM     21  H53 UNL     1       1.947  38.993  28.230  1.00  0.00     0.276 HD
ATOM     22  H52 UNL     1       1.441  40.405  27.819  1.00  0.00     0.276 HD
ATOM     23  H51 UNL     1       0.559  39.077  27.287  1.00  0.00     0.276 HD
ENDBRANCH  16  20
BRANCH  18  24
HETATM   24  C20 UNL     1       2.965  36.106  24.721  1.00  0.00     0.090 C
HETATM   25  C21 UNL     1       2.870  35.896  23.190  1.00  0.00     0.052 C
HETATM   26  C22 UNL     1       3.865  35.045  25.211  1.00  0.00     0.052 C
BRANCH  24  27
HETATM   27  O2  UNL     1       1.661  35.782  25.144  1.00  0.00    -0.385 OA
ATOM     28  H2  UNL     1       1.055  36.426  24.796  1.00  0.00     0.211 HD
ENDBRANCH  24  27
ENDBRANCH  18  24
ENDBRANCH  12  13
BRANCH   1  29
HETATM   29  C3  UNL     1       6.927  36.661  25.733  1.00  0.00     0.076 C
BRANCH  29  30
HETATM   30  C2  UNL     1       8.420  36.664  25.876  1.00  0.00     0.003 C
HETATM   31  C1  UNL     1       8.868  35.604  26.873  1.00  0.00     0.005 C
ENDBRANCH  29  30
ENDBRANCH   1  29
BRANCH   8  32
HETATM   32  N3  UNL     1       4.646  39.491  19.364  1.00  0.00    -0.365 N
HETATM   33  C8  UNL     1       3.640  38.759  18.629  1.00  0.00     0.127 C
HETATM   34  C9  UNL     1       3.143  39.578  17.444  1.00  0.00     0.051 C
HETATM   35  C10 UNL     1       4.240  40.264  16.701  1.00  0.00     0.121 C
HETATM   36  C11 UNL     1       5.315  40.860  17.545  1.00  0.00     0.051 C
HETATM   37  C12 UNL     1       4.888  40.865  18.981  1.00  0.00     0.127 C
BRANCH  35  38
HETATM   38  O1  UNL     1       4.807  39.404  15.741  1.00  0.00    -0.395 OA
ATOM     39  H1  UNL     1       5.128  39.897  14.994  1.00  0.00     0.210 HD
ENDBRANCH  35  38
ENDBRANCH   8  32
TORSDOF 8
ENDMDL