MODEL 3
REMARK VINA RESULT: -8.698950264      1.008      1.435
REMARK  6 active torsions:
REMARK  status: ('A' for Active; 'I' for Inactive)
REMARK    1  A    between atoms: C2_2  and  C3_3
REMARK    2  A    between atoms: C3_3  and  O1_4
REMARK    3  A    between atoms: C3_3  and  C4_6
REMARK    4  A    between atoms: C4_6  and  N1_7
REMARK    5  A    between atoms: C8_17  and  C9_18
REMARK    6  A    between atoms: C11_22  and  N5_23
ROOT
HETATM    1  C9  UNL     1      -0.464  34.650  23.577  1.00  0.00     0.123 A
HETATM    2  N4  UNL     1       0.683  35.327  23.388  1.00  0.00    -0.336 N
ATOM      3  H4  UNL     1       1.465  35.340  24.043  1.00  0.00     0.168 HD
HETATM    4  C10 UNL     1       0.654  35.981  22.223  1.00  0.00     0.123 A
HETATM    5  C11 UNL     1       1.529  36.801  21.552  1.00  0.00     0.135 A
HETATM    6  N6  UNL     1       1.207  37.314  20.377  1.00  0.00    -0.337 N
ATOM      7  H6  UNL     1       1.865  37.922  19.889  1.00  0.00     0.168 HD
HETATM    8  C19 UNL     1       0.007  37.036  19.823  1.00  0.00     0.183 A
HETATM    9  N7  UNL     1      -0.888  36.243  20.432  1.00  0.00    -0.337 N
ATOM     10  H7  UNL     1      -1.790  36.041  20.002  1.00  0.00     0.168 HD
HETATM   11  C20 UNL     1      -0.558  35.722  21.626  1.00  0.00     0.139 A
HETATM   12  N8  UNL     1      -1.213  34.901  22.490  1.00  0.00    -0.326 N
ATOM     13  H8  UNL     1      -2.149  34.526  22.334  1.00  0.00     0.169 HD
ENDROOT
BRANCH   1  14
HETATM   14  C8  UNL     1      -0.851  33.811  24.705  1.00  0.00     0.067 A
HETATM   15  C5  UNL     1       0.108  33.172  25.468  1.00  0.00     0.118 A
HETATM   16  N1  UNL     1       1.326  33.338  25.154  1.00  0.00    -0.373 N
HETATM   17  N2  UNL     1      -0.226  32.387  26.521  1.00  0.00    -0.318 N
ATOM     18  H1  UNL     1       1.511  33.940  24.351  1.00  0.00     0.161 HD
HETATM   19  C6  UNL     1      -1.518  32.221  26.838  1.00  0.00     0.180 A
ATOM     20  H2  UNL     1       0.500  31.924  27.069  1.00  0.00     0.170 HD
HETATM   21 CL1  UNL     1      -2.023  31.220  28.188  1.00  0.00    -0.045 Cl
HETATM   22  N3  UNL     1      -2.453  32.843  26.097  1.00  0.00    -0.342 N
HETATM   23  C7  UNL     1      -2.172  33.623  25.053  1.00  0.00     0.109 A
ATOM     24  H3  UNL     1      -3.432  32.709  26.347  1.00  0.00     0.167 HD
BRANCH  16  25
HETATM   25  C4  UNL     1       2.466  32.774  25.805  1.00  0.00     0.153 C
BRANCH  25  26
HETATM   26  C3  UNL     1       3.766  33.093  25.117  1.00  0.00     0.135 C
BRANCH  26  27
HETATM   27  C2  UNL     1       4.482  34.145  25.972  1.00  0.00     0.029 C
HETATM   28  C1  UNL     1       4.282  35.530  25.399  1.00  0.00     0.007 C
ENDBRANCH  26  27
BRANCH  26  29
HETATM   29  O1  UNL     1       3.574  33.687  23.870  1.00  0.00    -0.394 OA
ATOM     30  H1  UNL     1       3.273  34.569  24.049  1.00  0.00     0.210 HD
ENDBRANCH  26  29
ENDBRANCH  25  26
ENDBRANCH  16  25
ENDBRANCH   1  14
BRANCH   5  31
HETATM   31  N5  UNL     1       2.782  37.084  22.147  1.00  0.00    -0.365 N
HETATM   32  C12 UNL     1       2.630  38.154  23.103  1.00  0.00     0.124 C
HETATM   33  C13 UNL     1       3.500  39.358  22.829  1.00  0.00     0.020 C
HETATM   34  C14 UNL     1       4.945  39.051  22.849  1.00  0.00     0.002 C
HETATM   35  C15 UNL     1       5.582  38.759  21.542  1.00  0.00     0.000 C
HETATM   36  C16 UNL     1       4.661  38.316  20.455  1.00  0.00     0.002 C
HETATM   37  C17 UNL     1       4.443  36.818  20.440  1.00  0.00     0.020 C
HETATM   38  C18 UNL     1       3.860  36.272  21.694  1.00  0.00     0.124 C
ENDBRANCH   5  31
TORSDOF 6
ENDMDL