MODEL 3
REMARK VINA RESULT: -7.331518514      2.924      5.000
REMARK  7 active torsions:
REMARK  status: ('A' for Active; 'I' for Inactive)
REMARK    1  A    between atoms: O1_2  and  C2_3
REMARK    2  A    between atoms: C5_8  and  C6_9
REMARK    3  A    between atoms: C7_12  and  N3_13
REMARK    4  A    between atoms: N3_13  and  C8_15
REMARK    5  A    between atoms: C13_24  and  N5_25
REMARK    6  A    between atoms: N5_25  and  C14_27
REMARK    7  A    between atoms: C17_30  and  N6_31
ROOT
HETATM    1  C6  UNL     1       1.440  35.229  23.896  1.00  0.00     0.090 A
HETATM    2  N2  UNL     1       1.711  36.214  23.000  1.00  0.00    -0.189 N
ATOM      3  H2  UNL     1       0.977  36.483  22.344  1.00  0.00     0.184 HD
HETATM    4  C7  UNL     1       2.886  36.853  22.930  1.00  0.00     0.680 A
HETATM    5  N4  UNL     1       3.857  36.507  23.786  1.00  0.00    -0.179 N
ATOM      6  H4  UNL     1       4.755  36.990  23.736  1.00  0.00     0.185 HD
HETATM    7  C12 UNL     1       3.689  35.552  24.702  1.00  0.00     0.147 A
HETATM    8 CL1  UNL     1       5.010  35.171  25.773  1.00  0.00    -0.061 Cl
HETATM    9  C13 UNL     1       2.449  34.896  24.759  1.00  0.00     0.096 A
ENDROOT
BRANCH   9  10
HETATM   10  N5  UNL     1       2.314  33.870  25.721  1.00  0.00    -0.381 N
ATOM     11  H5  UNL     1       1.839  34.107  26.592  1.00  0.00     0.160 HD
BRANCH  10  12
HETATM   12  C14 UNL     1       2.787  32.521  25.581  1.00  0.00     0.082 C
HETATM   13  C15 UNL     1       1.765  31.641  24.868  1.00  0.00     0.027 C
HETATM   14  C16 UNL     1       2.168  30.213  25.073  1.00  0.00     0.035 C
HETATM   15  C17 UNL     1       3.556  29.958  24.527  1.00  0.00     0.183 C
HETATM   16  C18 UNL     1       4.568  30.928  25.040  1.00  0.00     0.035 C
HETATM   17  C19 UNL     1       4.092  32.371  24.852  1.00  0.00     0.027 C
BRANCH  15  18
HETATM   18  N6  UNL     1       3.550  29.921  23.078  1.00  0.00    -0.075 N
ATOM     19  H63 UNL     1       2.978  29.153  22.724  1.00  0.00     0.274 HD
ATOM     20  H62 UNL     1       3.024  30.701  22.685  1.00  0.00     0.274 HD
ATOM     21  H61 UNL     1       4.499  29.883  22.706  1.00  0.00     0.274 HD
ENDBRANCH  15  18
ENDBRANCH  10  12
ENDBRANCH   9  10
BRANCH   1  22
HETATM   22  C5  UNL     1       0.119  34.619  23.863  1.00  0.00     0.012 A
HETATM   23  C4  UNL     1      -0.558  34.465  22.676  1.00  0.00     0.101 A
HETATM   24  N1  UNL     1      -1.777  33.901  22.707  1.00  0.00    -0.372 N
HETATM   25  C3  UNL     1      -2.347  33.486  23.848  1.00  0.00     0.124 A
ATOM     26  H1  UNL     1      -2.288  33.783  21.832  1.00  0.00     0.164 HD
HETATM   27  C2  UNL     1      -1.719  33.612  25.073  1.00  0.00     0.084 A
HETATM   28  C20 UNL     1      -0.473  34.186  25.059  1.00  0.00     0.053 A
BRANCH  27  29
HETATM   29  O1  UNL     1      -2.359  33.164  26.221  1.00  0.00    -0.355 OA
HETATM   30  C1  UNL     1      -1.787  32.293  27.148  1.00  0.00     0.210 C
ENDBRANCH  27  29
ENDBRANCH   1  22
BRANCH   4  31
HETATM   31  N3  UNL     1       3.020  37.766  22.038  1.00  0.00    -0.219 N
ATOM     32  H3  UNL     1       2.510  38.639  22.169  1.00  0.00     0.178 HD
BRANCH  31  33
HETATM   33  C8  UNL     1       3.843  37.638  20.865  1.00  0.00     0.125 C
HETATM   34  C9  UNL     1       3.269  36.622  19.888  1.00  0.00     0.054 C
HETATM   35  C10 UNL     1       2.130  37.414  19.291  1.00  0.00     0.169 C
HETATM   36  O2  UNL     1       2.413  38.742  19.417  1.00  0.00    -0.389 OA
HETATM   37  C11 UNL     1       3.625  38.906  20.033  1.00  0.00     0.193 C
ENDBRANCH  31  33
ENDBRANCH   4  31
TORSDOF 7
ENDMDL