MODEL 4
REMARK VINA RESULT: -8.935025995      2.585      3.399
REMARK  6 active torsions:
REMARK  status: ('A' for Active; 'I' for Inactive)
REMARK    1  A    between atoms: N1_1  and  C1_5
REMARK    2  A    between atoms: C4_8  and  C5_9
REMARK    3  A    between atoms: C5_9  and  N2_10
REMARK    4  A    between atoms: C8_13  and  C9_14
REMARK    5  A    between atoms: N3_16  and  C11_17
REMARK    6  A    between atoms: C16_27  and  C17_28
ROOT
HETATM    1  C9  UNL     1       1.203  32.846  24.767  1.00  0.00     0.038 A
HETATM    2  C10 UNL     1       2.401  32.311  24.345  1.00  0.00     0.126 A
HETATM    3  N3  UNL     1       2.549  31.070  24.842  1.00  0.00    -0.297 N
HETATM    4  N5  UNL     1       1.490  30.806  25.559  1.00  0.00    -0.297 N
ATOM      5  H5  UNL     1       1.328  29.931  26.058  1.00  0.00     0.187 HD
HETATM    6  C16 UNL     1       0.628  31.868  25.546  1.00  0.00     0.075 A
ENDROOT
BRANCH   1   7
HETATM    7  C8  UNL     1       0.682  34.173  24.440  1.00  0.00     0.063 A
HETATM    8  C7  UNL     1      -0.634  34.574  24.451  1.00  0.00     0.050 A
HETATM    9  C6  UNL     1      -0.667  35.896  24.078  1.00  0.00     0.112 A
HETATM   10  N2  UNL     1       0.592  36.281  23.849  1.00  0.00    -0.303 N
HETATM   11  N8  UNL     1       1.392  35.255  24.065  1.00  0.00    -0.298 N
ATOM     12  H8  UNL     1       2.407  35.277  23.963  1.00  0.00     0.187 HD
BRANCH  10  13
HETATM   13  C5  UNL     1       1.040  37.569  23.446  1.00  0.00     0.152 C
BRANCH  13  14
HETATM   14  C4  UNL     1       1.803  37.620  22.154  1.00  0.00     0.006 C
HETATM   15  C3  UNL     1       3.275  37.426  22.273  1.00  0.00     0.008 C
HETATM   16  C2  UNL     1       3.760  36.129  21.692  1.00  0.00     0.036 C
HETATM   17  C1  UNL     1       3.775  36.017  20.233  1.00  0.00     0.217 C
HETATM   18  C22 UNL     1       3.062  37.046  19.440  1.00  0.00     0.200 C
HETATM   19  C21 UNL     1       1.622  37.240  19.767  1.00  0.00     0.040 C
HETATM   20  F1  UNL     1       3.753  38.266  19.383  1.00  0.00    -0.247 F
HETATM   21  C20 UNL     1       1.200  36.716  21.099  1.00  0.00     0.009 C
BRANCH  17  22
HETATM   22  N1  UNL     1       5.158  35.974  19.734  1.00  0.00    -0.072 N
ATOM     23  H13 UNL     1       5.767  35.434  20.351  1.00  0.00     0.274 HD
ATOM     24  H12 UNL     1       5.242  35.398  18.897  1.00  0.00     0.274 HD
ATOM     25  H11 UNL     1       5.513  36.918  19.582  1.00  0.00     0.274 HD
ENDBRANCH  17  22
ENDBRANCH  13  14
ENDBRANCH  10  13
ENDBRANCH   1   7
BRANCH   6  26
HETATM   26  C17 UNL     1      -0.652  31.974  26.215  1.00  0.00     0.027 A
HETATM   27  C18 UNL     1      -0.809  32.220  27.558  1.00  0.00     0.122 A
HETATM   28  N6  UNL     1      -2.123  32.246  27.805  1.00  0.00    -0.311 N
HETATM   29  N7  UNL     1      -2.804  32.030  26.698  1.00  0.00    -0.311 N
ATOM     30  H6  UNL     1      -2.539  32.411  28.722  1.00  0.00     0.186 HD
HETATM   31  C19 UNL     1      -1.928  31.854  25.673  1.00  0.00     0.122 A
ATOM     32  H7  UNL     1      -3.821  32.000  26.622  1.00  0.00     0.186 HD
ENDBRANCH   6  26
BRANCH   3  33
HETATM   33  C11 UNL     1       3.666  30.179  24.633  1.00  0.00     0.110 C
HETATM   34  C12 UNL     1       4.987  30.867  24.989  1.00  0.00     0.055 C
HETATM   35  C13 UNL     1       6.094  29.928  24.570  1.00  0.00     0.234 C
HETATM   36  N4  UNL     1       6.225  29.884  23.148  1.00  0.00    -0.075 N
HETATM   37  C14 UNL     1       5.007  30.321  22.510  1.00  0.00     0.234 C
ATOM     38  H42 UNL     1       7.033  30.418  22.827  1.00  0.00     0.277 HD
ATOM     39  H41 UNL     1       6.513  28.961  22.823  1.00  0.00     0.277 HD
HETATM   40  C15 UNL     1       3.773  29.734  23.205  1.00  0.00     0.055 C
ENDBRANCH   3  33
TORSDOF 6
ENDMDL