MODEL 4
REMARK VINA RESULT: -8.609291276      2.586      3.859
REMARK  7 active torsions:
REMARK  status: ('A' for Active; 'I' for Inactive)
REMARK       I    between atoms: C1_2  and  N1_3
REMARK    1  A    between atoms: C1_2  and  O3_23
REMARK    2  A    between atoms: N1_3  and  C2_5
REMARK    3  A    between atoms: C2_5  and  C3_6
REMARK    4  A    between atoms: C3_6  and  C4_7
REMARK    5  A    between atoms: C6_9  and  C7_10
REMARK    6  A    between atoms: O3_23  and  C14_24
REMARK    7  A    between atoms: C22_33  and  O5_34
ROOT
HETATM    1  C2  UNL     1      -0.600  33.260  25.022  1.00  0.00     0.066 C
HETATM    2  C11 UNL     1      -2.075  33.541  25.230  1.00  0.00     0.060 C
HETATM    3  C12 UNL     1      -2.612  33.832  23.854  1.00  0.00     0.235 C
HETATM    4  N3  UNL     1      -1.514  33.820  22.921  1.00  0.00    -0.073 N
ATOM      5  H31 UNL     1      -1.244  34.755  22.614  1.00  0.00     0.277 HD
ATOM      6  H32 UNL     1      -1.775  33.448  22.008  1.00  0.00     0.277 HD
HETATM    7  C13 UNL     1      -0.436  33.104  23.523  1.00  0.00     0.263 C
ENDROOT
BRANCH   1   8
HETATM    8  N1  UNL     1       0.225  34.339  25.459  1.00  0.00    -0.326 N
HETATM    9  C1  UNL     1       0.941  35.251  24.660  1.00  0.00     0.361 C
HETATM   10  O1  UNL     1       0.907  35.175  23.413  1.00  0.00    -0.238 OA
ATOM     11  H1  UNL     1       0.305  34.465  26.468  1.00  0.00     0.165 HD
BRANCH   9  12
HETATM   12  O3  UNL     1       1.716  36.274  25.188  1.00  0.00    -0.294 OA
BRANCH  12  13
HETATM   13  C14 UNL     1       3.106  36.400  24.954  1.00  0.00     0.186 C
HETATM   14  C15 UNL     1       3.810  35.079  24.959  1.00  0.00     0.203 C
HETATM   15  O4  UNL     1       4.409  34.709  26.102  1.00  0.00    -0.383 OA
HETATM   16  C16 UNL     1       4.962  35.670  26.900  1.00  0.00     0.128 C
HETATM   17  C17 UNL     1       6.278  35.199  27.428  1.00  0.00     0.032 C
HETATM   18  C21 UNL     1       5.044  37.036  26.281  1.00  0.00     0.046 C
HETATM   19  C18 UNL     1       7.465  35.640  26.662  1.00  0.00     0.002 C
HETATM   20  C19 UNL     1       7.194  36.183  25.305  1.00  0.00     0.001 C
HETATM   21  C20 UNL     1       6.090  37.181  25.234  1.00  0.00     0.010 C
HETATM   22  C22 UNL     1       3.664  37.435  25.857  1.00  0.00     0.156 C
BRANCH  22  23
HETATM   23  O5  UNL     1       3.692  38.692  25.240  1.00  0.00    -0.392 OA
ATOM     24  H5  UNL     1       2.880  39.166  25.382  1.00  0.00     0.210 HD
ENDBRANCH  22  23
ENDBRANCH  12  13
ENDBRANCH   9  12
ENDBRANCH   1   8
BRANCH   1  25
HETATM   25  C3  UNL     1      -0.158  31.987  25.660  1.00  0.00     0.100 C
BRANCH  25  26
HETATM   26  C4  UNL     1       1.273  31.657  25.456  1.00  0.00     0.080 A
HETATM   27  C5  UNL     1       1.797  30.667  24.637  1.00  0.00     0.062 A
HETATM   28  C6  UNL     1       3.176  30.701  24.741  1.00  0.00     0.039 A
HETATM   29  N2  UNL     1       3.421  31.698  25.608  1.00  0.00    -0.265 N
HETATM   30  O2  UNL     1       2.303  32.230  26.002  1.00  0.00    -0.242 OA
ATOM     31  H2  UNL     1       4.349  31.994  25.911  1.00  0.00     0.194 HD
BRANCH  28  32
HETATM   32  C7  UNL     1       4.133  29.837  24.054  1.00  0.00     0.037 C
HETATM   33  C8  UNL     1       4.554  30.317  22.665  1.00  0.00     0.011 C
HETATM   34  C9  UNL     1       5.957  29.799  23.005  1.00  0.00     0.001 C
HETATM   35  C10 UNL     1       5.594  30.046  24.474  1.00  0.00     0.011 C
ENDBRANCH  28  32
ENDBRANCH  25  26
ENDBRANCH   1  25
TORSDOF 7
ENDMDL