MODEL 5
REMARK VINA RESULT: -7.097232840      2.746      4.814
REMARK  8 active torsions:
REMARK  status: ('A' for Active; 'I' for Inactive)
REMARK    1  A    between atoms: C2_2  and  O1_3
REMARK    2  A    between atoms: C2_2  and  C3_5
REMARK    3  A    between atoms: C3_5  and  C4_6
REMARK    4  A    between atoms: C4_6  and  C5_7
REMARK    5  A    between atoms: C5_7  and  O2_8
REMARK    6  A    between atoms: C11_15  and  N1_16
REMARK    7  A    between atoms: C14_21  and  N3_22
REMARK    8  A    between atoms: N3_22  and  C15_23
ROOT
HETATM    1  N1  UNL     1       2.795  34.169  24.601  1.00  0.00    -0.319 N
HETATM    2  C12 UNL     1       3.727  34.910  25.175  1.00  0.00     0.185 A
HETATM    3  N2  UNL     1       3.586  36.221  24.823  1.00  0.00    -0.345 N
ATOM      4  H2  UNL     1       4.176  36.994  25.131  1.00  0.00     0.167 HD
HETATM    5  C13 UNL     1       2.548  36.306  24.013  1.00  0.00     0.136 A
HETATM    6  C14 UNL     1       2.002  37.441  23.381  1.00  0.00     0.206 A
HETATM    7  N4  UNL     1       0.907  37.200  22.586  1.00  0.00    -0.306 N
ATOM      8  H4  UNL     1       0.458  37.973  22.096  1.00  0.00     0.171 HD
HETATM    9  C18 UNL     1       0.429  35.963  22.451  1.00  0.00     0.182 A
HETATM   10 CL1  UNL     1      -0.991  35.744  21.406  1.00  0.00    -0.045 Cl
HETATM   11  N5  UNL     1       0.978  34.905  23.071  1.00  0.00    -0.316 N
ATOM     12  H5  UNL     1       0.577  33.977  22.937  1.00  0.00     0.170 HD
HETATM   13  C19 UNL     1       2.051  35.058  23.864  1.00  0.00     0.143 A
ENDROOT
BRANCH   1  14
HETATM   14  C11 UNL     1       2.515  32.799  24.639  1.00  0.00     0.131 C
HETATM   15  C5  UNL     1       1.311  32.223  25.298  1.00  0.00     0.083 C
HETATM   16  C6  UNL     1       2.160  30.985  25.535  1.00  0.00     0.028 C
HETATM   17  C7  UNL     1       2.344  30.228  24.247  1.00  0.00     0.008 C
HETATM   18  C10 UNL     1       3.343  31.925  25.594  1.00  0.00     0.019 C
HETATM   19  C8  UNL     1       3.772  30.439  23.814  1.00  0.00     0.001 C
HETATM   20  C9  UNL     1       4.464  31.260  24.871  1.00  0.00     0.007 C
BRANCH  15  21
HETATM   21  C4  UNL     1       0.701  32.836  26.482  1.00  0.00     0.043 C
BRANCH  21  22
HETATM   22  C3  UNL     1      -0.016  31.863  27.393  1.00  0.00     0.034 C
BRANCH  22  23
HETATM   23  C2  UNL     1      -1.481  32.218  27.530  1.00  0.00     0.114 C
HETATM   24  C1  UNL     1      -2.223  31.099  28.226  1.00  0.00     0.039 C
BRANCH  23  25
HETATM   25  O1  UNL     1      -1.981  32.377  26.222  1.00  0.00    -0.396 OA
ATOM     26  H1  UNL     1      -2.016  33.300  26.003  1.00  0.00     0.210 HD
ENDBRANCH  23  25
ENDBRANCH  22  23
ENDBRANCH  21  22
ENDBRANCH  15  21
BRANCH  15  27
HETATM   27  O2  UNL     1       0.307  31.865  24.354  1.00  0.00    -0.387 OA
ATOM     28  H2  UNL     1      -0.119  31.057  24.616  1.00  0.00     0.210 HD
ENDBRANCH  15  27
ENDBRANCH   1  14
BRANCH   6  29
HETATM   29  N3  UNL     1       2.418  38.549  23.490  1.00  0.00    -0.421 NA
BRANCH  29  30
HETATM   30  C15 UNL     1       2.914  39.769  23.625  1.00  0.00     0.184 C
HETATM   31  C16 UNL     1       2.215  40.627  24.708  1.00  0.00     0.114 C
HETATM   32  S1  UNL     1       3.219  39.799  25.987  1.00  0.00    -0.163 SA
HETATM   33  C17 UNL     1       4.184  39.974  24.464  1.00  0.00     0.114 C
ENDBRANCH  29  30
ENDBRANCH   6  29
TORSDOF 8
ENDMDL