MODEL 2
REMARK VINA RESULT: -8.219874852      1.091      1.556
REMARK  8 active torsions:
REMARK  status: ('A' for Active; 'I' for Inactive)
REMARK    1  A    between atoms: C2_2  and  C4_4
REMARK    2  A    between atoms: C4_4  and  N1_5
REMARK    3  A    between atoms: N1_5  and  C5_7
REMARK    4  A    between atoms: C6_10  and  C7_11
REMARK    5  A    between atoms: N4_23  and  C16_24
REMARK    6  A    between atoms: C17_26  and  C18_27
REMARK    7  A    between atoms: C18_27  and  O3_29
REMARK    8  A    between atoms: C20_31  and  O4_32
ROOT
HETATM    1  C5  UNL     1       1.074  33.548  24.761  1.00  0.00     0.120 A
HETATM    2  N2  UNL     1       1.966  32.569  24.527  1.00  0.00    -0.329 N
ATOM      3  H2  UNL     1       1.665  31.595  24.564  1.00  0.00     0.168 HD
HETATM    4  C6  UNL     1       3.251  32.858  24.245  1.00  0.00     0.114 A
HETATM    5  N3  UNL     1       3.649  34.151  24.197  1.00  0.00    -0.329 N
ATOM      6  H3  UNL     1       4.623  34.364  23.984  1.00  0.00     0.168 HD
HETATM    7  C12 UNL     1       2.800  35.153  24.423  1.00  0.00     0.125 A
HETATM    8  C13 UNL     1       1.481  34.874  24.712  1.00  0.00     0.054 A
HETATM    9  C14 UNL     1       0.837  36.078  24.898  1.00  0.00     0.036 A
HETATM   10  C15 UNL     1       1.787  37.038  24.714  1.00  0.00     0.096 A
HETATM   11  N4  UNL     1       2.997  36.475  24.421  1.00  0.00    -0.312 N
ENDROOT
BRANCH  11  12
HETATM   12  C16 UNL     1       4.169  37.225  24.181  1.00  0.00     0.266 C
HETATM   13  O2  UNL     1       5.328  36.682  24.755  1.00  0.00    -0.353 OA
HETATM   14  C17 UNL     1       6.280  37.623  24.366  1.00  0.00     0.184 C
HETATM   15  C20 UNL     1       5.988  38.000  22.941  1.00  0.00     0.188 C
HETATM   16  C21 UNL     1       4.579  37.408  22.764  1.00  0.00     0.250 C
HETATM   17  F1  UNL     1       3.794  38.361  22.147  1.00  0.00    -0.242 F
BRANCH  14  18
HETATM   18  C18 UNL     1       7.688  37.107  24.548  1.00  0.00     0.145 C
HETATM   19  C19 UNL     1       8.403  37.997  25.542  1.00  0.00     0.042 C
BRANCH  18  20
HETATM   20  O3  UNL     1       7.656  35.806  25.037  1.00  0.00    -0.393 OA
ATOM     21  H3  UNL     1       8.314  35.280  24.599  1.00  0.00     0.210 HD
ENDBRANCH  18  20
ENDBRANCH  14  18
BRANCH  15  22
HETATM   22  O4  UNL     1       6.886  37.424  22.045  1.00  0.00    -0.390 OA
ATOM     23  H4  UNL     1       6.770  37.746  21.159  1.00  0.00     0.210 HD
ENDBRANCH  15  22
ENDBRANCH  11  12
BRANCH   4  24
HETATM   24  C7  UNL     1       4.168  31.732  24.000  1.00  0.00     0.189 C
HETATM   25  C8  UNL     1       4.005  30.662  25.062  1.00  0.00     0.040 C
HETATM   26  C9  UNL     1       4.681  29.362  24.609  1.00  0.00     0.005 C
HETATM   27  C10 UNL     1       5.775  29.741  23.628  1.00  0.00     0.026 C
HETATM   28  C11 UNL     1       5.173  30.456  22.455  1.00  0.00     0.168 C
HETATM   29  O1  UNL     1       4.007  31.153  22.758  1.00  0.00    -0.378 OA
ENDBRANCH   4  24
BRANCH   1  30
HETATM   30  N1  UNL     1      -0.163  33.337  25.034  1.00  0.00    -0.351 N
ATOM     31  H1  UNL     1      -0.508  33.452  25.988  1.00  0.00     0.166 HD
BRANCH  30  32
HETATM   32  C4  UNL     1      -1.045  32.943  23.991  1.00  0.00     0.091 C
BRANCH  32  33
HETATM   33  C2  UNL     1      -1.777  33.834  23.363  1.00  0.00    -0.072 C
HETATM   34  C1  UNL     1      -2.968  34.433  24.054  1.00  0.00     0.044 C
HETATM   35  C3  UNL     1      -1.451  34.264  21.980  1.00  0.00     0.044 C
ENDBRANCH  32  33
ENDBRANCH  30  32
ENDBRANCH   1  30
TORSDOF 8
ENDMDL