MODEL 2
REMARK VINA RESULT: -7.358483565      3.222      4.044
REMARK  8 active torsions:
REMARK  status: ('A' for Active; 'I' for Inactive)
REMARK    1  A    between atoms: C2_2  and  C3_3
REMARK    2  A    between atoms: C5_5  and  C7_7
REMARK    3  A    between atoms: C9_11  and  N1_12
REMARK    4  A    between atoms: N1_12  and  C10_14
REMARK    5  A    between atoms: C10_14  and  O3_16
REMARK    6  A    between atoms: O3_16  and  C11_17
REMARK    7  A    between atoms: C13_20  and  N2_21
REMARK    8  A    between atoms: C14_26  and  S2_27
ROOT
HETATM    1  C10 UNL     1       4.142  35.386  24.968  1.00  0.00     0.218 C
HETATM    2  S1  UNL     1       5.084  35.107  26.266  1.00  0.00    -0.033 SA
ENDROOT
BRANCH   1   3
HETATM    3  N1  UNL     1       3.623  34.324  24.223  1.00  0.00    -0.335 N
ATOM      4  H1  UNL     1       3.602  34.407  23.207  1.00  0.00     0.165 HD
BRANCH   3   5
HETATM    5  C9  UNL     1       3.118  33.122  24.821  1.00  0.00     0.224 C
HETATM    6  C8  UNL     1       1.628  33.075  24.680  1.00  0.00     0.074 C
HETATM    7  C5  UNL     1       1.043  31.861  25.373  1.00  0.00     0.051 C
HETATM    8  C4  UNL     1       1.875  30.641  25.141  1.00  0.00     0.052 C
HETATM    9  C6  UNL     1      -0.319  31.604  24.719  1.00  0.00     0.027 C
HETATM   10  C3  UNL     1       3.354  30.914  25.053  1.00  0.00     0.125 C
HETATM   11  O4  UNL     1       3.660  31.974  24.238  1.00  0.00    -0.361 OA
BRANCH   7  12
HETATM   12  C7  UNL     1       0.839  32.168  26.793  1.00  0.00     0.181 C
HETATM   13  O1  UNL     1       1.729  32.765  27.442  1.00  0.00    -0.647 OA
HETATM   14  O2  UNL     1      -0.344  31.791  27.404  1.00  0.00    -0.647 OA
ENDBRANCH   7  12
BRANCH  10  15
HETATM   15  C2  UNL     1       4.030  29.627  24.619  1.00  0.00     0.027 C
HETATM   16  C1  UNL     1       5.504  29.915  24.450  1.00  0.00     0.007 C
ENDBRANCH  10  15
ENDBRANCH   3   5
ENDBRANCH   1   3
BRANCH   1  17
HETATM   17  O3  UNL     1       3.905  36.724  24.669  1.00  0.00    -0.265 OA
BRANCH  17  18
HETATM   18  C11 UNL     1       2.925  37.483  25.239  1.00  0.00     0.180 A
HETATM   19  C12 UNL     1       1.638  37.391  24.753  1.00  0.00     0.129 A
HETATM   20 CL1  UNL     1       1.271  36.301  23.407  1.00  0.00    -0.076 Cl
HETATM   21  C13 UNL     1       0.590  38.116  25.263  1.00  0.00     0.127 A
HETATM   22  N3  UNL     1       0.858  38.948  26.286  1.00  0.00    -0.322 N
HETATM   23  C14 UNL     1       2.118  39.043  26.769  1.00  0.00     0.149 A
ATOM     24  H3  UNL     1       0.112  39.507  26.697  1.00  0.00     0.169 HD
HETATM   25  N4  UNL     1       3.142  38.329  26.262  1.00  0.00    -0.311 N
HETATM   26  C16 UNL     1       4.495  38.470  26.825  1.00  0.00     0.160 C
BRANCH  21  27
HETATM   27  N2  UNL     1      -0.624  38.037  24.814  1.00  0.00    -0.384 N
ATOM     28  H22 UNL     1      -0.791  37.599  23.908  1.00  0.00     0.157 HD
ATOM     29  H21 UNL     1      -1.437  38.393  25.317  1.00  0.00     0.157 HD
ENDBRANCH  21  27
BRANCH  23  30
HETATM   30  S2  UNL     1       2.492  40.156  28.142  1.00  0.00    -0.098 SA
HETATM   31  C15 UNL     1       2.711  41.850  27.539  1.00  0.00     0.099 C
ENDBRANCH  23  30
ENDBRANCH  17  18
ENDBRANCH   1  17
TORSDOF 8
ENDMDL