MODEL 4
REMARK VINA RESULT: -6.944632084      0.940      1.109
REMARK  8 active torsions:
REMARK  status: ('A' for Active; 'I' for Inactive)
REMARK    1  A    between atoms: C2_2  and  C3_3
REMARK    2  A    between atoms: C2_2  and  C4_6
REMARK    3  A    between atoms: N1_14  and  O3_16
REMARK    4  A    between atoms: O3_16  and  C11_17
REMARK    5  A    between atoms: C14_20  and  C15_21
REMARK    6  A    between atoms: C15_21  and  O4_22
REMARK    7  A    between atoms: C17_27  and  O7_29
REMARK    8  A    between atoms: C19_31  and  C20_32
ROOT
HETATM    1  C4  UNL     1       3.125  37.685  22.314  1.00  0.00     0.032 C
HETATM    2  C5  UNL     1       2.017  36.748  21.916  1.00  0.00     0.057 C
HETATM    3  C6  UNL     1       1.149  36.951  23.172  1.00  0.00     0.141 C
HETATM    4  F1  UNL     1       0.985  38.324  23.262  1.00  0.00    -0.239 F
HETATM    5  C7  UNL     1       2.141  36.574  24.215  1.00  0.00     0.034 C
HETATM    6  C8  UNL     1       2.504  35.159  24.310  1.00  0.00     0.014 C
HETATM    7  C9  UNL     1       1.620  34.377  25.295  1.00  0.00     0.058 C
HETATM    8  C10 UNL     1       0.598  33.585  24.583  1.00  0.00     0.052 C
HETATM    9  N1  UNL     1       0.769  32.318  24.578  1.00  0.00    -0.271 N
ATOM     10  H1  UNL     1       0.068  31.762  24.088  1.00  0.00     0.193 HD
HETATM   11  C14 UNL     1      -0.599  33.964  23.866  1.00  0.00     0.189 C
HETATM   12  O5  UNL     1      -0.946  33.228  22.733  1.00  0.00    -0.218 OA
HETATM   13  O6  UNL     1      -1.456  34.397  22.297  1.00  0.00    -0.227 OA
HETATM   14  C16 UNL     1      -0.280  34.927  22.812  1.00  0.00     0.243 C
HETATM   15  C17 UNL     1      -0.173  36.348  23.121  1.00  0.00     0.123 C
HETATM   16  C18 UNL     1      -0.936  37.090  21.998  1.00  0.00     0.052 C
HETATM   17  C19 UNL     1       3.306  37.497  23.770  1.00  0.00     0.001 C
ENDROOT
BRANCH   9  18
HETATM   18  O3  UNL     1       1.785  31.642  25.156  1.00  0.00    -0.276 OA
BRANCH  18  19
HETATM   19  C11 UNL     1       3.002  31.518  24.441  1.00  0.00     0.144 C
HETATM   20  C12 UNL     1       4.201  31.921  25.235  1.00  0.00     0.042 C
HETATM   21  C13 UNL     1       3.221  30.082  23.963  1.00  0.00     0.042 C
ENDBRANCH  18  19
ENDBRANCH   9  18
BRANCH  11  22
HETATM   22  C15 UNL     1      -1.796  34.099  24.733  1.00  0.00     0.214 C
BRANCH  22  23
HETATM   23  O4  UNL     1      -2.494  32.934  24.976  1.00  0.00    -0.397 OA
ATOM     24  H4  UNL     1      -2.809  32.820  25.865  1.00  0.00     0.209 HD
ENDBRANCH  22  23
ENDBRANCH  11  22
BRANCH  15  25
HETATM   25  O7  UNL     1      -0.866  36.747  24.285  1.00  0.00    -0.384 OA
ATOM     26  H7  UNL     1      -0.711  36.086  24.949  1.00  0.00     0.210 HD
ENDBRANCH  15  25
BRANCH  17  27
HETATM   27  C20 UNL     1       4.616  37.055  24.277  1.00  0.00     0.001 C
HETATM   28  C21 UNL     1       4.927  37.659  25.663  1.00  0.00     0.005 C
ENDBRANCH  17  27
BRANCH   1  29
HETATM   29  C2  UNL     1       4.268  37.745  21.429  1.00  0.00     0.014 C
HETATM   30  C1  UNL     1       5.343  38.449  21.740  1.00  0.00     0.026 C
BRANCH  29  31
HETATM   31  C3  UNL     1       4.306  36.982  20.179  1.00  0.00     0.204 C
HETATM   32  O1  UNL     1       4.842  35.856  20.105  1.00  0.00    -0.644 OA
HETATM   33  O2  UNL     1       3.737  37.497  19.008  1.00  0.00    -0.644 OA
ENDBRANCH  29  31
ENDBRANCH   1  29
TORSDOF 8
ENDMDL