MODEL 3
REMARK VINA RESULT: -7.558057752      0.959      1.313
REMARK  8 active torsions:
REMARK  status: ('A' for Active; 'I' for Inactive)
REMARK    1  A    between atoms: C3_5  and  N2_6
REMARK    2  A    between atoms: C8_15  and  N4_16
REMARK    3  A    between atoms: N4_16  and  C9_18
REMARK    4  A    between atoms: C9_18  and  C10_19
REMARK    5  A    between atoms: C10_19  and  C11_20
REMARK    6  A    between atoms: C11_20  and  N5_21
REMARK    7  A    between atoms: C16_26  and  C17_27
REMARK    8  A    between atoms: C19_30  and  N6_31
ROOT
HETATM    1  C1  UNL     1       3.680  36.661  26.795  1.00  0.00     0.070 C
HETATM    2  C2  UNL     1       3.257  36.204  25.442  1.00  0.00     0.039 A
HETATM    3  N1  UNL     1       1.995  35.683  25.292  1.00  0.00    -0.195 N
ATOM      4  H1  UNL     1       1.409  35.587  26.121  1.00  0.00     0.184 HD
HETATM    5  C3  UNL     1       1.500  35.298  24.120  1.00  0.00     0.682 A
HETATM    6  N3  UNL     1       2.287  35.431  23.039  1.00  0.00    -0.176 N
ATOM      7  H3  UNL     1       1.925  35.141  22.130  1.00  0.00     0.186 HD
HETATM    8  C8  UNL     1       3.539  35.933  23.110  1.00  0.00     0.131 A
HETATM    9  C16 UNL     1       4.051  36.337  24.363  1.00  0.00     0.058 A
ENDROOT
BRANCH   8  10
HETATM   10  N4  UNL     1       4.299  36.024  22.092  1.00  0.00    -0.375 N
ATOM     11  H4  UNL     1       5.301  36.131  22.245  1.00  0.00     0.161 HD
BRANCH  10  12
HETATM   12  C9  UNL     1       3.821  35.986  20.751  1.00  0.00     0.123 C
BRANCH  12  13
HETATM   13  C10 UNL     1       3.459  37.352  20.191  1.00  0.00     0.050 C
BRANCH  13  14
HETATM   14  C11 UNL     1       2.057  37.345  19.609  1.00  0.00     0.274 C
BRANCH  14  15
HETATM   15  N5  UNL     1       1.976  38.221  18.464  1.00  0.00     0.088 N
HETATM   16  C12 UNL     1       0.616  38.237  18.009  1.00  0.00     0.272 C
HETATM   17  C13 UNL     1       0.106  39.639  18.098  1.00  0.00     0.032 C
HETATM   18  C14 UNL     1       1.398  40.448  18.083  1.00  0.00     0.032 C
HETATM   19  C15 UNL     1       2.318  39.549  18.882  1.00  0.00     0.272 C
ENDBRANCH  14  15
ENDBRANCH  13  14
ENDBRANCH  12  13
ENDBRANCH  10  12
ENDBRANCH   8  10
BRANCH   9  20
HETATM   20  C17 UNL     1       5.476  36.786  24.478  1.00  0.00     0.056 A
HETATM   21  C18 UNL     1       5.822  38.112  24.320  1.00  0.00     0.083 A
HETATM   22  S1  UNL     1       7.487  38.116  24.686  1.00  0.00    -0.064 SA
HETATM   23  C19 UNL     1       7.670  36.461  25.020  1.00  0.00     0.142 A
HETATM   24  N7  UNL     1       6.439  35.976  24.833  1.00  0.00    -0.336 N
ATOM     25  H7  UNL     1       6.253  34.982  24.967  1.00  0.00     0.168 HD
BRANCH  23  26
HETATM   26  N6  UNL     1       8.748  35.785  25.377  1.00  0.00    -0.380 N
ATOM     27  H62 UNL     1       9.699  35.920  25.036  1.00  0.00     0.158 HD
ATOM     28  H61 UNL     1       8.846  35.019  26.043  1.00  0.00     0.158 HD
ENDBRANCH  23  26
ENDBRANCH   9  20
BRANCH   5  29
HETATM   29  N2  UNL     1       0.185  34.756  23.965  1.00  0.00    -0.211 N
HETATM   30  C4  UNL     1      -0.545  35.022  22.763  1.00  0.00     0.167 C
HETATM   31  C5  UNL     1      -1.395  33.858  22.354  1.00  0.00     0.191 C
HETATM   32  O1  UNL     1      -1.885  33.111  23.399  1.00  0.00    -0.353 OA
HETATM   33  C6  UNL     1      -1.860  33.733  24.622  1.00  0.00     0.325 C
HETATM   34  F1  UNL     1      -2.487  32.956  25.550  1.00  0.00    -0.218 F
HETATM   35  C7  UNL     1      -0.412  33.945  25.007  1.00  0.00     0.207 C
ENDBRANCH   5  29
TORSDOF 8
ENDMDL