MODEL 2
REMARK VINA RESULT: -7.751227821      1.590      2.142
REMARK  8 active torsions:
REMARK  status: ('A' for Active; 'I' for Inactive)
REMARK    1  A    between atoms: O1_2  and  C2_3
REMARK    2  A    between atoms: C2_3  and  C3_4
REMARK    3  A    between atoms: C3_4  and  O2_5
REMARK    4  A    between atoms: O2_5  and  C4_6
REMARK    5  A    between atoms: C4_6  and  C5_8
REMARK    6  A    between atoms: C5_8  and  N1_9
REMARK       I    between atoms: N1_9  and  C6_11
REMARK       I    between atoms: C6_11  and  N2_13
REMARK    7  A    between atoms: N2_13  and  C7_15
REMARK    8  A    between atoms: C18_29  and  O7_30
ROOT
HETATM    1  N1  UNL     1       5.290  35.364  23.672  1.00  0.00    -0.324 N
ATOM      2  H1  UNL     1       5.549  34.819  22.849  1.00  0.00     0.165 HD
HETATM    3  C6  UNL     1       4.177  34.908  24.455  1.00  0.00     0.321 C
HETATM    4  O4  UNL     1       3.889  35.590  25.452  1.00  0.00    -0.247 OA
HETATM    5  N2  UNL     1       3.458  33.762  24.117  1.00  0.00    -0.307 N
ATOM      6  H2  UNL     1       3.779  33.277  23.278  1.00  0.00     0.170 HD
ENDROOT
BRANCH   1   7
HETATM    7  C5  UNL     1       6.069  36.546  23.971  1.00  0.00     0.124 C
HETATM    8  C15 UNL     1       7.262  36.566  23.096  1.00  0.00     0.042 C
HETATM    9  C16 UNL     1       8.506  36.842  23.832  1.00  0.00     0.006 C
HETATM   10  C17 UNL     1       8.468  37.831  24.935  1.00  0.00     0.032 C
HETATM   11  C18 UNL     1       7.323  37.663  25.876  1.00  0.00     0.121 C
HETATM   12  C19 UNL     1       6.286  36.703  25.440  1.00  0.00     0.073 C
BRANCH   7  13
HETATM   13  C4  UNL     1       5.191  37.699  23.499  1.00  0.00     0.287 C
HETATM   14  O3  UNL     1       4.515  38.397  24.270  1.00  0.00    -0.262 OA
BRANCH  13  15
HETATM   15  O2  UNL     1       5.169  37.953  22.147  1.00  0.00    -0.317 OA
BRANCH  15  16
HETATM   16  C3  UNL     1       4.053  37.874  21.316  1.00  0.00     0.205 C
BRANCH  16  17
HETATM   17  C2  UNL     1       3.934  36.540  20.633  1.00  0.00     0.193 C
BRANCH  17  18
HETATM   18  O1  UNL     1       3.170  35.686  21.420  1.00  0.00    -0.394 OA
HETATM   19  C1  UNL     1       2.019  36.327  21.879  1.00  0.00     0.201 C
ENDBRANCH  17  18
ENDBRANCH  16  17
ENDBRANCH  15  16
ENDBRANCH  13  15
ENDBRANCH   7  13
BRANCH  11  20
HETATM   20  O7  UNL     1       6.810  38.892  26.288  1.00  0.00    -0.395 OA
ATOM     21  H7  UNL     1       7.477  39.569  26.286  1.00  0.00     0.210 HD
ENDBRANCH  11  20
ENDBRANCH   1   7
BRANCH   5  22
HETATM   22  C7  UNL     1       2.373  33.187  24.751  1.00  0.00     0.060 A
HETATM   23  C8  UNL     1       1.113  33.709  24.779  1.00  0.00     0.071 A
HETATM   24  C9  UNL     1       0.033  33.105  25.430  1.00  0.00     0.104 A
HETATM   25  C10 UNL     1       0.218  31.916  26.090  1.00  0.00     0.103 A
HETATM   26  O6  UNL     1      -1.237  33.651  25.447  1.00  0.00    -0.346 OA
HETATM   27  C11 UNL     1       1.482  31.379  26.070  1.00  0.00     0.065 A
HETATM   28  O5  UNL     1      -0.855  31.327  26.730  1.00  0.00    -0.346 OA
HETATM   29  C12 UNL     1       2.541  31.969  25.433  1.00  0.00     0.063 A
HETATM   30 CL1  UNL     1       4.129  31.188  25.471  1.00  0.00    -0.082 Cl
HETATM   31  C13 UNL     1      -2.088  31.999  26.907  1.00  0.00     0.202 C
HETATM   32  C14 UNL     1      -2.353  32.807  25.664  1.00  0.00     0.202 C
ENDBRANCH   5  22
TORSDOF 8
ENDMDL