MODEL 4
REMARK VINA RESULT: -7.087279928      4.233      7.790
REMARK  9 active torsions:
REMARK  status: ('A' for Active; 'I' for Inactive)
REMARK    1  A    between atoms: O1_2  and  C2_3
REMARK    2  A    between atoms: C5_7  and  N1_8
REMARK    3  A    between atoms: N1_8  and  C6_10
REMARK    4  A    between atoms: C6_10  and  C7_15
REMARK    5  A    between atoms: N2_11  and  O2_13
REMARK    6  A    between atoms: C7_15  and  N5_20
REMARK    7  A    between atoms: N5_20  and  C9_22
REMARK    8  A    between atoms: C9_22  and  C10_23
REMARK    9  A    between atoms: C17_31  and  O3_32
ROOT
HETATM    1  C7  UNL     1      -0.771  34.246  24.308  1.00  0.00     0.157 C
HETATM    2  N3  UNL     1      -1.917  33.766  24.600  1.00  0.00    -0.276 N
ATOM      3  H3  UNL     1      -2.701  33.929  23.969  1.00  0.00     0.179 HD
HETATM    4  C8  UNL     1      -2.121  33.036  25.744  1.00  0.00     0.183 C
HETATM    5  N4  UNL     1      -2.313  32.413  26.698  1.00  0.00    -0.172 NA
ENDROOT
BRANCH   1   6
HETATM    6  C6  UNL     1      -0.663  35.016  23.055  1.00  0.00     0.171 C
HETATM    7  N2  UNL     1      -1.154  34.571  21.954  1.00  0.00    -0.250 N
ATOM      8  H2  UNL     1      -1.053  35.150  21.120  1.00  0.00     0.196 HD
BRANCH   6   9
HETATM    9  N1  UNL     1      -0.015  36.281  23.023  1.00  0.00    -0.337 N
ATOM     10  H1  UNL     1      -0.585  37.112  23.174  1.00  0.00     0.168 HD
BRANCH   9  11
HETATM   11  C5  UNL     1       1.368  36.458  22.795  1.00  0.00     0.058 A
HETATM   12  C4  UNL     1       1.827  36.644  21.514  1.00  0.00     0.063 A
HETATM   13  C3  UNL     1       3.166  36.822  21.234  1.00  0.00     0.065 A
HETATM   14 CL1  UNL     1       0.678  36.659  20.197  1.00  0.00    -0.082 Cl
HETATM   15  C2  UNL     1       4.078  36.811  22.287  1.00  0.00     0.103 A
HETATM   16  C17 UNL     1       3.640  36.625  23.597  1.00  0.00     0.103 A
HETATM   17  C16 UNL     1       2.291  36.451  23.831  1.00  0.00     0.071 A
BRANCH  15  18
HETATM   18  O1  UNL     1       5.431  36.983  22.080  1.00  0.00    -0.353 OA
HETATM   19  C1  UNL     1       6.247  35.925  21.603  1.00  0.00     0.210 C
ENDBRANCH  15  18
BRANCH  16  20
HETATM   20  O3  UNL     1       4.575  36.620  24.618  1.00  0.00    -0.353 OA
HETATM   21  C18 UNL     1       4.339  35.857  25.786  1.00  0.00     0.210 C
ENDBRANCH  16  20
ENDBRANCH   9  11
ENDBRANCH   6   9
BRANCH   7  22
HETATM   22  O2  UNL     1      -1.804  33.375  21.825  1.00  0.00    -0.288 OA
ATOM     23  H2  UNL     1      -2.210  33.068  21.023  1.00  0.00     0.244 HD
ENDBRANCH   7  22
ENDBRANCH   1   6
BRANCH   1  24
HETATM   24  N5  UNL     1       0.343  34.047  25.155  1.00  0.00    -0.372 N
ATOM     25  H5  UNL     1       0.408  34.597  26.012  1.00  0.00     0.161 HD
BRANCH  24  26
HETATM   26  C9  UNL     1       1.401  33.088  24.858  1.00  0.00     0.126 C
BRANCH  26  27
HETATM   27  C10 UNL     1       1.763  32.274  26.068  1.00  0.00     0.007 C
HETATM   28  C11 UNL     1       1.080  30.949  25.996  1.00  0.00     0.036 C
HETATM   29  C12 UNL     1       1.761  29.903  25.194  1.00  0.00     0.272 C
HETATM   30  N6  UNL     1       2.948  30.350  24.514  1.00  0.00     0.084 N
HETATM   31  C13 UNL     1       3.664  29.168  24.067  1.00  0.00     0.309 C
HETATM   32  C14 UNL     1       3.841  31.108  25.340  1.00  0.00     0.272 C
HETATM   33  C15 UNL     1       3.219  32.066  26.283  1.00  0.00     0.036 C
ENDBRANCH  26  27
ENDBRANCH  24  26
ENDBRANCH   1  24
TORSDOF 9
ENDMDL