MODEL 2
REMARK VINA RESULT: -6.677126606      2.787      5.841
REMARK  11 active torsions:
REMARK  status: ('A' for Active; 'I' for Inactive)
REMARK    1  A    between atoms: C2_2  and  C3_3
REMARK    2  A    between atoms: C3_3  and  O1_4
REMARK    3  A    between atoms: O1_4  and  C4_5
REMARK    4  A    between atoms: C5_7  and  C7_9
REMARK    5  A    between atoms: C7_9  and  O3_10
REMARK    6  A    between atoms: O3_10  and  C8_11
REMARK    7  A    between atoms: C8_11  and  C9_13
REMARK    8  A    between atoms: C13_17  and  N1_18
REMARK       I    between atoms: N1_18  and  C14_20
REMARK    9  A    between atoms: C14_20  and  C15_22
REMARK   10  A    between atoms: C18_26  and  O6_27
REMARK   11  A    between atoms: C19_29  and  O7_30
ROOT
HETATM    1  C4  UNL     1       2.690  35.132  25.677  1.00  0.00     0.292 C
HETATM    2  O2  UNL     1       2.890  36.121  26.606  1.00  0.00    -0.344 OA
HETATM    3  C5  UNL     1       3.260  37.345  26.177  1.00  0.00     0.105 C
HETATM    4  C6  UNL     1       2.527  38.335  27.134  1.00  0.00     0.051 C
HETATM    5  C13 UNL     1       2.841  37.759  24.796  1.00  0.00     0.152 C
HETATM    6  C18 UNL     1       2.396  36.682  23.881  1.00  0.00     0.177 C
HETATM    7  C19 UNL     1       1.629  35.652  24.708  1.00  0.00     0.204 C
ENDROOT
BRANCH   3   8
HETATM    8  C7  UNL     1       4.721  37.625  26.430  1.00  0.00     0.218 C
BRANCH   8   9
HETATM    9  O3  UNL     1       5.631  36.673  26.075  1.00  0.00    -0.318 OA
BRANCH   9  10
HETATM   10  C8  UNL     1       6.579  36.571  25.125  1.00  0.00     0.266 C
HETATM   11  O4  UNL     1       6.224  36.331  23.949  1.00  0.00    -0.264 OA
BRANCH  10  12
HETATM   12  C9  UNL     1       8.053  36.729  25.404  1.00  0.00     0.037 C
HETATM   13  C10 UNL     1       8.472  35.654  26.347  1.00  0.00     0.025 C
HETATM   14  C11 UNL     1       8.339  38.090  25.994  1.00  0.00     0.025 C
HETATM   15  C12 UNL     1       8.848  36.642  24.110  1.00  0.00     0.025 C
ENDBRANCH  10  12
ENDBRANCH   9  10
ENDBRANCH   8   9
ENDBRANCH   3   8
BRANCH   5  16
HETATM   16  N1  UNL     1       3.932  38.462  24.136  1.00  0.00    -0.349 N
HETATM   17  C14 UNL     1       3.870  39.844  23.791  1.00  0.00     0.241 C
HETATM   18  O5  UNL     1       2.808  40.442  24.092  1.00  0.00    -0.271 OA
ATOM     19  H1  UNL     1       4.780  37.942  23.909  1.00  0.00     0.163 HD
BRANCH  17  20
HETATM   20  C15 UNL     1       4.950  40.567  23.129  1.00  0.00     0.110 C
HETATM   21  C16 UNL     1       5.340  41.856  23.816  1.00  0.00     0.042 C
HETATM   22  C17 UNL     1       6.227  39.737  23.024  1.00  0.00     0.042 C
HETATM   23 CL1  UNL     1       4.467  40.974  21.476  1.00  0.00    -0.110 Cl
ENDBRANCH  17  20
ENDBRANCH   5  16
BRANCH   1  24
HETATM   24  O1  UNL     1       2.308  33.968  26.293  1.00  0.00    -0.359 OA
BRANCH  24  25
HETATM   25  C3  UNL     1       3.271  32.968  26.161  1.00  0.00     0.170 C
BRANCH  25  26
HETATM   26  C2  UNL     1       2.639  31.614  25.923  1.00  0.00     0.022 C
HETATM   27  C1  UNL     1       3.724  30.755  25.262  1.00  0.00     0.007 C
ENDBRANCH  25  26
ENDBRANCH  24  25
ENDBRANCH   1  24
BRANCH   6  28
HETATM   28  O6  UNL     1       3.386  36.060  23.163  1.00  0.00    -0.391 OA
ATOM     29  H6  UNL     1       3.447  36.302  22.247  1.00  0.00     0.210 HD
ENDBRANCH   6  28
BRANCH   7  30
HETATM   30  O7  UNL     1       1.152  34.657  23.879  1.00  0.00    -0.388 OA
ATOM     31  H7  UNL     1       1.467  34.752  22.988  1.00  0.00     0.210 HD
ENDBRANCH   7  30
TORSDOF 11
ENDMDL