MODEL 3
REMARK VINA RESULT: -7.713636814      1.238      2.806
REMARK  10 active torsions:
REMARK  status: ('A' for Active; 'I' for Inactive)
REMARK    1  A    between atoms: C2_2  and  C3_3
REMARK    2  A    between atoms: C4_7  and  C5_8
REMARK    3  A    between atoms: C9_12  and  C10_13
REMARK    4  A    between atoms: N2_16  and  C13_17
REMARK    5  A    between atoms: C13_17  and  C14_18
REMARK    6  A    between atoms: C14_18  and  N3_19
REMARK    7  A    between atoms: C16_21  and  O2_22
REMARK    8  A    between atoms: C17_24  and  O3_25
REMARK    9  A    between atoms: C18_27  and  C19_28
REMARK   10  A    between atoms: C19_28  and  O4_29
ROOT
HETATM    1  C10 UNL     1       2.009  34.883  24.983  1.00  0.00     0.028 C
HETATM    2  C11 UNL     1       3.140  34.694  25.897  1.00  0.00     0.040 C
HETATM    3  C12 UNL     1       4.325  35.615  25.488  1.00  0.00     0.275 C
HETATM    4  N2  UNL     1       4.209  36.114  24.182  1.00  0.00     0.108 N
HETATM    5  C20 UNL     1       3.551  35.402  23.175  1.00  0.00     0.318 C
HETATM    6 CL1  UNL     1       4.639  34.676  21.963  1.00  0.00    -0.092 Cl
HETATM    7  C21 UNL     1       2.665  34.351  23.673  1.00  0.00     0.061 C
ENDROOT
BRANCH   4   8
HETATM    8  C13 UNL     1       5.561  36.547  23.773  1.00  0.00     0.304 C
BRANCH   8   9
HETATM    9  C14 UNL     1       5.828  37.955  24.177  1.00  0.00     0.303 C
BRANCH   9  10
HETATM   10  N3  UNL     1       7.229  38.297  24.155  1.00  0.00     0.102 N
HETATM   11  C15 UNL     1       7.583  38.831  25.432  1.00  0.00     0.307 C
HETATM   12  C16 UNL     1       8.265  37.710  26.170  1.00  0.00     0.177 C
HETATM   13  C17 UNL     1       8.840  36.851  25.093  1.00  0.00     0.184 C
HETATM   14  C18 UNL     1       8.120  37.250  23.805  1.00  0.00     0.277 C
BRANCH  12  15
HETATM   15  O2  UNL     1       9.311  38.196  26.986  1.00  0.00    -0.391 OA
ATOM     16  H2  UNL     1       9.575  37.548  27.629  1.00  0.00     0.210 HD
ENDBRANCH  12  15
BRANCH  13  17
HETATM   17  O3  UNL     1       8.498  35.525  25.362  1.00  0.00    -0.391 OA
ATOM     18  H3  UNL     1       8.525  35.039  24.546  1.00  0.00     0.210 HD
ENDBRANCH  13  17
BRANCH  14  19
HETATM   19  C19 UNL     1       9.183  37.819  22.852  1.00  0.00     0.202 C
BRANCH  19  20
HETATM   20  O4  UNL     1      10.400  37.241  23.237  1.00  0.00    -0.399 OA
ATOM     21  H4  UNL     1      10.526  36.490  22.670  1.00  0.00     0.209 HD
ENDBRANCH  19  20
ENDBRANCH  14  19
ENDBRANCH   9  10
ENDBRANCH   8   9
ENDBRANCH   4   8
BRANCH   1  22
HETATM   22  C9  UNL     1       0.737  34.231  25.076  1.00  0.00     0.003 A
HETATM   23  C3  UNL     1      -0.427  34.905  24.646  1.00  0.00     0.084 A
HETATM   24  O1  UNL     1      -1.404  34.050  24.800  1.00  0.00    -0.242 OA
HETATM   25  N1  UNL     1      -0.982  32.943  25.270  1.00  0.00    -0.264 N
HETATM   26  C4  UNL     1       0.387  32.962  25.482  1.00  0.00     0.049 A
ATOM     27  H1  UNL     1      -1.580  32.140  25.468  1.00  0.00     0.194 HD
BRANCH  23  28
HETATM   28  C2  UNL     1      -0.631  36.274  24.118  1.00  0.00     0.063 C
HETATM   29  C1  UNL     1      -0.462  36.421  22.636  1.00  0.00     0.012 C
ENDBRANCH  23  28
BRANCH  26  30
HETATM   30  C5  UNL     1       1.147  31.839  26.038  1.00  0.00    -0.006 C
HETATM   31  C6  UNL     1       1.528  31.854  27.466  1.00  0.00     0.021 C
HETATM   32  C7  UNL     1       0.152  30.625  25.992  1.00  0.00     0.021 C
HETATM   33  C8  UNL     1       2.225  31.323  25.099  1.00  0.00     0.021 C
ENDBRANCH  26  30
ENDBRANCH   1  22
TORSDOF 10
ENDMDL