MODEL 5
REMARK VINA RESULT: -7.197307704      1.667      2.954
REMARK  9 active torsions:
REMARK  status: ('A' for Active; 'I' for Inactive)
REMARK    1  A    between atoms: C2_2  and  C3_3
REMARK    2  A    between atoms: C9_10  and  O2_11
REMARK    3  A    between atoms: O2_11  and  C10_12
REMARK    4  A    between atoms: C10_12  and  C11_14
REMARK    5  A    between atoms: C11_14  and  C12_15
REMARK    6  A    between atoms: C11_14  and  C15_18
REMARK    7  A    between atoms: C15_18  and  C16_20
REMARK    8  A    between atoms: C16_20  and  O5_23
REMARK    9  A    between atoms: C20_29  and  O6_31
ROOT
HETATM    1  C3  UNL     1       6.976  37.335  23.697  1.00  0.00     0.011 C
HETATM    2  C4  UNL     1       8.381  37.006  23.352  1.00  0.00     0.023 C
HETATM    3  C5  UNL     1       6.528  36.377  24.806  1.00  0.00     0.073 C
HETATM    4  C6  UNL     1       5.075  36.639  24.993  1.00  0.00     0.016 C
HETATM    5  C7  UNL     1       4.548  37.863  24.876  1.00  0.00    -0.013 C
HETATM    6  C8  UNL     1       3.103  37.980  25.085  1.00  0.00     0.210 C
HETATM    7  O1  UNL     1       2.524  37.150  25.977  1.00  0.00    -0.339 OA
HETATM    8  C9  UNL     1       3.050  35.905  26.152  1.00  0.00     0.380 C
HETATM    9  N1  UNL     1       4.185  35.598  25.306  1.00  0.00    -0.345 N
ATOM     10  H1  UNL     1       4.334  34.654  24.948  1.00  0.00     0.164 HD
HETATM   11  C19 UNL     1       5.390  39.051  24.549  1.00  0.00     0.150 C
HETATM   12 CL1  UNL     1       4.613  40.028  23.263  1.00  0.00    -0.117 Cl
HETATM   13  C20 UNL     1       6.804  38.734  24.237  1.00  0.00     0.086 C
HETATM   14  C21 UNL     1       7.643  38.901  25.495  1.00  0.00     0.049 C
ENDROOT
BRANCH   8  15
HETATM   15  O2  UNL     1       2.099  34.886  25.912  1.00  0.00    -0.270 OA
BRANCH  15  16
HETATM   16  C10 UNL     1       2.446  33.535  25.996  1.00  0.00     0.278 C
HETATM   17  O3  UNL     1       3.422  33.256  26.697  1.00  0.00    -0.264 OA
BRANCH  16  18
HETATM   18  C11 UNL     1       1.602  32.558  25.228  1.00  0.00     0.186 C
BRANCH  18  19
HETATM   19  C12 UNL     1       2.177  31.212  25.318  1.00  0.00    -0.072 C
HETATM   20  C13 UNL     1       3.376  30.971  24.685  1.00  0.00     0.015 C
HETATM   21  C14 UNL     1       1.559  30.021  25.951  1.00  0.00     0.044 C
ENDBRANCH  18  19
BRANCH  18  22
HETATM   22  C15 UNL     1       0.190  32.658  25.566  1.00  0.00     0.177 C
HETATM   23  O4  UNL     1      -0.132  32.071  26.670  1.00  0.00    -0.293 OA
BRANCH  22  24
HETATM   24  C16 UNL     1      -0.950  33.290  24.920  1.00  0.00     0.112 C
HETATM   25  C17 UNL     1      -1.021  33.166  23.432  1.00  0.00     0.053 C
HETATM   26  C18 UNL     1      -2.297  32.919  25.518  1.00  0.00     0.053 C
BRANCH  24  27
HETATM   27  O5  UNL     1      -0.808  34.716  25.146  1.00  0.00    -0.383 OA
ATOM     28  H5  UNL     1      -0.030  34.986  24.673  1.00  0.00     0.211 HD
ENDBRANCH  24  27
ENDBRANCH  22  24
ENDBRANCH  18  22
ENDBRANCH  16  18
ENDBRANCH  15  16
ENDBRANCH   8  15
BRANCH   1  29
HETATM   29  C2  UNL     1       6.116  37.149  22.523  1.00  0.00    -0.024 C
HETATM   30  C1  UNL     1       6.337  36.145  21.698  1.00  0.00     0.008 C
ENDBRANCH   1  29
BRANCH  13  31
HETATM   31  O6  UNL     1       7.276  39.660  23.302  1.00  0.00    -0.387 OA
ATOM     32  H6  UNL     1       7.968  40.182  23.690  1.00  0.00     0.210 HD
ENDBRANCH  13  31
TORSDOF 9
ENDMDL