MODEL 3
REMARK VINA RESULT: -7.888833509      4.367      7.160
REMARK  6 active torsions:
REMARK  status: ('A' for Active; 'I' for Inactive)
REMARK       I    between atoms: C1_2  and  N1_3
REMARK    1  A    between atoms: C1_2  and  C9_17
REMARK    2  A    between atoms: N1_3  and  C2_5
REMARK    3  A    between atoms: C10_18  and  C11_19
REMARK    4  A    between atoms: C16_30  and  O2_31
REMARK    5  A    between atoms: O2_31  and  C17_32
REMARK    6  A    between atoms: C17_32  and  C18_33
ROOT
HETATM    1  C9  UNL     1       5.161  38.770  22.278  1.00  0.00     0.070 A
HETATM    2  C10 UNL     1       5.621  37.490  22.336  1.00  0.00     0.010 A
HETATM    3  C15 UNL     1       5.105  36.571  21.407  1.00  0.00     0.103 A
HETATM    4  N6  UNL     1       4.199  36.944  20.505  1.00  0.00    -0.345 N
ATOM      5  H6  UNL     1       3.853  36.239  19.852  1.00  0.00     0.167 HD
HETATM    6  C16 UNL     1       3.716  38.190  20.402  1.00  0.00     0.165 A
HETATM    7  C21 UNL     1       4.205  39.105  21.300  1.00  0.00     0.101 A
HETATM    8 CL1  UNL     1       3.594  40.750  21.198  1.00  0.00    -0.079 Cl
ENDROOT
BRANCH   1   9
HETATM    9  C1  UNL     1       5.501  39.798  23.209  1.00  0.00     0.254 C
HETATM   10  O1  UNL     1       6.476  40.572  22.843  1.00  0.00    -0.268 OA
HETATM   11  N1  UNL     1       4.923  40.093  24.466  1.00  0.00    -0.350 N
ATOM     12  H1  UNL     1       4.145  39.532  24.813  1.00  0.00     0.163 HD
BRANCH  11  13
HETATM   13  C2  UNL     1       5.437  41.197  25.268  1.00  0.00     0.117 C
HETATM   14  C3  UNL     1       5.815  40.720  26.663  1.00  0.00     0.029 C
HETATM   15  C4  UNL     1       6.049  41.932  27.537  1.00  0.00     0.021 C
HETATM   16  C5  UNL     1       5.044  42.050  28.642  1.00  0.00     0.114 C
HETATM   17  N2  UNL     1       4.208  43.205  28.563  1.00  0.00    -0.419 N
HETATM   18  C6  UNL     1       3.454  43.327  27.366  1.00  0.00     0.149 C
ATOM     19  H2  UNL     1       4.157  43.894  29.313  1.00  0.00     0.153 HD
HETATM   20  C7  UNL     1       3.536  42.124  26.482  1.00  0.00     0.236 A
HETATM   21  N3  UNL     1       3.088  42.186  25.129  1.00  0.00    -0.059 N
HETATM   22  C8  UNL     1       4.479  42.328  25.396  1.00  0.00     0.241 A
ATOM     23  H32 UNL     1       2.536  41.569  24.533  1.00  0.00     0.278 HD
ATOM     24  H31 UNL     1       2.397  42.750  24.633  1.00  0.00     0.278 HD
ENDBRANCH  11  13
ENDBRANCH   1   9
BRANCH   2  25
HETATM   25  C11 UNL     1       6.689  37.018  23.238  1.00  0.00     0.007 A
HETATM   26  C12 UNL     1       6.331  36.442  24.435  1.00  0.00     0.102 A
HETATM   27  N4  UNL     1       7.263  36.021  25.276  1.00  0.00    -0.361 N
HETATM   28  C13 UNL     1       8.552  36.144  24.988  1.00  0.00     0.180 A
ATOM     29  H4  UNL     1       6.985  35.596  26.161  1.00  0.00     0.166 HD
HETATM   30  N5  UNL     1       8.925  36.709  23.813  1.00  0.00    -0.361 N
HETATM   31  C14 UNL     1       8.016  37.148  22.933  1.00  0.00     0.102 A
ATOM     32  H5  UNL     1       9.917  36.802  23.595  1.00  0.00     0.166 HD
ENDBRANCH   2  25
BRANCH   6  33
HETATM   33  O2  UNL     1       2.769  38.528  19.437  1.00  0.00    -0.334 OA
BRANCH  33  34
HETATM   34  C17 UNL     1       1.722  37.614  19.181  1.00  0.00     0.182 C
BRANCH  34  35
HETATM   35  C18 UNL     1       0.421  38.311  18.884  1.00  0.00     0.010 A
HETATM   36  C19 UNL     1       0.063  38.313  17.403  1.00  0.00     0.007 A
HETATM   37  C20 UNL     1       0.481  39.570  18.037  1.00  0.00     0.007 A
ENDBRANCH  34  35
ENDBRANCH  33  34
ENDBRANCH   6  33
TORSDOF 6
ENDMDL