MODEL 3
REMARK VINA RESULT: -7.291676209      2.285      3.358
REMARK  9 active torsions:
REMARK  status: ('A' for Active; 'I' for Inactive)
REMARK    1  A    between atoms: O1_2  and  C2_3
REMARK    2  A    between atoms: C2_3  and  C3_5
REMARK    3  A    between atoms: C3_5  and  O3_6
REMARK    4  A    between atoms: N1_10  and  C6_11
REMARK    5  A    between atoms: C7_13  and  C8_14
REMARK    6  A    between atoms: C8_14  and  N2_15
REMARK       I    between atoms: N2_15  and  C9_17
REMARK    7  A    between atoms: C9_17  and  C10_19
REMARK    8  A    between atoms: C10_19  and  N3_20
REMARK    9  A    between atoms: N3_20  and  C11_22
ROOT
HETATM    1  C6  UNL     1       3.298  36.885  21.742  1.00  0.00     0.094 A
HETATM    2  S1  UNL     1       2.375  35.996  22.903  1.00  0.00    -0.074 SA
HETATM    3  C7  UNL     1       0.885  35.916  22.087  1.00  0.00     0.004 A
HETATM    4  C15 UNL     1       1.147  36.587  20.927  1.00  0.00     0.043 A
HETATM    5  C16 UNL     1       2.384  37.084  20.748  1.00  0.00     0.068 A
HETATM    6 CL1  UNL     1       2.825  37.973  19.248  1.00  0.00    -0.081 Cl
ENDROOT
BRANCH   1   7
HETATM    7  N1  UNL     1       4.659  37.247  21.900  1.00  0.00    -0.374 N
HETATM    8  C5  UNL     1       4.950  38.676  22.145  1.00  0.00     0.127 C
HETATM    9  C4  UNL     1       6.257  38.734  22.860  1.00  0.00     0.068 C
HETATM   10  C3  UNL     1       6.512  37.638  23.838  1.00  0.00     0.148 C
HETATM   11  C18 UNL     1       6.268  36.247  23.304  1.00  0.00     0.068 C
HETATM   12  C17 UNL     1       5.801  36.420  21.850  1.00  0.00     0.127 C
BRANCH  10  13
HETATM   13  C2  UNL     1       7.978  37.705  24.175  1.00  0.00     0.293 C
HETATM   14  O2  UNL     1       8.810  37.853  23.252  1.00  0.00    -0.262 OA
BRANCH  13  15
HETATM   15  O1  UNL     1       8.376  37.600  25.505  1.00  0.00    -0.324 OA
HETATM   16  C1  UNL     1       8.603  36.298  26.029  1.00  0.00     0.213 C
ENDBRANCH  13  15
ENDBRANCH  10  13
BRANCH  10  17
HETATM   17  O3  UNL     1       5.769  37.889  24.992  1.00  0.00    -0.379 OA
ATOM     18  H3  UNL     1       5.198  38.632  24.836  1.00  0.00     0.211 HD
ENDBRANCH  10  17
ENDBRANCH   1   7
BRANCH   3  19
HETATM   19  C8  UNL     1      -0.415  35.290  22.480  1.00  0.00     0.169 C
BRANCH  19  20
HETATM   20  N2  UNL     1      -0.157  34.445  23.626  1.00  0.00    -0.352 N
HETATM   21  C9  UNL     1      -1.048  33.355  23.974  1.00  0.00     0.256 C
HETATM   22  O4  UNL     1      -2.031  33.204  23.226  1.00  0.00    -0.267 OA
ATOM     23  H2  UNL     1       0.667  34.620  24.201  1.00  0.00     0.163 HD
BRANCH  21  24
HETATM   24  C10 UNL     1      -0.670  32.585  25.158  1.00  0.00     0.158 C
BRANCH  24  25
HETATM   25  N3  UNL     1       0.435  31.766  25.069  1.00  0.00    -0.386 N
ATOM     26  H3  UNL     1       0.648  31.401  24.142  1.00  0.00     0.159 HD
BRANCH  25  27
HETATM   27  C11 UNL     1       1.287  31.383  26.081  1.00  0.00     0.018 C
HETATM   28  C12 UNL     1       0.612  31.349  27.465  1.00  0.00     0.037 C
HETATM   29  C13 UNL     1       1.584  29.860  25.830  1.00  0.00     0.037 C
HETATM   30  C14 UNL     1       2.564  32.105  26.241  1.00  0.00     0.037 C
ENDBRANCH  25  27
ENDBRANCH  24  25
ENDBRANCH  21  24
ENDBRANCH  19  20
ENDBRANCH   3  19
TORSDOF 9
ENDMDL