MODEL 2
REMARK VINA RESULT: -8.484146070      1.040      1.250
REMARK  8 active torsions:
REMARK  status: ('A' for Active; 'I' for Inactive)
REMARK    1  A    between atoms: N1_1  and  C1_5
REMARK    2  A    between atoms: N2_8  and  C4_9
REMARK    3  A    between atoms: C6_13  and  C7_14
REMARK    4  A    between atoms: C7_14  and  C8_15
REMARK    5  A    between atoms: C10_19  and  N5_20
REMARK    6  A    between atoms: N5_20  and  C11_22
REMARK    7  A    between atoms: C11_22  and  C12_23
REMARK    8  A    between atoms: C12_23  and  C13_24
ROOT
HETATM    1  C4  UNL     1       3.964  37.099  23.603  1.00  0.00     0.160 A
HETATM    2  N3  UNL     1       3.867  36.324  22.475  1.00  0.00    -0.347 N
ATOM      3  H3  UNL     1       4.728  35.984  22.048  1.00  0.00     0.167 HD
HETATM    4  C5  UNL     1       2.704  35.993  21.906  1.00  0.00     0.115 A
HETATM    5  C6  UNL     1       1.507  36.418  22.431  1.00  0.00     0.032 A
HETATM    6  N7  UNL     1       1.573  37.176  23.533  1.00  0.00    -0.332 N
ATOM      7  H7  UNL     1       0.706  37.510  23.952  1.00  0.00     0.168 HD
HETATM    8  C18 UNL     1       2.766  37.519  24.118  1.00  0.00     0.233 A
HETATM    9  F1  UNL     1       2.723  38.302  25.218  1.00  0.00    -0.182 F
ENDROOT
BRANCH   5  10
HETATM   10  C7  UNL     1       0.194  36.096  21.866  1.00  0.00     0.106 C
BRANCH  10  11
HETATM   11  C8  UNL     1      -0.519  35.020  22.641  1.00  0.00     0.007 A
HETATM   12  C9  UNL     1      -1.361  34.050  22.166  1.00  0.00     0.105 A
HETATM   13  N4  UNL     1      -1.873  33.212  23.016  1.00  0.00    -0.346 N
HETATM   14  C10 UNL     1      -1.558  33.336  24.304  1.00  0.00     0.144 A
ATOM     15  H4  UNL     1      -2.504  32.475  22.704  1.00  0.00     0.167 HD
HETATM   16  S1  UNL     1      -0.502  34.680  24.316  1.00  0.00    -0.057 SA
BRANCH  14  17
HETATM   17  N5  UNL     1      -1.972  32.590  25.306  1.00  0.00    -0.370 N
ATOM     18  H5  UNL     1      -2.950  32.307  25.374  1.00  0.00     0.161 HD
BRANCH  17  19
HETATM   19  C11 UNL     1      -1.000  32.171  26.330  1.00  0.00     0.122 C
BRANCH  19  20
HETATM   20  C12 UNL     1      -0.216  31.064  25.737  1.00  0.00     0.024 C
BRANCH  20  21
HETATM   21  C13 UNL     1       1.082  30.718  26.405  1.00  0.00    -0.010 C
HETATM   22  C14 UNL     1       1.962  29.804  25.603  1.00  0.00     0.032 C
HETATM   23  C15 UNL     1       3.012  30.467  24.790  1.00  0.00     0.232 C
HETATM   24  N6  UNL     1       3.760  31.409  25.578  1.00  0.00    -0.075 N
HETATM   25  C16 UNL     1       2.927  32.434  26.160  1.00  0.00     0.232 C
ATOM     26  H62 UNL     1       4.308  30.934  26.294  1.00  0.00     0.277 HD
ATOM     27  H61 UNL     1       4.519  31.820  25.035  1.00  0.00     0.277 HD
HETATM   28  C17 UNL     1       1.812  31.860  26.993  1.00  0.00     0.032 C
ENDBRANCH  20  21
ENDBRANCH  19  20
ENDBRANCH  17  19
ENDBRANCH  14  17
ENDBRANCH  10  11
ENDBRANCH   5  10
BRANCH   1  29
HETATM   29  N2  UNL     1       5.228  37.389  24.156  1.00  0.00    -0.363 N
HETATM   30  C3  UNL     1       5.805  36.329  25.017  1.00  0.00     0.126 C
HETATM   31  C2  UNL     1       7.314  36.420  24.950  1.00  0.00     0.052 C
HETATM   32  C1  UNL     1       7.823  36.885  23.601  1.00  0.00     0.186 C
HETATM   33  C20 UNL     1       7.314  38.275  23.259  1.00  0.00     0.052 C
HETATM   34  C19 UNL     1       6.023  38.559  24.015  1.00  0.00     0.126 C
BRANCH  32  35
HETATM   35  N1  UNL     1       9.272  36.875  23.679  1.00  0.00    -0.075 N
ATOM     36  H13 UNL     1       9.687  37.802  23.586  1.00  0.00     0.274 HD
ATOM     37  H12 UNL     1       9.624  36.671  24.614  1.00  0.00     0.274 HD
ATOM     38  H11 UNL     1       9.597  36.215  22.972  1.00  0.00     0.274 HD
ENDBRANCH  32  35
ENDBRANCH   1  29
TORSDOF 8
ENDMDL