MODEL 3
REMARK VINA RESULT: -7.890613852      4.430      7.418
REMARK  7 active torsions:
REMARK  status: ('A' for Active; 'I' for Inactive)
REMARK    1  A    between atoms: C2_2  and  S1_4
REMARK    2  A    between atoms: S1_4  and  C3_5
REMARK    3  A    between atoms: C7_12  and  N2_13
REMARK    4  A    between atoms: N2_13  and  C8_16
REMARK    5  A    between atoms: C8_16  and  C10_18
REMARK       I    between atoms: C10_18  and  N3_20
REMARK    6  A    between atoms: N3_20  and  C11_22
REMARK    7  A    between atoms: C18_32  and  O2_33
ROOT
HETATM    1  C3  UNL     1      -0.892  33.366  25.035  1.00  0.00     0.114 A
HETATM    2  N1  UNL     1      -1.095  33.851  23.825  1.00  0.00    -0.344 N
ATOM      3  H1  UNL     1      -1.994  33.713  23.363  1.00  0.00     0.167 HD
HETATM    4  C4  UNL     1      -0.141  34.507  23.219  1.00  0.00     0.080 A
HETATM    5  C5  UNL     1       1.041  34.661  23.885  1.00  0.00     0.016 A
HETATM    6  S2  UNL     1       0.712  33.846  25.360  1.00  0.00    -0.068 SA
HETATM    7  C6  UNL     1       2.226  35.394  23.307  1.00  0.00     0.111 C
HETATM    8  C7  UNL     1       1.842  36.206  22.124  1.00  0.00     0.391 C
HETATM    9  N4  UNL     1       0.416  36.454  22.033  1.00  0.00    -0.014 N
ATOM     10  H41 UNL     1       0.160  37.132  21.315  1.00  0.00     0.283 HD
ATOM     11  H42 UNL     1       0.036  36.973  22.824  1.00  0.00     0.283 HD
HETATM   12  C18 UNL     1      -0.189  35.127  21.843  1.00  0.00     0.373 C
ENDROOT
BRANCH   8  13
HETATM   13  N2  UNL     1       2.529  37.505  22.114  1.00  0.00    -0.033 N
ATOM     14  H22 UNL     1       1.892  38.302  22.113  1.00  0.00     0.280 HD
ATOM     15  H21 UNL     1       3.000  37.723  22.991  1.00  0.00     0.280 HD
BRANCH  13  16
HETATM   16  C8  UNL     1       3.420  37.476  20.971  1.00  0.00     0.275 C
HETATM   17  C9  UNL     1       3.458  38.840  20.338  1.00  0.00     0.050 C
BRANCH  16  18
HETATM   18  C10 UNL     1       4.766  36.994  21.358  1.00  0.00     0.248 C
HETATM   19  O1  UNL     1       5.262  36.047  20.699  1.00  0.00    -0.271 OA
HETATM   20  N3  UNL     1       5.506  37.539  22.416  1.00  0.00    -0.354 N
ATOM     21  H3  UNL     1       5.078  38.307  22.933  1.00  0.00     0.162 HD
BRANCH  20  22
HETATM   22  C11 UNL     1       6.802  37.117  22.834  1.00  0.00     0.092 C
HETATM   23  C12 UNL     1       6.767  36.312  24.128  1.00  0.00     0.034 C
HETATM   24  C13 UNL     1       7.730  37.061  25.006  1.00  0.00     0.010 C
HETATM   25  C14 UNL     1       9.066  36.973  24.397  1.00  0.00    -0.026 C
HETATM   26  C17 UNL     1       7.383  38.508  24.595  1.00  0.00     0.019 C
HETATM   27  C15 UNL     1       9.086  37.682  23.277  1.00  0.00    -0.024 C
HETATM   28  C16 UNL     1       7.743  38.265  23.115  1.00  0.00     0.031 C
ENDBRANCH  20  22
ENDBRANCH  16  18
ENDBRANCH  13  16
ENDBRANCH   8  13
BRANCH  12  29
HETATM   29  O2  UNL     1      -1.463  35.214  21.340  1.00  0.00    -0.365 OA
ATOM     30  H2  UNL     1      -1.640  36.048  20.923  1.00  0.00     0.212 HD
ENDBRANCH  12  29
BRANCH   1  31
HETATM   31  S1  UNL     1      -2.061  32.439  26.033  1.00  0.00    -0.085 SA
BRANCH  31  32
HETATM   32  C2  UNL     1      -1.205  31.797  27.468  1.00  0.00     0.146 C
HETATM   33  C1  UNL     1      -0.013  30.978  26.957  1.00  0.00     0.038 C
HETATM   34 CL1  UNL     1      -2.230  30.682  28.427  1.00  0.00    -0.114 Cl
ENDBRANCH  31  32
ENDBRANCH   1  31
TORSDOF 7
ENDMDL