MODEL 1
REMARK VINA RESULT: -6.094311256      0.000      0.000
REMARK  3 active torsions:
REMARK  status: ('A' for Active; 'I' for Inactive)
REMARK    1  A    between atoms: C2_2  and  O1_3
REMARK    2  A    between atoms: C2_2  and  C3_5
REMARK    3  A    between atoms: N1_15  and  O3_17
ROOT
HETATM    1  C3  UNL     1     -17.457  -2.228 -25.556  1.00  0.00     0.039 C
HETATM    2  C4  UNL     1     -17.576  -2.503 -24.078  1.00  0.00     0.019 C
HETATM    3  C5  UNL     1     -17.716  -1.319 -23.202  1.00  0.00     0.001 C
HETATM    4  C6  UNL     1     -18.618  -0.244 -23.755  1.00  0.00     0.002 C
HETATM    5  C7  UNL     1     -18.257   0.072 -25.191  1.00  0.00     0.033 C
HETATM    6  C8  UNL     1     -18.446  -1.213 -25.981  1.00  0.00     0.137 C
HETATM    7  O2  UNL     1     -18.518  -0.972 -27.338  1.00  0.00    -0.374 OA
HETATM    8  C9  UNL     1     -17.353  -0.927 -28.029  1.00  0.00     0.165 C
HETATM    9  C10 UNL     1     -17.250   0.463 -28.671  1.00  0.00     0.046 C
HETATM   10  C11 UNL     1     -16.118  -1.186 -27.287  1.00  0.00     0.039 C
HETATM   11  N1  UNL     1     -15.008  -0.903 -27.929  1.00  0.00    -0.275 N
ATOM     12  H1  UNL     1     -15.028  -0.528 -28.878  1.00  0.00     0.193 HD
HETATM   13  C12 UNL     1     -16.066  -1.731 -25.909  1.00  0.00     0.076 C
ENDROOT
BRANCH   1  14
HETATM   14  C2  UNL     1     -17.607  -3.535 -26.224  1.00  0.00     0.045 C
HETATM   15  C1  UNL     1     -16.842  -4.534 -25.876  1.00  0.00     0.046 C
BRANCH  14  16
HETATM   16  O1  UNL     1     -18.550  -3.715 -27.220  1.00  0.00    -0.365 OA
ATOM     17  H1  UNL     1     -18.484  -3.211 -28.022  1.00  0.00     0.217 HD
ENDBRANCH  14  16
ENDBRANCH   1  14
BRANCH  11  18
HETATM   18  O3  UNL     1     -13.837  -1.122 -27.290  1.00  0.00    -0.290 OA
ATOM     19  H3  UNL     1     -13.443  -0.394 -26.825  1.00  0.00     0.244 HD
ENDBRANCH  11  18
TORSDOF 3
ENDMDL