MODEL 2
REMARK VINA RESULT: -5.132126246      1.845      2.121
REMARK  0 active torsions:
REMARK  status: ('A' for Active; 'I' for Inactive)
ROOT
HETATM    1  C1  UNL     1     -16.270   0.374 -29.524  1.00  0.00     0.128 A
HETATM    2  N1  UNL     1     -17.356   0.663 -28.763  1.00  0.00    -0.357 N
ATOM      3  H1  UNL     1     -18.029   1.408 -28.943  1.00  0.00     0.166 HD
HETATM    4  C2  UNL     1     -17.395  -0.185 -27.750  1.00  0.00     0.082 A
HETATM    5  C3  UNL     1     -16.333  -1.013 -27.872  1.00  0.00     0.049 A
HETATM    6  C4  UNL     1     -15.591  -0.694 -28.981  1.00  0.00     0.121 A
HETATM    7  O1  UNL     1     -14.496  -1.599 -29.034  1.00  0.00    -0.240 OA
HETATM    8  N2  UNL     1     -14.292  -2.054 -27.688  1.00  0.00    -0.068 NA
HETATM    9  C5  UNL     1     -15.653  -2.140 -27.261  1.00  0.00     0.138 C
HETATM   10  C6  UNL     1     -15.960  -2.005 -25.795  1.00  0.00     0.052 C
HETATM   11  C7  UNL     1     -17.469  -2.369 -25.908  1.00  0.00     0.008 C
HETATM   12  C8  UNL     1     -18.213  -1.438 -25.166  1.00  0.00     0.086 C
HETATM   13  S1  UNL     1     -18.673  -0.133 -26.421  1.00  0.00    -0.111 SA
HETATM   14  C9  UNL     1     -17.335  -3.820 -25.873  1.00  0.00     0.082 C
HETATM   15  S2  UNL     1     -16.340  -3.815 -27.487  1.00  0.00    -0.134 SA
ENDROOT
TORSDOF 0
ENDMDL