MODEL 4
REMARK VINA RESULT: -5.790870274      1.608      2.018
REMARK  2 active torsions:
REMARK  status: ('A' for Active; 'I' for Inactive)
REMARK    1  A    between atoms: C8_8  and  C9_9
REMARK    2  A    between atoms: N3_16  and  N4_17
ROOT
HETATM    1  C9  UNL     1     -18.101  -1.241 -24.480  1.00  0.00     0.125 A
HETATM    2  N1  UNL     1     -18.805  -2.375 -24.335  1.00  0.00    -0.285 N
ATOM      3  H1  UNL     1     -18.833  -3.138 -25.011  1.00  0.00     0.188 HD
HETATM    4  N2  UNL     1     -19.466  -2.355 -23.168  1.00  0.00    -0.273 N
ATOM      5  H2  UNL     1     -20.075  -3.089 -22.808  1.00  0.00     0.189 HD
HETATM    6  C10 UNL     1     -19.182  -1.198 -22.561  1.00  0.00     0.213 A
HETATM    7  S1  UNL     1     -19.752  -0.713 -21.111  1.00  0.00    -0.037 SA
HETATM    8  N3  UNL     1     -18.335  -0.513 -23.381  1.00  0.00    -0.221 N
ENDROOT
BRANCH   1   9
HETATM    9  C8  UNL     1     -17.241  -0.888 -25.633  1.00  0.00     0.064 C
HETATM   10  C2  UNL     1     -18.051  -0.877 -26.903  1.00  0.00    -0.037 C
HETATM   11  C1  UNL     1     -18.887  -2.109 -27.080  1.00  0.00     0.015 C
HETATM   12  C3  UNL     1     -18.995   0.310 -26.844  1.00  0.00     0.015 C
HETATM   13  C4  UNL     1     -17.182  -0.702 -28.113  1.00  0.00     0.009 C
HETATM   14  C5  UNL     1     -16.233  -1.876 -28.170  1.00  0.00     0.001 C
HETATM   15  C6  UNL     1     -15.335  -1.851 -26.962  1.00  0.00     0.001 C
HETATM   16  C7  UNL     1     -16.085  -1.831 -25.664  1.00  0.00     0.013 C
ENDBRANCH   1   9
BRANCH   8  17
HETATM   17  N4  UNL     1     -17.832   0.747 -23.056  1.00  0.00    -0.335 N
ATOM     18  H42 UNL     1     -18.126   1.257 -22.223  1.00  0.00     0.177 HD
ATOM     19  H41 UNL     1     -17.146   1.304 -23.566  1.00  0.00     0.177 HD
ENDBRANCH   8  17
TORSDOF 2
ENDMDL