MODEL 1
REMARK VINA RESULT: -7.103268158      0.000      0.000
REMARK  2 active torsions:
REMARK  status: ('A' for Active; 'I' for Inactive)
REMARK    1  A    between atoms: C2_7  and  N3_8
REMARK    2  A    between atoms: N3_8  and  N4_10
ROOT
HETATM    1  N3  UNL     1     -18.003  -1.287 -24.585  1.00  0.00    -0.279 N
ATOM      2  H3  UNL     1     -17.798  -0.330 -24.871  1.00  0.00     0.189 HD
ENDROOT
BRANCH   1   3
HETATM    3  C2  UNL     1     -17.495  -2.322 -25.219  1.00  0.00     0.180 A
HETATM    4  N2  UNL     1     -17.716  -3.619 -24.990  1.00  0.00    -0.277 N
HETATM    5  N1  UNL     1     -17.125  -4.484 -25.717  1.00  0.00    -0.282 N
ATOM      6  H2  UNL     1     -18.348  -3.913 -24.245  1.00  0.00     0.189 HD
HETATM    7  C1  UNL     1     -16.303  -4.065 -26.686  1.00  0.00     0.160 A
ATOM      8  H1  UNL     1     -17.277  -5.480 -25.563  1.00  0.00     0.188 HD
HETATM    9  S1  UNL     1     -15.430  -4.978 -27.750  1.00  0.00    -0.051 SA
HETATM   10  S2  UNL     1     -16.399  -2.368 -26.526  1.00  0.00    -0.020 SA
ENDBRANCH   1   3
BRANCH   1  11
HETATM   11  N4  UNL     1     -18.836  -1.566 -23.504  1.00  0.00    -0.307 N
HETATM   12  C3  UNL     1     -18.821  -0.816 -22.468  1.00  0.00     0.004 C
HETATM   13  C4  UNL     1     -19.709  -1.091 -21.284  1.00  0.00     0.054 C
HETATM   14  C8  UNL     1     -17.914   0.349 -22.421  1.00  0.00     0.054 C
HETATM   15  C5  UNL     1     -19.058  -0.335 -20.119  1.00  0.00     0.006 C
HETATM   16  C6  UNL     1     -19.232   1.140 -20.433  1.00  0.00     0.001 C
HETATM   17  C7  UNL     1     -18.463   1.512 -21.660  1.00  0.00     0.006 C
ATOM     18  H4  UNL     1     -19.461  -2.371 -23.538  1.00  0.00     0.186 HD
ENDBRANCH   1  11
TORSDOF 2
ENDMDL