MODEL 4
REMARK VINA RESULT: -5.716295024      1.619      3.008
REMARK  3 active torsions:
REMARK  status: ('A' for Active; 'I' for Inactive)
REMARK    1  A    between atoms: C3_3  and  N1_4
REMARK    2  A    between atoms: N1_4  and  C4_6
REMARK    3  A    between atoms: C4_6  and  C5_7
ROOT
HETATM    1  C5  UNL     1     -19.639  -0.702 -21.468  1.00  0.00     0.143 C
HETATM    2  C6  UNL     1     -19.199  -0.468 -20.107  1.00  0.00     0.060 C
HETATM    3  N2  UNL     1     -18.873  -0.284 -19.003  1.00  0.00    -0.197 NA
ENDROOT
BRANCH   1   4
HETATM    4  C4  UNL     1     -19.274   0.330 -22.471  1.00  0.00     0.135 C
BRANCH   4   5
HETATM    5  N1  UNL     1     -18.086   0.147 -23.217  1.00  0.00    -0.379 N
ATOM      6  H1  UNL     1     -17.236   0.502 -22.779  1.00  0.00     0.160 HD
BRANCH   5   7
HETATM    7  C3  UNL     1     -17.904  -0.458 -24.490  1.00  0.00     0.081 C
HETATM    8  C2  UNL     1     -17.141  -1.707 -24.621  1.00  0.00     0.076 C
HETATM    9  C1  UNL     1     -17.446  -2.691 -23.497  1.00  0.00     0.020 C
HETATM   10  C10 UNL     1     -17.159  -2.336 -25.957  1.00  0.00     0.030 C
HETATM   11  N4  UNL     1     -18.050  -1.795 -26.932  1.00  0.00    -0.388 N
HETATM   12  C11 UNL     1     -17.559  -3.813 -25.812  1.00  0.00     0.038 C
HETATM   13  C12 UNL     1     -15.721  -2.414 -26.505  1.00  0.00     0.038 C
HETATM   14  C7  UNL     1     -18.245  -0.381 -26.850  1.00  0.00     0.093 C
ATOM     15  H4  UNL     1     -18.511  -2.374 -27.634  1.00  0.00     0.156 HD
HETATM   16  N3  UNL     1     -18.386   0.110 -25.523  1.00  0.00    -0.354 N
HETATM   17  C8  UNL     1     -19.544  -0.100 -27.624  1.00  0.00     0.062 C
HETATM   18  C9  UNL     1     -17.165   0.393 -27.619  1.00  0.00     0.062 C
ATOM     19  H3  UNL     1     -18.908   0.976 -25.389  1.00  0.00     0.163 HD
ENDBRANCH   5   7
ENDBRANCH   4   5
ENDBRANCH   1   4
TORSDOF 3
ENDMDL