MODEL 4
REMARK VINA RESULT: -7.125508899      1.121      1.216
REMARK  3 active torsions:
REMARK  status: ('A' for Active; 'I' for Inactive)
REMARK    1  A    between atoms: O1_1  and  N1_3
REMARK    2  A    between atoms: C4_9  and  N3_10
REMARK    3  A    between atoms: N3_10  and  C5_12
ROOT
HETATM    1  N3  UNL     1     -17.674  -0.810 -24.045  1.00  0.00    -0.220 N
ATOM      2  H3  UNL     1     -16.740  -0.464 -24.263  1.00  0.00     0.178 HD
ENDROOT
BRANCH   1   3
HETATM    3  C4  UNL     1     -18.329  -0.280 -22.901  1.00  0.00     0.696 C
HETATM    4  N1  UNL     1     -19.273  -1.078 -22.208  1.00  0.00    -0.091 N
HETATM    5  C1  UNL     1     -19.703  -0.758 -20.842  1.00  0.00     0.176 C
HETATM    6  C2  UNL     1     -18.829   0.325 -20.267  1.00  0.00     0.043 C
HETATM    7  C3  UNL     1     -18.773   1.452 -21.289  1.00  0.00     0.140 C
HETATM    8  N2  UNL     1     -18.097   0.913 -22.464  1.00  0.00    -0.225 N
ATOM      9  H2  UNL     1     -17.421   1.496 -22.956  1.00  0.00     0.177 HD
BRANCH   4  10
HETATM   10  O1  UNL     1     -19.834  -2.180 -22.755  1.00  0.00    -0.274 OA
ATOM     11  H1  UNL     1     -20.690  -2.054 -23.147  1.00  0.00     0.245 HD
ENDBRANCH   4  10
ENDBRANCH   1   3
BRANCH   1  12
HETATM   12  C5  UNL     1     -18.251  -1.812 -24.919  1.00  0.00     0.099 C
HETATM   13  C6  UNL     1     -18.586  -1.219 -26.245  1.00  0.00     0.026 C
HETATM   14  C7  UNL     1     -18.819  -2.237 -27.321  1.00  0.00     0.002 C
HETATM   15  C8  UNL     1     -17.848  -2.094 -28.467  1.00  0.00     0.000 C
HETATM   16  C9  UNL     1     -16.857  -3.205 -28.558  1.00  0.00     0.000 C
HETATM   17  C10 UNL     1     -16.564  -3.871 -27.240  1.00  0.00     0.000 C
HETATM   18  C11 UNL     1     -16.323  -2.883 -26.123  1.00  0.00     0.002 C
HETATM   19  C12 UNL     1     -17.342  -3.025 -25.031  1.00  0.00     0.026 C
ENDBRANCH   1  12
TORSDOF 3
ENDMDL