MODEL 4
REMARK VINA RESULT: -5.055730714      2.543      4.173
REMARK  3 active torsions:
REMARK  status: ('A' for Active; 'I' for Inactive)
REMARK    1  A    between atoms: C2_2  and  C4_4
REMARK    2  A    between atoms: C7_12  and  N4_13
REMARK    3  A    between atoms: N5_15  and  C8_17
ROOT
HETATM    1  C4  UNL     1     -18.706  -0.492 -25.130  1.00  0.00     0.060 A
HETATM    2  N1  UNL     1     -19.291   0.589 -25.704  1.00  0.00    -0.301 N
ATOM      3  H1  UNL     1     -19.903   1.252 -25.228  1.00  0.00     0.186 HD
HETATM    4  N2  UNL     1     -18.934   0.647 -27.005  1.00  0.00    -0.289 N
ATOM      5  H2  UNL     1     -19.240   1.368 -27.658  1.00  0.00     0.188 HD
HETATM    6  C5  UNL     1     -18.128  -0.363 -27.318  1.00  0.00     0.158 A
HETATM    7  C6  UNL     1     -17.544  -0.626 -28.627  1.00  0.00     0.121 C
HETATM    8  N3  UNL     1     -17.088  -0.853 -29.686  1.00  0.00    -0.190 NA
HETATM    9  C7  UNL     1     -17.977  -1.091 -26.142  1.00  0.00     0.111 A
ENDROOT
BRANCH   9  10
HETATM   10  N4  UNL     1     -17.230  -2.268 -26.031  1.00  0.00    -0.294 N
HETATM   11  N5  UNL     1     -17.668  -3.434 -26.255  1.00  0.00    -0.278 N
ATOM     12  H5  UNL     1     -18.641  -3.555 -26.538  1.00  0.00     0.189 HD
ATOM     13  H4  UNL     1     -16.254  -2.180 -25.746  1.00  0.00     0.187 HD
BRANCH  11  14
HETATM   14  C8  UNL     1     -16.829  -4.588 -26.121  1.00  0.00     0.199 C
HETATM   15  N6  UNL     1     -16.982  -5.434 -24.997  1.00  0.00    -0.068 NA
HETATM   16  S1  UNL     1     -15.704  -4.958 -27.231  1.00  0.00    -0.043 SA
ENDBRANCH  11  14
ENDBRANCH   9  10
BRANCH   1  17
HETATM   17  C2  UNL     1     -18.781  -0.903 -23.708  1.00  0.00     0.031 C
HETATM   18  C1  UNL     1     -19.281   0.218 -22.788  1.00  0.00     0.016 C
HETATM   19  C3  UNL     1     -17.325  -1.190 -23.245  1.00  0.00     0.016 C
ENDBRANCH   1  17
TORSDOF 3
ENDMDL