MODEL 2
REMARK VINA RESULT: -6.111459496      1.430      1.585
REMARK  3 active torsions:
REMARK  status: ('A' for Active; 'I' for Inactive)
REMARK    1  A    between atoms: C2_2  and  C5_15
REMARK    2  A    between atoms: N1_3  and  N2_5
REMARK    3  A    between atoms: N2_5  and  C3_7
ROOT
HETATM    1  N2  UNL     1     -18.501  -2.804 -24.285  1.00  0.00    -0.279 N
ATOM      2  H2  UNL     1     -18.190  -3.651 -23.809  1.00  0.00     0.189 HD
ENDROOT
BRANCH   1   3
HETATM    3  N1  UNL     1     -18.933  -2.840 -25.571  1.00  0.00    -0.306 N
HETATM    4  C2  UNL     1     -18.374  -3.084 -26.663  1.00  0.00     0.007 C
HETATM    5  C1  UNL     1     -19.243  -3.016 -27.894  1.00  0.00     0.066 C
ATOM      6  H1  UNL     1     -19.925  -2.623 -25.667  1.00  0.00     0.186 HD
BRANCH   4   7
HETATM    7  C5  UNL     1     -16.984  -3.423 -26.853  1.00  0.00    -0.012 C
HETATM    8  C6  UNL     1     -16.598  -4.749 -26.216  1.00  0.00     0.021 C
HETATM    9  C7  UNL     1     -16.005  -2.391 -26.373  1.00  0.00     0.021 C
HETATM   10  C8  UNL     1     -16.700  -3.642 -28.356  1.00  0.00     0.021 C
ENDBRANCH   4   7
ENDBRANCH   1   3
BRANCH   1  11
HETATM   11  C3  UNL     1     -18.496  -1.637 -23.674  1.00  0.00     0.180 A
HETATM   12  N3  UNL     1     -18.138  -0.456 -24.171  1.00  0.00    -0.277 N
HETATM   13  N4  UNL     1     -18.198   0.579 -23.421  1.00  0.00    -0.282 N
ATOM     14  H3  UNL     1     -17.819  -0.375 -25.136  1.00  0.00     0.189 HD
HETATM   15  C4  UNL     1     -18.622   0.433 -22.163  1.00  0.00     0.160 A
ATOM     16  H4  UNL     1     -17.929   1.496 -23.776  1.00  0.00     0.188 HD
HETATM   17  S1  UNL     1     -18.798   1.583 -20.988  1.00  0.00    -0.051 SA
HETATM   18  S2  UNL     1     -18.936  -1.239 -22.074  1.00  0.00    -0.020 SA
ENDBRANCH   1  11
TORSDOF 3
ENDMDL