MODEL 1
REMARK VINA RESULT: -8.424589447      0.000      0.000
REMARK  1 active torsions:
REMARK  status: ('A' for Active; 'I' for Inactive)
REMARK    1  A    between atoms: C4_6  and  C5_7
ROOT
HETATM    1  C1  UNL     1     -19.060  -3.276 -26.872  1.00  0.00     0.062 C
HETATM    2  C2  UNL     1     -17.951  -2.998 -25.897  1.00  0.00     0.097 C
HETATM    3  C3  UNL     1     -17.406  -4.314 -25.320  1.00  0.00     0.062 C
HETATM    4  N1  UNL     1     -18.385  -2.222 -24.800  1.00  0.00    -0.369 N
ATOM      5  H1  UNL     1     -18.734  -2.754 -24.001  1.00  0.00     0.161 HD
HETATM    6  C4  UNL     1     -18.405  -0.975 -24.663  1.00  0.00     0.013 C
HETATM    7  C11 UNL     1     -17.915  -0.096 -25.772  1.00  0.00     0.205 C
HETATM    8  C12 UNL     1     -19.013   0.363 -26.624  1.00  0.00     0.077 C
HETATM    9  N2  UNL     1     -19.885   0.724 -27.296  1.00  0.00    -0.196 NA
HETATM   10  C13 UNL     1     -16.955  -0.829 -26.601  1.00  0.00     0.096 C
HETATM   11  N3  UNL     1     -16.178  -0.199 -27.401  1.00  0.00    -0.388 N
ATOM     12  H31 UNL     1     -15.509  -0.709 -27.978  1.00  0.00     0.157 HD
ATOM     13  H32 UNL     1     -16.248   0.818 -27.439  1.00  0.00     0.157 HD
HETATM   14  N4  UNL     1     -16.856  -2.265 -26.546  1.00  0.00    -0.353 N
ATOM     15  H4  UNL     1     -16.054  -2.755 -26.943  1.00  0.00     0.163 HD
ENDROOT
BRANCH   6  16
HETATM   16  C5  UNL     1     -18.913  -0.390 -23.402  1.00  0.00     0.033 C
HETATM   17  C6  UNL     1     -18.040   0.711 -22.901  1.00  0.00     0.010 C
HETATM   18  C7  UNL     1     -18.503   1.255 -21.603  1.00  0.00     0.001 C
HETATM   19  C8  UNL     1     -18.963   0.252 -20.610  1.00  0.00     0.000 C
HETATM   20  C9  UNL     1     -19.824  -0.838 -21.196  1.00  0.00     0.001 C
HETATM   21  C10 UNL     1     -19.001  -1.457 -22.334  1.00  0.00     0.010 C
ENDBRANCH   6  16
TORSDOF 1
ENDMDL