MODEL 1
REMARK VINA RESULT: -5.034011897      0.000      0.000
REMARK  3 active torsions:
REMARK  status: ('A' for Active; 'I' for Inactive)
REMARK    1  A    between atoms: O1_2  and  C2_3
REMARK    2  A    between atoms: C2_3  and  C3_5
REMARK    3  A    between atoms: C7_13  and  C8_14
ROOT
HETATM    1  C3  UNL     1     -16.873  -1.822 -26.051  1.00  0.00     0.172 C
HETATM    2  C4  UNL     1     -17.633  -2.973 -25.489  1.00  0.00     0.062 C
HETATM    3  N1  UNL     1     -17.546  -3.710 -24.500  1.00  0.00    -0.396 N
ATOM      4  H11 UNL     1     -18.066  -4.498 -24.115  1.00  0.00     0.156 HD
ATOM      5  H12 UNL     1     -16.834  -3.667 -23.772  1.00  0.00     0.156 HD
HETATM    6  S1  UNL     1     -18.910  -3.050 -26.795  1.00  0.00    -0.081 SA
HETATM    7  C5  UNL     1     -17.664  -2.727 -28.111  1.00  0.00    -0.015 C
HETATM    8  C6  UNL     1     -17.957  -3.184 -29.451  1.00  0.00     0.056 C
HETATM    9  C7  UNL     1     -16.672  -2.081 -27.522  1.00  0.00    -0.040 C
ENDROOT
BRANCH   1  10
HETATM   10  C2  UNL     1     -17.704  -0.619 -25.794  1.00  0.00     0.273 C
HETATM   11  O2  UNL     1     -18.175  -0.489 -24.608  1.00  0.00    -0.264 OA
BRANCH  10  12
HETATM   12  O1  UNL     1     -18.014   0.362 -26.695  1.00  0.00    -0.326 OA
HETATM   13  C1  UNL     1     -19.331   0.479 -27.187  1.00  0.00     0.213 C
ENDBRANCH  10  12
ENDBRANCH   1  10
BRANCH   9  14
HETATM   14  C8  UNL     1     -15.402  -1.656 -28.213  1.00  0.00    -0.026 C
HETATM   15  C9  UNL     1     -14.483  -1.159 -27.047  1.00  0.00     0.019 C
HETATM   16  C10 UNL     1     -15.530  -0.465 -29.090  1.00  0.00     0.019 C
HETATM   17  C11 UNL     1     -14.577  -2.758 -28.765  1.00  0.00     0.019 C
ENDBRANCH   9  14
TORSDOF 3
ENDMDL