MODEL 3
REMARK VINA RESULT: -7.270826795      2.204      3.458
REMARK  14 active torsions:
REMARK  status: ('A' for Active; 'I' for Inactive)
REMARK    1  A    between atoms: C1_2  and  C2_3
REMARK       I    between atoms: C1_2  and  N1_12
REMARK    2  A    between atoms: C2_3  and  C3_4
REMARK    3  A    between atoms: C3_4  and  C4_5
REMARK    4  A    between atoms: C4_5  and  C5_6
REMARK    5  A    between atoms: C5_6  and  C6_7
REMARK    6  A    between atoms: N1_12  and  C8_14
REMARK    7  A    between atoms: C8_14  and  C9_15
REMARK    8  A    between atoms: C9_15  and  S4_16
REMARK    9  A    between atoms: S4_16  and  C10_17
REMARK   10  A    between atoms: C11_19  and  C12_20
REMARK   11  A    between atoms: C12_20  and  O3_21
REMARK   12  A    between atoms: C13_23  and  O4_24
REMARK   13  A    between atoms: C14_26  and  O5_27
REMARK   14  A    between atoms: C15_29  and  O6_30
ROOT
HETATM    1  S4  UNL     1     -12.900  18.598  27.163  1.00  0.00    -0.133 SA
ENDROOT
BRANCH   1   2
HETATM    2  C9  UNL     1     -12.093  20.131  26.850  1.00  0.00     0.096 C
BRANCH   2   3
HETATM    3  C8  UNL     1     -12.674  21.256  27.664  1.00  0.00     0.133 C
BRANCH   3   4
HETATM    4  N1  UNL     1     -14.078  21.472  27.312  1.00  0.00    -0.360 N
HETATM    5  C1  UNL     1     -15.025  21.706  28.337  1.00  0.00     0.217 C
HETATM    6  O1  UNL     1     -14.650  21.724  29.539  1.00  0.00    -0.274 OA
ATOM      7  H1  UNL     1     -14.372  21.455  26.335  1.00  0.00     0.162 HD
BRANCH   5   8
HETATM    8  C2  UNL     1     -16.458  21.932  28.056  1.00  0.00     0.103 C
BRANCH   8   9
HETATM    9  C3  UNL     1     -16.653  22.416  26.645  1.00  0.00     0.009 C
BRANCH   9  10
HETATM   10  C4  UNL     1     -17.044  21.280  25.718  1.00  0.00     0.002 C
BRANCH  10  11
HETATM   11  C5  UNL     1     -17.677  20.139  26.452  1.00  0.00     0.017 C
BRANCH  11  12
HETATM   12  C6  UNL     1     -18.031  19.045  25.528  1.00  0.00     0.069 C
HETATM   13  C7  UNL     1     -19.456  18.614  25.536  1.00  0.00     0.102 C
HETATM   14  S1  UNL     1     -19.504  17.028  24.595  1.00  0.00    -0.085 SA
HETATM   15  S2  UNL     1     -18.413  17.697  22.854  1.00  0.00    -0.024 SA
HETATM   16  S3  UNL     1     -17.641  19.489  23.781  1.00  0.00    -0.080 SA
ENDBRANCH  11  12
ENDBRANCH  10  11
ENDBRANCH   9  10
ENDBRANCH   8   9
ENDBRANCH   5   8
ENDBRANCH   3   4
ENDBRANCH   2   3
ENDBRANCH   1   2
BRANCH   1  17
HETATM   17  C10 UNL     1     -12.828  17.876  28.764  1.00  0.00     0.214 C
HETATM   18  O2  UNL     1     -11.649  18.114  29.489  1.00  0.00    -0.363 OA
HETATM   19  C11 UNL     1     -11.456  17.075  30.390  1.00  0.00     0.178 C
HETATM   20  C13 UNL     1     -12.643  16.245  30.710  1.00  0.00     0.180 C
HETATM   21  C14 UNL     1     -13.977  16.899  30.644  1.00  0.00     0.181 C
HETATM   22  C15 UNL     1     -13.968  18.116  29.702  1.00  0.00     0.188 C
BRANCH  19  23
HETATM   23  C12 UNL     1     -10.802  17.660  31.628  1.00  0.00     0.198 C
BRANCH  23  24
HETATM   24  O3  UNL     1      -9.614  16.958  31.879  1.00  0.00    -0.398 OA
ATOM     25  H3  UNL     1      -9.822  16.184  32.389  1.00  0.00     0.209 HD
ENDBRANCH  23  24
ENDBRANCH  19  23
BRANCH  20  26
HETATM   26  O4  UNL     1     -12.475  15.759  32.035  1.00  0.00    -0.390 OA
ATOM     27  H4  UNL     1     -12.209  14.849  31.972  1.00  0.00     0.210 HD
ENDBRANCH  20  26
BRANCH  21  28
HETATM   28  O5  UNL     1     -14.913  15.982  30.184  1.00  0.00    -0.390 OA
ATOM     29  H5  UNL     1     -15.762  16.405  30.123  1.00  0.00     0.210 HD
ENDBRANCH  21  28
BRANCH  22  30
HETATM   30  O6  UNL     1     -13.734  19.196  30.561  1.00  0.00    -0.389 OA
ATOM     31  H6  UNL     1     -13.571  20.004  30.090  1.00  0.00     0.210 HD
ENDBRANCH  22  30
ENDBRANCH   1  17
TORSDOF 14
ENDMDL