MODEL 3
REMARK VINA RESULT: -7.503224733      2.004      3.412
REMARK  14 active torsions:
REMARK  status: ('A' for Active; 'I' for Inactive)
REMARK    1  A    between atoms: C2_2  and  O2_4
REMARK    2  A    between atoms: O2_4  and  C3_5
REMARK    3  A    between atoms: C3_5  and  C4_6
REMARK    4  A    between atoms: N1_8  and  O3_10
REMARK    5  A    between atoms: C7_13  and  O4_14
REMARK    6  A    between atoms: C8_16  and  O5_18
REMARK    7  A    between atoms: S1_20  and  C10_22
REMARK    8  A    between atoms: C10_22  and  C11_23
REMARK    9  A    between atoms: C11_23  and  O7_24
REMARK   10  A    between atoms: O7_24  and  C12_25
REMARK   11  A    between atoms: C12_25  and  O8_26
REMARK   12  A    between atoms: O8_26  and  C13_27
REMARK   13  A    between atoms: C13_27  and  C14_28
REMARK   14  A    between atoms: C14_28  and  O9_29
ROOT
HETATM    1  C3  UNL     1     -13.105  21.059  27.348  1.00  0.00     0.131 C
HETATM    2  C6  UNL     1     -13.863  20.794  26.089  1.00  0.00     0.082 C
HETATM    3  C7  UNL     1     -13.938  19.380  25.671  1.00  0.00     0.167 C
HETATM    4  C8  UNL     1     -14.773  18.499  26.526  1.00  0.00     0.146 C
HETATM    5  C9  UNL     1     -16.208  18.890  26.620  1.00  0.00     0.062 C
HETATM    6  S1  UNL     1     -13.983  18.507  28.338  1.00  0.00    -0.006 S
HETATM    7  O6  UNL     1     -12.058  17.797  28.207  1.00  0.00    -0.266 OA
HETATM    8  C15 UNL     1     -13.787  20.561  28.577  1.00  0.00     0.067 C
HETATM    9  C16 UNL     1     -12.914  20.655  29.802  1.00  0.00     0.026 C
HETATM   10  C17 UNL     1     -13.591  21.737  30.646  1.00  0.00     0.002 C
HETATM   11  C18 UNL     1     -15.060  21.634  30.275  1.00  0.00     0.002 C
HETATM   12  C19 UNL     1     -15.123  21.086  28.893  1.00  0.00     0.026 C
ENDROOT
BRANCH   1  13
HETATM   13  O2  UNL     1     -11.846  20.351  27.341  1.00  0.00    -0.302 OA
BRANCH  13  14
HETATM   14  C2  UNL     1     -10.949  20.337  26.315  1.00  0.00     0.256 C
HETATM   15  C1  UNL     1     -10.613  19.078  25.567  1.00  0.00     0.126 C
HETATM   16  O1  UNL     1     -10.397  21.427  26.010  1.00  0.00    -0.266 OA
ENDBRANCH  13  14
ENDBRANCH   1  13
BRANCH   1  17
HETATM   17  C4  UNL     1     -12.865  22.511  27.451  1.00  0.00     0.043 C
HETATM   18  C5  UNL     1     -11.973  23.166  28.439  1.00  0.00     0.069 C
HETATM   19  N1  UNL     1     -13.451  23.327  26.593  1.00  0.00    -0.275 N
ATOM     20  H1  UNL     1     -14.058  22.920  25.881  1.00  0.00     0.193 HD
BRANCH  19  21
HETATM   21  O3  UNL     1     -13.296  24.667  26.603  1.00  0.00    -0.290 OA
ATOM     22  H3  UNL     1     -12.638  25.121  27.117  1.00  0.00     0.244 HD
ENDBRANCH  19  21
ENDBRANCH   1  17
BRANCH   3  23
HETATM   23  O4  UNL     1     -14.454  19.336  24.364  1.00  0.00    -0.392 OA
ATOM     24  H4  UNL     1     -15.375  19.107  24.415  1.00  0.00     0.210 HD
ENDBRANCH   3  23
BRANCH   6  25
HETATM   25  C10 UNL     1     -14.850  17.600  29.858  1.00  0.00     0.126 C
BRANCH  25  26
HETATM   26  C11 UNL     1     -14.696  16.125  29.706  1.00  0.00     0.182 C
BRANCH  26  27
HETATM   27  O7  UNL     1     -13.614  15.637  30.435  1.00  0.00    -0.366 OA
BRANCH  27  28
HETATM   28  C12 UNL     1     -13.492  16.445  31.608  1.00  0.00     0.337 C
BRANCH  28  29
HETATM   29  O8  UNL     1     -12.214  16.271  32.038  1.00  0.00    -0.365 OA
BRANCH  29  30
HETATM   30  C13 UNL     1     -11.258  17.161  31.694  1.00  0.00     0.196 C
BRANCH  30  31
HETATM   31  C14 UNL     1     -10.251  16.738  30.689  1.00  0.00     0.190 C
BRANCH  31  32
HETATM   32  O9  UNL     1     -10.697  15.753  29.828  1.00  0.00    -0.399 OA
ATOM     33  H9  UNL     1     -10.079  15.534  29.140  1.00  0.00     0.209 HD
ENDBRANCH  31  32
ENDBRANCH  30  31
ENDBRANCH  29  30
ENDBRANCH  28  29
ENDBRANCH  27  28
ENDBRANCH  26  27
ENDBRANCH  25  26
ENDBRANCH   6  25
BRANCH   4  34
HETATM   34  O5  UNL     1     -14.698  17.194  26.037  1.00  0.00    -0.376 OA
ATOM     35  H5  UNL     1     -14.011  17.151  25.383  1.00  0.00     0.211 HD
ENDBRANCH   4  34
TORSDOF 14
ENDMDL