MODEL 3
REMARK VINA RESULT: -7.638095300      0.908      1.001
REMARK  14 active torsions:
REMARK  status: ('A' for Active; 'I' for Inactive)
REMARK    1  A    between atoms: C2_2  and  O1_3
REMARK    2  A    between atoms: O1_3  and  C3_4
REMARK    3  A    between atoms: C3_4  and  C4_6
REMARK    4  A    between atoms: C4_6  and  C5_7
REMARK    5  A    between atoms: C5_7  and  C6_8
REMARK    6  A    between atoms: C6_8  and  C7_9
REMARK    7  A    between atoms: C9_11  and  C10_12
REMARK    8  A    between atoms: C13_18  and  C14_19
REMARK    9  A    between atoms: C14_19  and  O6_20
REMARK   10  A    between atoms: N1_23  and  C16_25
REMARK   11  A    between atoms: C17_27  and  C18_28
REMARK   12  A    between atoms: C18_28  and  C19_29
REMARK   13  A    between atoms: C20_33  and  O8_34
REMARK   14  A    between atoms: C21_36  and  O9_37
ROOT
HETATM    1  C7  UNL     1     -14.402  19.456  29.157  1.00  0.00     0.130 C
HETATM    2  C8  UNL     1     -13.338  20.544  29.019  1.00  0.00     0.064 C
HETATM    3  C9  UNL     1     -12.665  20.294  27.692  1.00  0.00     0.130 C
HETATM    4  O3  UNL     1     -13.562  20.022  26.703  1.00  0.00    -0.322 OA
HETATM    5  C12 UNL     1     -14.886  20.165  27.000  1.00  0.00     0.329 C
HETATM    6  O4  UNL     1     -15.333  19.678  28.185  1.00  0.00    -0.322 OA
HETATM    7  O5  UNL     1     -15.288  21.488  26.691  1.00  0.00    -0.314 OA
HETATM    8  C13 UNL     1     -15.223  21.072  25.361  1.00  0.00     0.205 C
HETATM    9  C15 UNL     1     -15.717  19.766  25.802  1.00  0.00     0.109 C
HETATM   10  N1  UNL     1     -16.398  18.743  25.570  1.00  0.00    -0.359 N
ATOM     11  H1  UNL     1     -16.405  18.042  26.311  1.00  0.00     0.162 HD
ENDROOT
BRANCH   8  12
HETATM   12  C14 UNL     1     -16.069  21.843  24.401  1.00  0.00     0.202 C
BRANCH  12  13
HETATM   13  O6  UNL     1     -15.292  22.912  23.925  1.00  0.00    -0.398 OA
ATOM     14  H6  UNL     1     -14.928  23.356  24.682  1.00  0.00     0.209 HD
ENDBRANCH  12  13
ENDBRANCH   8  12
BRANCH  10  15
HETATM   15  C16 UNL     1     -17.153  18.427  24.433  1.00  0.00     0.253 C
HETATM   16  O7  UNL     1     -17.711  17.150  24.569  1.00  0.00    -0.356 OA
HETATM   17  C17 UNL     1     -18.793  17.071  23.736  1.00  0.00     0.160 C
HETATM   18  C20 UNL     1     -19.144  18.442  23.256  1.00  0.00     0.180 C
HETATM   19  C21 UNL     1     -18.387  19.287  24.262  1.00  0.00     0.198 C
BRANCH  17  20
HETATM   20  C18 UNL     1     -19.972  16.542  24.548  1.00  0.00     0.078 C
BRANCH  20  21
HETATM   21  C19 UNL     1     -20.751  15.565  23.746  1.00  0.00     0.055 C
HETATM   22  N2  UNL     1     -21.238  14.558  24.361  1.00  0.00    -0.411 N
ATOM     23  H22 UNL     1     -21.089  14.443  25.364  1.00  0.00     0.155 HD
ATOM     24  H21 UNL     1     -21.774  13.887  23.810  1.00  0.00     0.155 HD
ENDBRANCH  20  21
ENDBRANCH  17  20
BRANCH  18  25
HETATM   25  O8  UNL     1     -20.500  18.708  23.260  1.00  0.00    -0.390 OA
ATOM     26  H8  UNL     1     -20.999  18.176  22.651  1.00  0.00     0.210 HD
ENDBRANCH  18  25
BRANCH  19  27
HETATM   27  O9  UNL     1     -19.093  19.410  25.442  1.00  0.00    -0.389 OA
ATOM     28  H9  UNL     1     -18.686  18.922  26.148  1.00  0.00     0.210 HD
ENDBRANCH  19  27
ENDBRANCH  10  15
BRANCH   3  29
HETATM   29  C10 UNL     1     -11.671  21.378  27.364  1.00  0.00     0.028 C
HETATM   30  C11 UNL     1     -12.174  22.760  27.627  1.00  0.00     0.007 C
ENDBRANCH   3  29
BRANCH   1  31
HETATM   31  C6  UNL     1     -13.819  18.087  29.069  1.00  0.00     0.033 C
BRANCH  31  32
HETATM   32  C5  UNL     1     -14.649  17.035  29.720  1.00  0.00     0.012 C
BRANCH  32  33
HETATM   33  C4  UNL     1     -13.822  15.939  30.367  1.00  0.00     0.111 C
BRANCH  33  34
HETATM   34  C3  UNL     1     -13.186  16.466  31.606  1.00  0.00     0.258 C
HETATM   35  O2  UNL     1     -13.873  17.126  32.428  1.00  0.00    -0.265 OA
BRANCH  34  36
HETATM   36  O1  UNL     1     -11.844  16.226  31.846  1.00  0.00    -0.322 OA
BRANCH  36  37
HETATM   37  C2  UNL     1     -10.878  17.203  31.445  1.00  0.00     0.174 C
HETATM   38  C1  UNL     1     -10.397  16.910  30.047  1.00  0.00     0.034 C
ENDBRANCH  36  37
ENDBRANCH  34  36
ENDBRANCH  33  34
ENDBRANCH  32  33
ENDBRANCH  31  32
ENDBRANCH   1  31
TORSDOF 14
ENDMDL