MODEL 3
REMARK VINA RESULT: -8.541887322      1.437      1.945
REMARK  16 active torsions:
REMARK  status: ('A' for Active; 'I' for Inactive)
REMARK    1  A    between atoms: C2_2  and  C3_3
REMARK    2  A    between atoms: C3_3  and  O2_5
REMARK    3  A    between atoms: O2_5  and  C4_6
REMARK    4  A    between atoms: C5_7  and  N1_8
REMARK    5  A    between atoms: C8_15  and  O4_16
REMARK    6  A    between atoms: O4_16  and  C9_17
REMARK    7  A    between atoms: C10_19  and  C11_20
REMARK    8  A    between atoms: C11_20  and  O6_21
REMARK    9  A    between atoms: C12_23  and  O7_24
REMARK   10  A    between atoms: C13_26  and  O8_27
REMARK   11  A    between atoms: C14_29  and  O9_30
REMARK   12  A    between atoms: C15_32  and  C16_33
REMARK   13  A    between atoms: C16_33  and  C17_34
REMARK   14  A    between atoms: C18_35  and  C19_36
REMARK   15  A    between atoms: C19_36  and  C20_37
REMARK   16  A    between atoms: C20_37  and  C21_38
ROOT
HETATM    1  C4  UNL     1     -14.663  21.276  26.678  1.00  0.00     0.174 C
HETATM    2  C5  UNL     1     -15.076  21.906  27.978  1.00  0.00     0.241 C
HETATM    3  C6  UNL     1     -14.576  21.255  29.213  1.00  0.00     0.153 C
HETATM    4  C7  UNL     1     -15.230  21.854  30.421  1.00  0.00     0.042 C
HETATM    5  O3  UNL     1     -14.859  19.904  29.164  1.00  0.00    -0.354 OA
HETATM    6  C8  UNL     1     -14.041  19.376  28.138  1.00  0.00     0.270 C
HETATM    7  C15 UNL     1     -14.529  19.756  26.794  1.00  0.00     0.076 C
ENDROOT
BRANCH   6   8
HETATM    8  O4  UNL     1     -13.835  18.050  28.405  1.00  0.00    -0.328 OA
BRANCH   8   9
HETATM    9  C9  UNL     1     -12.870  17.907  29.372  1.00  0.00     0.294 C
HETATM   10  O5  UNL     1     -11.658  17.635  28.713  1.00  0.00    -0.348 OA
HETATM   11  C10 UNL     1     -10.577  17.634  29.560  1.00  0.00     0.179 C
HETATM   12  C12 UNL     1     -10.712  16.491  30.549  1.00  0.00     0.180 C
HETATM   13  C13 UNL     1     -11.993  16.739  31.324  1.00  0.00     0.183 C
HETATM   14  C14 UNL     1     -13.123  16.769  30.317  1.00  0.00     0.204 C
BRANCH  11  15
HETATM   15  C11 UNL     1      -9.340  17.385  28.746  1.00  0.00     0.198 C
BRANCH  15  16
HETATM   16  O6  UNL     1      -9.416  18.148  27.588  1.00  0.00    -0.398 OA
ATOM     17  H6  UNL     1      -8.572  18.560  27.445  1.00  0.00     0.209 HD
ENDBRANCH  15  16
ENDBRANCH  11  15
BRANCH  12  18
HETATM   18  O7  UNL     1      -9.669  16.473  31.451  1.00  0.00    -0.390 OA
ATOM     19  H7  UNL     1      -9.486  15.593  31.758  1.00  0.00     0.210 HD
ENDBRANCH  12  18
BRANCH  13  20
HETATM   20  O8  UNL     1     -12.253  15.745  32.252  1.00  0.00    -0.390 OA
ATOM     21  H8  UNL     1     -13.176  15.524  32.300  1.00  0.00     0.210 HD
ENDBRANCH  13  20
BRANCH  14  22
HETATM   22  O9  UNL     1     -13.155  15.538  29.678  1.00  0.00    -0.388 OA
ATOM     23  H9  UNL     1     -12.696  14.861  30.160  1.00  0.00     0.210 HD
ENDBRANCH  14  22
ENDBRANCH   8   9
ENDBRANCH   6   8
BRANCH   7  24
HETATM   24  C16 UNL     1     -15.848  19.111  26.454  1.00  0.00     0.039 C
BRANCH  24  25
HETATM   25  C17 UNL     1     -15.929  18.363  25.217  1.00  0.00    -0.030 C
HETATM   26  C18 UNL     1     -16.781  18.598  24.263  1.00  0.00    -0.031 C
BRANCH  26  27
HETATM   27  C19 UNL     1     -17.821  19.615  24.183  1.00  0.00     0.027 C
BRANCH  27  28
HETATM   28  C20 UNL     1     -18.965  19.130  23.307  1.00  0.00     0.003 C
BRANCH  28  29
HETATM   29  C21 UNL     1     -18.923  17.625  23.156  1.00  0.00    -0.004 C
HETATM   30  C22 UNL     1     -19.398  17.169  21.807  1.00  0.00     0.005 C
ENDBRANCH  28  29
ENDBRANCH  27  28
ENDBRANCH  26  27
ENDBRANCH  24  25
ENDBRANCH   7  24
BRANCH   1  31
HETATM   31  O2  UNL     1     -13.522  21.876  26.103  1.00  0.00    -0.310 OA
BRANCH  31  32
HETATM   32  C3  UNL     1     -13.571  22.848  25.116  1.00  0.00     0.282 C
HETATM   33  O1  UNL     1     -12.832  23.852  25.295  1.00  0.00    -0.260 OA
BRANCH  32  34
HETATM   34  C2  UNL     1     -14.405  22.750  23.940  1.00  0.00     0.072 C
HETATM   35  C1  UNL     1     -15.663  22.397  24.055  1.00  0.00     0.017 C
ENDBRANCH  32  34
ENDBRANCH  31  32
ENDBRANCH   1  31
BRANCH   2  36
HETATM   36  N1  UNL     1     -16.518  22.043  28.091  1.00  0.00    -0.070 N
ATOM     37  H13 UNL     1     -16.897  22.596  27.322  1.00  0.00     0.274 HD
ATOM     38  H12 UNL     1     -16.988  21.157  27.901  1.00  0.00     0.274 HD
ATOM     39  H11 UNL     1     -16.802  22.424  28.993  1.00  0.00     0.274 HD
ENDBRANCH   2  36
TORSDOF 16
ENDMDL