MODEL 5
REMARK VINA RESULT: -6.973468897      2.069      2.921
REMARK  15 active torsions:
REMARK  status: ('A' for Active; 'I' for Inactive)
REMARK    1  A    between atoms: C3_3  and  C4_4
REMARK    2  A    between atoms: C4_4  and  O1_5
REMARK    3  A    between atoms: C5_7  and  O2_8
REMARK    4  A    between atoms: C6_10  and  O3_11
REMARK    5  A    between atoms: C7_13  and  O4_14
REMARK    6  A    between atoms: C8_16  and  O5_17
REMARK    7  A    between atoms: O5_17  and  C9_18
REMARK    8  A    between atoms: C10_19  and  O6_20
REMARK    9  A    between atoms: C13_23  and  C14_24
REMARK   10  A    between atoms: C14_24  and  C15_25
REMARK   11  A    between atoms: C15_25  and  C16_26
REMARK   12  A    between atoms: C16_26  and  O7_27
REMARK   13  A    between atoms: C17_29  and  O8_30
REMARK   14  A    between atoms: C19_32  and  O9_33
REMARK   15  A    between atoms: C21_35  and  O10_36
ROOT
HETATM    1  C4  UNL     1     -14.722  21.182  26.628  1.00  0.00     0.132 C
HETATM    2  C5  UNL     1     -15.135  22.365  25.817  1.00  0.00     0.190 C
HETATM    3  C6  UNL     1     -15.611  21.981  24.439  1.00  0.00     0.181 C
HETATM    4  C7  UNL     1     -16.236  20.623  24.385  1.00  0.00     0.181 C
HETATM    5  C8  UNL     1     -16.886  20.221  25.725  1.00  0.00     0.192 C
HETATM    6  C21 UNL     1     -15.911  20.272  26.841  1.00  0.00     0.193 C
ENDROOT
BRANCH   5   7
HETATM    7  O5  UNL     1     -17.624  19.043  25.627  1.00  0.00    -0.335 OA
BRANCH   7   8
HETATM    8  C9  UNL     1     -18.941  18.845  25.362  1.00  0.00     0.139 A
HETATM    9  C10 UNL     1     -19.839  18.800  26.409  1.00  0.00     0.105 A
HETATM   10  C12 UNL     1     -21.172  18.601  26.231  1.00  0.00     0.054 A
HETATM   11  C13 UNL     1     -21.735  18.427  24.964  1.00  0.00     0.003 A
HETATM   12  C17 UNL     1     -20.864  18.465  23.902  1.00  0.00     0.114 A
HETATM   13  C19 UNL     1     -19.487  18.674  24.117  1.00  0.00     0.138 A
BRANCH   9  14
HETATM   14  O6  UNL     1     -19.368  18.966  27.685  1.00  0.00    -0.353 OA
HETATM   15  C11 UNL     1     -20.252  18.911  28.780  1.00  0.00     0.210 C
ENDBRANCH   9  14
BRANCH  11  16
HETATM   16  C14 UNL     1     -23.136  18.120  24.902  1.00  0.00     0.016 C
BRANCH  16  17
HETATM   17  C15 UNL     1     -24.207  18.510  25.425  1.00  0.00     0.025 C
BRANCH  17  18
HETATM   18  C16 UNL     1     -24.905  18.660  26.679  1.00  0.00     0.131 C
BRANCH  18  19
HETATM   19  O7  UNL     1     -24.272  18.828  27.848  1.00  0.00    -0.373 OA
ATOM     20  H7  UNL     1     -24.653  19.304  28.577  1.00  0.00     0.216 HD
ENDBRANCH  18  19
ENDBRANCH  17  18
ENDBRANCH  16  17
ENDBRANCH  11  16
BRANCH  12  21
HETATM   21  O8  UNL     1     -21.277  18.290  22.590  1.00  0.00    -0.352 OA
HETATM   22  C18 UNL     1     -21.497  16.949  22.144  1.00  0.00     0.210 C
ENDBRANCH  12  21
BRANCH  13  23
HETATM   23  O9  UNL     1     -18.706  18.700  22.978  1.00  0.00    -0.351 OA
HETATM   24  C20 UNL     1     -17.954  17.502  22.713  1.00  0.00     0.210 C
ENDBRANCH  13  23
ENDBRANCH   7   8
ENDBRANCH   5   7
BRANCH   4  25
HETATM   25  O4  UNL     1     -15.313  19.722  23.936  1.00  0.00    -0.390 OA
ATOM     26  H4  UNL     1     -14.702  19.525  24.636  1.00  0.00     0.210 HD
ENDBRANCH   4  25
BRANCH   6  27
HETATM   27  O10 UNL     1     -15.398  19.061  27.244  1.00  0.00    -0.385 OA
HETATM   28  C22 UNL     1     -15.353  18.838  28.591  1.00  0.00     0.202 C
ENDBRANCH   6  27
BRANCH   3  29
HETATM   29  O3  UNL     1     -16.435  22.994  23.899  1.00  0.00    -0.390 OA
ATOM     30  H3  UNL     1     -16.688  22.778  23.009  1.00  0.00     0.210 HD
ENDBRANCH   3  29
BRANCH   1  31
HETATM   31  C3  UNL     1     -14.313  21.690  27.967  1.00  0.00     0.011 C
HETATM   32  C2  UNL     1     -13.064  21.940  28.262  1.00  0.00    -0.032 C
HETATM   33  C1  UNL     1     -12.664  22.446  29.596  1.00  0.00     0.036 C
ENDBRANCH   1  31
BRANCH   1  34
HETATM   34  O1  UNL     1     -13.613  20.526  26.117  1.00  0.00    -0.380 OA
ATOM     35  H1  UNL     1     -13.402  20.969  25.304  1.00  0.00     0.211 HD
ENDBRANCH   1  34
BRANCH   2  36
HETATM   36  O2  UNL     1     -16.187  23.022  26.454  1.00  0.00    -0.389 OA
ATOM     37  H2  UNL     1     -16.940  23.049  25.877  1.00  0.00     0.210 HD
ENDBRANCH   2  36
TORSDOF 15
ENDMDL