MODEL 5
REMARK VINA RESULT: -7.995145332      2.074      7.359
REMARK  14 active torsions:
REMARK  status: ('A' for Active; 'I' for Inactive)
REMARK    1  A    between atoms: C1_2  and  C2_3
REMARK    2  A    between atoms: C1_2  and  O4_17
REMARK    3  A    between atoms: C2_3  and  C3_4
REMARK    4  A    between atoms: C3_4  and  C4_5
REMARK    5  A    between atoms: C4_5  and  C5_6
REMARK    6  A    between atoms: C5_6  and  C6_7
REMARK    7  A    between atoms: C12_14  and  O3_15
REMARK    8  A    between atoms: O4_17  and  C13_18
REMARK    9  A    between atoms: C13_18  and  C14_19
REMARK   10  A    between atoms: C14_19  and  S1_20
REMARK   11  A    between atoms: S1_20  and  C15_21
REMARK   12  A    between atoms: C16_22  and  O5_23
REMARK   13  A    between atoms: C17_25  and  O6_26
REMARK   14  A    between atoms: C21_33  and  O9_34
ROOT
HETATM    1  C13 UNL     1     -14.231  18.067  26.644  1.00  0.00     0.189 C
ENDROOT
BRANCH   1   2
HETATM    2  O4  UNL     1     -15.080  17.578  25.654  1.00  0.00    -0.321 OA
BRANCH   2   3
HETATM    3  C1  UNL     1     -16.051  18.306  24.973  1.00  0.00     0.258 C
HETATM    4  O1  UNL     1     -17.227  17.942  25.140  1.00  0.00    -0.265 OA
BRANCH   3   5
HETATM    5  C2  UNL     1     -15.729  19.443  24.098  1.00  0.00     0.111 C
BRANCH   5   6
HETATM    6  C3  UNL     1     -16.699  20.557  24.277  1.00  0.00     0.010 C
BRANCH   6   7
HETATM    7  C4  UNL     1     -16.109  21.872  24.698  1.00  0.00     0.001 C
BRANCH   7   8
HETATM    8  C5  UNL     1     -14.839  21.689  25.463  1.00  0.00     0.012 C
BRANCH   8   9
HETATM    9  C6  UNL     1     -14.609  22.805  26.437  1.00  0.00     0.050 C
HETATM   10  C7  UNL     1     -14.662  22.302  27.811  1.00  0.00    -0.021 A
HETATM   11  C8  UNL     1     -15.546  21.943  28.826  1.00  0.00     0.149 A
HETATM   12  C10 UNL     1     -13.399  22.107  28.322  1.00  0.00    -0.025 A
HETATM   13  O2  UNL     1     -14.828  21.566  29.851  1.00  0.00    -0.334 OA
HETATM   14  C9  UNL     1     -13.546  21.646  29.601  1.00  0.00     0.149 A
HETATM   15  C11 UNL     1     -12.382  22.474  27.295  1.00  0.00     0.073 C
HETATM   16  C12 UNL     1     -13.174  23.332  26.324  1.00  0.00     0.131 C
BRANCH  16  17
HETATM   17  O3  UNL     1     -13.145  24.654  26.701  1.00  0.00    -0.395 OA
ATOM     18  H3  UNL     1     -12.295  24.855  27.074  1.00  0.00     0.210 HD
ENDBRANCH  16  17
ENDBRANCH   8   9
ENDBRANCH   7   8
ENDBRANCH   6   7
ENDBRANCH   5   6
ENDBRANCH   3   5
ENDBRANCH   2   3
ENDBRANCH   1   2
BRANCH   1  19
HETATM   19  C14 UNL     1     -14.922  18.643  27.846  1.00  0.00     0.101 C
BRANCH  19  20
HETATM   20  S1  UNL     1     -14.463  17.621  29.294  1.00  0.00    -0.157 SA
BRANCH  20  21
HETATM   21  C15 UNL     1     -12.684  17.928  29.567  1.00  0.00     0.110 C
HETATM   22  C16 UNL     1     -11.942  16.727  29.100  1.00  0.00     0.165 C
HETATM   23  C17 UNL     1     -10.498  16.684  29.604  1.00  0.00     0.179 C
HETATM   24  C18 UNL     1     -10.562  16.835  31.083  1.00  0.00     0.187 C
HETATM   25  O7  UNL     1      -9.364  16.864  31.741  1.00  0.00    -0.356 OA
HETATM   26  C20 UNL     1     -11.046  18.274  31.334  1.00  0.00     0.185 C
HETATM   27  C19 UNL     1      -9.678  17.538  32.932  1.00  0.00     0.339 C
HETATM   28  O8  UNL     1     -10.728  18.401  32.661  1.00  0.00    -0.356 OA
HETATM   29  C21 UNL     1     -12.497  18.283  31.006  1.00  0.00     0.166 C
BRANCH  22  30
HETATM   30  O5  UNL     1     -12.534  15.539  29.569  1.00  0.00    -0.392 OA
ATOM     31  H5  UNL     1     -12.923  15.041  28.861  1.00  0.00     0.210 HD
ENDBRANCH  22  30
BRANCH  23  32
HETATM   32  O6  UNL     1      -9.851  17.780  29.042  1.00  0.00    -0.390 OA
ATOM     33  H6  UNL     1      -9.863  17.646  28.101  1.00  0.00     0.210 HD
ENDBRANCH  23  32
BRANCH  29  34
HETATM   34  O9  UNL     1     -13.181  17.473  31.888  1.00  0.00    -0.392 OA
ATOM     35  H9  UNL     1     -12.840  16.588  31.956  1.00  0.00     0.210 HD
ENDBRANCH  29  34
ENDBRANCH  20  21
ENDBRANCH  19  20
ENDBRANCH   1  19
TORSDOF 14
ENDMDL