MODEL 2
REMARK VINA RESULT: -8.403676201      4.249      6.715
REMARK  14 active torsions:
REMARK  status: ('A' for Active; 'I' for Inactive)
REMARK    1  A    between atoms: C2_2  and  C3_3
REMARK    2  A    between atoms: C3_3  and  C4_4
REMARK    3  A    between atoms: C4_4  and  C5_5
REMARK    4  A    between atoms: C5_5  and  C6_6
REMARK    5  A    between atoms: C6_6  and  N1_7
REMARK    6  A    between atoms: N1_7  and  C7_9
REMARK    7  A    between atoms: C9_13  and  C10_14
REMARK    8  A    between atoms: C12_16  and  O1_17
REMARK    9  A    between atoms: C13_19  and  C14_20
REMARK   10  A    between atoms: C14_20  and  O2_21
REMARK   11  A    between atoms: O2_21  and  C15_22
REMARK   12  A    between atoms: C18_27  and  O4_28
REMARK   13  A    between atoms: C19_30  and  O5_31
REMARK   14  A    between atoms: C20_33  and  O6_34
ROOT
HETATM    1  C15 UNL     1     -13.355  18.703  29.974  1.00  0.00     0.292 C
HETATM    2  O3  UNL     1     -12.441  18.619  31.026  1.00  0.00    -0.336 OA
HETATM    3  C16 UNL     1     -11.450  17.685  30.750  1.00  0.00     0.262 C
HETATM    4  C17 UNL     1     -10.611  17.573  31.951  1.00  0.00     0.094 C
HETATM    5  N3  UNL     1      -9.944  17.484  32.910  1.00  0.00    -0.194 NA
HETATM    6  C18 UNL     1     -11.967  16.330  30.418  1.00  0.00     0.192 C
HETATM    7  C19 UNL     1     -13.186  16.320  29.552  1.00  0.00     0.183 C
HETATM    8  C20 UNL     1     -14.142  17.411  29.989  1.00  0.00     0.204 C
ENDROOT
BRANCH   6   9
HETATM    9  O4  UNL     1     -10.956  15.644  29.710  1.00  0.00    -0.389 OA
ATOM     10  H4  UNL     1     -11.150  14.716  29.753  1.00  0.00     0.210 HD
ENDBRANCH   6   9
BRANCH   1  11
HETATM   11  O2  UNL     1     -14.141  19.811  30.187  1.00  0.00    -0.356 OA
BRANCH  11  12
HETATM   12  C14 UNL     1     -13.722  20.953  29.529  1.00  0.00     0.205 C
BRANCH  12  13
HETATM   13  C13 UNL     1     -13.179  20.475  28.175  1.00  0.00     0.175 C
HETATM   14  C12 UNL     1     -12.635  21.586  27.346  1.00  0.00     0.152 C
HETATM   15  C11 UNL     1     -13.535  21.507  26.104  1.00  0.00     0.072 C
HETATM   16  C10 UNL     1     -14.767  20.901  26.731  1.00  0.00     0.166 C
HETATM   17  O7  UNL     1     -14.255  19.895  27.512  1.00  0.00    -0.371 OA
BRANCH  14  18
HETATM   18  O1  UNL     1     -12.754  22.833  27.952  1.00  0.00    -0.393 OA
ATOM     19  H1  UNL     1     -11.948  23.062  28.398  1.00  0.00     0.210 HD
ENDBRANCH  14  18
BRANCH  16  20
HETATM   20  C9  UNL     1     -15.664  20.381  25.654  1.00  0.00     0.030 A
HETATM   21  C8  UNL     1     -16.655  21.059  25.006  1.00  0.00     0.107 A
HETATM   22  N2  UNL     1     -17.337  20.429  24.090  1.00  0.00    -0.346 N
HETATM   23  C7  UNL     1     -17.053  19.164  23.818  1.00  0.00     0.144 A
ATOM     24  H2  UNL     1     -18.086  20.907  23.587  1.00  0.00     0.167 HD
HETATM   25  S1  UNL     1     -15.747  18.847  24.919  1.00  0.00    -0.055 SA
BRANCH  23  26
HETATM   26  N1  UNL     1     -17.568  18.325  22.971  1.00  0.00    -0.370 N
ATOM     27  H1  UNL     1     -17.026  17.947  22.194  1.00  0.00     0.161 HD
BRANCH  26  28
HETATM   28  C6  UNL     1     -18.983  17.944  23.191  1.00  0.00     0.121 C
BRANCH  28  29
HETATM   29  C5  UNL     1     -19.116  17.184  24.445  1.00  0.00     0.020 C
BRANCH  29  30
HETATM   30  C4  UNL     1     -20.098  17.539  25.461  1.00  0.00     0.002 C
BRANCH  30  31
HETATM   31  C3  UNL     1     -19.975  18.688  26.361  1.00  0.00    -0.000 C
BRANCH  31  32
HETATM   32  C2  UNL     1     -20.880  18.685  27.526  1.00  0.00    -0.005 C
HETATM   33  C1  UNL     1     -22.353  18.597  27.081  1.00  0.00     0.005 C
ENDBRANCH  31  32
ENDBRANCH  30  31
ENDBRANCH  29  30
ENDBRANCH  28  29
ENDBRANCH  26  28
ENDBRANCH  23  26
ENDBRANCH  16  20
ENDBRANCH  12  13
ENDBRANCH  11  12
ENDBRANCH   1  11
BRANCH   7  34
HETATM   34  O5  UNL     1     -13.828  15.087  29.618  1.00  0.00    -0.390 OA
ATOM     35  H5  UNL     1     -13.772  14.633  28.785  1.00  0.00     0.210 HD
ENDBRANCH   7  34
BRANCH   8  36
HETATM   36  O6  UNL     1     -14.551  17.131  31.306  1.00  0.00    -0.388 OA
ATOM     37  H6  UNL     1     -13.863  16.652  31.752  1.00  0.00     0.210 HD
ENDBRANCH   8  36
TORSDOF 14
ENDMDL