MODEL 3
REMARK VINA RESULT: -7.800230654      1.998      4.902
REMARK  14 active torsions:
REMARK  status: ('A' for Active; 'I' for Inactive)
REMARK    1  A    between atoms: O1_2  and  C2_3
REMARK    2  A    between atoms: C4_5  and  C5_6
REMARK    3  A    between atoms: C6_7  and  C7_8
REMARK    4  A    between atoms: C7_8  and  O2_9
REMARK    5  A    between atoms: C9_12  and  O3_13
REMARK    6  A    between atoms: O3_13  and  C10_14
REMARK    7  A    between atoms: C11_16  and  C12_17
REMARK    8  A    between atoms: C12_17  and  O5_18
REMARK    9  A    between atoms: C13_20  and  O6_21
REMARK   10  A    between atoms: C14_23  and  O7_24
REMARK   11  A    between atoms: O7_24  and  C15_25
REMARK   12  A    between atoms: C18_28  and  O8_29
REMARK   13  A    between atoms: C19_31  and  O9_32
REMARK   14  A    between atoms: C21_35  and  O10_36
ROOT
HETATM    1  C10 UNL     1     -12.743  18.697  27.082  1.00  0.00     0.298 C
HETATM    2  O4  UNL     1     -12.190  18.209  28.266  1.00  0.00    -0.348 OA
HETATM    3  C11 UNL     1     -10.916  17.775  28.032  1.00  0.00     0.179 C
HETATM    4  C13 UNL     1     -10.425  18.840  27.038  1.00  0.00     0.183 C
HETATM    5  C14 UNL     1     -11.586  18.796  26.071  1.00  0.00     0.208 C
ENDROOT
BRANCH   1   6
HETATM    6  O3  UNL     1     -13.779  17.931  26.603  1.00  0.00    -0.315 OA
BRANCH   6   7
HETATM    7  C9  UNL     1     -14.983  18.415  26.189  1.00  0.00     0.109 A
HETATM    8  C8  UNL     1     -15.784  17.928  25.184  1.00  0.00     0.051 A
HETATM    9  C4  UNL     1     -16.999  18.463  24.809  1.00  0.00    -0.031 A
HETATM   10  C3  UNL     1     -17.421  19.592  25.527  1.00  0.00     0.051 A
HETATM   11  C2  UNL     1     -16.685  20.131  26.532  1.00  0.00     0.105 A
HETATM   12  C21 UNL     1     -15.493  19.554  26.854  1.00  0.00     0.135 A
BRANCH   9  13
HETATM   13  C5  UNL     1     -17.830  17.934  23.744  1.00  0.00     0.009 C
HETATM   14  C6  UNL     1     -18.956  18.502  23.392  1.00  0.00    -0.000 C
BRANCH  14  15
HETATM   15  C7  UNL     1     -19.787  17.915  22.275  1.00  0.00     0.191 C
BRANCH  15  16
HETATM   16  O2  UNL     1     -19.005  17.071  21.493  1.00  0.00    -0.397 OA
ATOM     17  H2  UNL     1     -19.012  17.365  20.590  1.00  0.00     0.209 HD
ENDBRANCH  15  16
ENDBRANCH  14  15
ENDBRANCH   9  13
BRANCH  11  18
HETATM   18  O1  UNL     1     -17.136  21.260  27.230  1.00  0.00    -0.353 OA
HETATM   19  C1  UNL     1     -16.887  22.565  26.786  1.00  0.00     0.210 C
ENDBRANCH  11  18
BRANCH  12  20
HETATM   20  O10 UNL     1     -14.746  20.098  27.871  1.00  0.00    -0.351 OA
HETATM   21  C22 UNL     1     -15.041  19.758  29.216  1.00  0.00     0.210 C
ENDBRANCH  12  20
ENDBRANCH   6   7
ENDBRANCH   1   6
BRANCH   5  22
HETATM   22  O7  UNL     1     -11.753  19.935  25.352  1.00  0.00    -0.373 OA
BRANCH  22  23
HETATM   23  C15 UNL     1     -12.324  20.991  26.025  1.00  0.00     0.124 C
HETATM   24  C16 UNL     1     -11.380  21.998  26.574  1.00  0.00     0.034 C
HETATM   25  C17 UNL     1     -12.166  22.948  27.465  1.00  0.00     0.036 C
HETATM   26  C18 UNL     1     -13.373  23.506  26.761  1.00  0.00     0.147 C
HETATM   27  C19 UNL     1     -13.458  23.134  25.317  1.00  0.00     0.149 C
HETATM   28  C20 UNL     1     -13.241  21.695  25.016  1.00  0.00     0.066 C
BRANCH  26  29
HETATM   29  O8  UNL     1     -13.274  24.915  26.827  1.00  0.00    -0.393 OA
ATOM     30  H8  UNL     1     -14.141  25.262  26.650  1.00  0.00     0.210 HD
ENDBRANCH  26  29
BRANCH  27  31
HETATM   31  O9  UNL     1     -12.640  23.966  24.516  1.00  0.00    -0.393 OA
ATOM     32  H9  UNL     1     -13.038  24.137  23.671  1.00  0.00     0.210 HD
ENDBRANCH  27  31
ENDBRANCH  22  23
ENDBRANCH   5  22
BRANCH   3  33
HETATM   33  C12 UNL     1     -10.049  17.753  29.260  1.00  0.00     0.198 C
BRANCH  33  34
HETATM   34  O5  UNL     1      -8.861  17.088  28.918  1.00  0.00    -0.398 OA
ATOM     35  H5  UNL     1      -9.085  16.420  28.282  1.00  0.00     0.209 HD
ENDBRANCH  33  34
ENDBRANCH   3  33
BRANCH   4  36
HETATM   36  O6  UNL     1      -9.224  18.462  26.461  1.00  0.00    -0.390 OA
ATOM     37  H6  UNL     1      -9.287  17.592  26.085  1.00  0.00     0.210 HD
ENDBRANCH   4  36
TORSDOF 14
ENDMDL