MODEL 3
REMARK VINA RESULT: -7.537159302      2.525      5.903
REMARK  16 active torsions:
REMARK  status: ('A' for Active; 'I' for Inactive)
REMARK    1  A    between atoms: C2_2  and  C3_3
REMARK    2  A    between atoms: C3_3  and  C4_4
REMARK    3  A    between atoms: C4_4  and  C5_5
REMARK    4  A    between atoms: C5_5  and  C6_6
REMARK    5  A    between atoms: C7_7  and  C8_8
REMARK    6  A    between atoms: C8_8  and  O1_9
REMARK    7  A    between atoms: O1_9  and  C9_10
REMARK    8  A    between atoms: C11_13  and  O3_14
REMARK    9  A    between atoms: C12_16  and  O4_17
REMARK   10  A    between atoms: C13_19  and  O5_20
REMARK   11  A    between atoms: O5_20  and  C14_21
REMARK   12  A    between atoms: C15_23  and  C16_24
REMARK   13  A    between atoms: C17_25  and  C18_26
REMARK   14  A    between atoms: C20_31  and  O7_32
REMARK   15  A    between atoms: C21_34  and  O8_35
REMARK   16  A    between atoms: C22_37  and  O9_38
ROOT
HETATM    1  O5  UNL     1     -12.672  19.609  29.943  1.00  0.00    -0.348 OA
ENDROOT
BRANCH   1   2
HETATM    2  C13 UNL     1     -13.507  18.522  29.921  1.00  0.00     0.189 C
HETATM    3  C9  UNL     1     -13.209  17.567  28.786  1.00  0.00     0.178 C
HETATM    4  C10 UNL     1     -12.686  16.233  29.267  1.00  0.00     0.205 C
HETATM    5  O2  UNL     1     -11.737  16.403  30.277  1.00  0.00    -0.356 OA
HETATM    6  C11 UNL     1     -12.315  16.884  31.425  1.00  0.00     0.288 C
HETATM    7  C12 UNL     1     -13.513  17.749  31.217  1.00  0.00     0.204 C
BRANCH   3   8
HETATM    8  O1  UNL     1     -14.349  17.319  28.028  1.00  0.00    -0.369 OA
BRANCH   8   9
HETATM    9  C8  UNL     1     -14.211  17.728  26.714  1.00  0.00     0.261 C
BRANCH   9  10
HETATM   10  C7  UNL     1     -15.361  18.471  26.210  1.00  0.00    -0.081 C
HETATM   11  C6  UNL     1     -16.301  19.102  25.803  1.00  0.00    -0.104 C
BRANCH  11  12
HETATM   12  C5  UNL     1     -17.457  19.847  25.306  1.00  0.00     0.094 C
BRANCH  12  13
HETATM   13  C4  UNL     1     -17.433  19.801  23.806  1.00  0.00     0.012 C
BRANCH  13  14
HETATM   14  C3  UNL     1     -17.601  18.393  23.277  1.00  0.00     0.000 C
BRANCH  14  15
HETATM   15  C2  UNL     1     -19.058  18.010  23.163  1.00  0.00    -0.005 C
HETATM   16  C1  UNL     1     -19.334  16.920  24.179  1.00  0.00     0.005 C
ENDBRANCH  14  15
ENDBRANCH  13  14
ENDBRANCH  12  13
ENDBRANCH  11  12
ENDBRANCH   9  10
ENDBRANCH   8   9
ENDBRANCH   3   8
BRANCH   6  17
HETATM   17  O3  UNL     1     -11.364  17.641  32.145  1.00  0.00    -0.369 OA
ATOM     18  H3  UNL     1     -10.590  17.766  31.608  1.00  0.00     0.212 HD
ENDBRANCH   6  17
BRANCH   7  19
HETATM   19  O4  UNL     1     -14.681  16.973  31.236  1.00  0.00    -0.388 OA
ATOM     20  H4  UNL     1     -14.956  16.771  30.349  1.00  0.00     0.210 HD
ENDBRANCH   7  19
ENDBRANCH   1   2
BRANCH   1  21
HETATM   21  C14 UNL     1     -13.318  20.834  29.713  1.00  0.00     0.292 C
HETATM   22  O6  UNL     1     -14.271  20.793  28.752  1.00  0.00    -0.347 OA
HETATM   23  C15 UNL     1     -13.882  21.032  27.441  1.00  0.00     0.179 C
HETATM   24  C20 UNL     1     -12.402  21.310  27.298  1.00  0.00     0.182 C
HETATM   25  C21 UNL     1     -11.908  22.335  28.261  1.00  0.00     0.183 C
HETATM   26  C22 UNL     1     -12.346  21.984  29.638  1.00  0.00     0.204 C
BRANCH  23  27
HETATM   27  C16 UNL     1     -14.576  22.255  26.998  1.00  0.00     0.009 C
HETATM   28  C17 UNL     1     -14.640  22.867  25.883  1.00  0.00     0.022 C
BRANCH  28  29
HETATM   29  C18 UNL     1     -14.064  22.610  24.612  1.00  0.00    -0.002 C
HETATM   30  C19 UNL     1     -14.053  21.324  23.912  1.00  0.00     0.067 C
HETATM   31  N1  UNL     1     -13.470  23.622  23.985  1.00  0.00    -0.403 N
ATOM     32  H12 UNL     1     -13.478  24.518  24.472  1.00  0.00     0.156 HD
ATOM     33  H11 UNL     1     -13.056  23.438  23.071  1.00  0.00     0.156 HD
ENDBRANCH  28  29
ENDBRANCH  23  27
BRANCH  24  34
HETATM   34  O7  UNL     1     -11.610  20.185  27.339  1.00  0.00    -0.390 OA
ATOM     35  H7  UNL     1     -10.867  20.252  27.927  1.00  0.00     0.210 HD
ENDBRANCH  24  34
BRANCH  25  36
HETATM   36  O8  UNL     1     -12.266  23.630  27.887  1.00  0.00    -0.390 OA
ATOM     37  H8  UNL     1     -12.666  24.114  28.600  1.00  0.00     0.210 HD
ENDBRANCH  25  36
BRANCH  26  38
HETATM   38  O9  UNL     1     -12.912  23.155  30.196  1.00  0.00    -0.388 OA
ATOM     39  H9  UNL     1     -12.443  23.414  30.981  1.00  0.00     0.210 HD
ENDBRANCH  26  38
ENDBRANCH   1  21
TORSDOF 16
ENDMDL