MODEL 2
REMARK VINA RESULT: -8.674621306      1.123      1.561
REMARK  13 active torsions:
REMARK  status: ('A' for Active; 'I' for Inactive)
REMARK    1  A    between atoms: C2_2  and  S1_3
REMARK    2  A    between atoms: C2_2  and  C8_16
REMARK    3  A    between atoms: S1_3  and  C3_4
REMARK    4  A    between atoms: C5_6  and  O1_7
REMARK    5  A    between atoms: C6_9  and  O2_10
REMARK    6  A    between atoms: C7_12  and  O3_13
REMARK    7  A    between atoms: C8_16  and  C9_18
REMARK    8  A    between atoms: C9_18  and  O6_19
REMARK    9  A    between atoms: C9_18  and  C10_21
REMARK   10  A    between atoms: C12_24  and  O8_25
REMARK   11  A    between atoms: O8_25  and  C13_26
REMARK   12  A    between atoms: C18_31  and  C20_33
REMARK   13  A    between atoms: C20_33  and  O9_34
ROOT
HETATM    1  C9  UNL     1     -12.836  22.125  28.498  1.00  0.00     0.216 C
ENDROOT
BRANCH   1   2
HETATM    2  C8  UNL     1     -12.013  21.290  27.627  1.00  0.00     0.172 C
HETATM    3  O5  UNL     1     -11.107  21.820  26.990  1.00  0.00    -0.294 OA
BRANCH   2   4
HETATM    4  C2  UNL     1     -12.228  19.838  27.490  1.00  0.00     0.118 C
HETATM    5  C1  UNL     1     -11.254  19.136  26.606  1.00  0.00     0.029 C
BRANCH   4   6
HETATM    6  S1  UNL     1     -12.304  19.055  29.149  1.00  0.00    -0.125 SA
BRANCH   6   7
HETATM    7  C3  UNL     1     -12.472  17.271  28.905  1.00  0.00     0.189 C
HETATM    8  C4  UNL     1     -11.632  16.518  29.911  1.00  0.00     0.077 C
HETATM    9  C5  UNL     1     -12.192  16.820  31.281  1.00  0.00     0.154 C
HETATM   10  C6  UNL     1     -13.638  17.205  31.245  1.00  0.00     0.202 C
HETATM   11  C7  UNL     1     -14.389  16.691  30.070  1.00  0.00     0.289 C
HETATM   12  O4  UNL     1     -13.772  16.852  28.858  1.00  0.00    -0.343 OA
BRANCH   9  13
HETATM   13  O1  UNL     1     -11.478  17.910  31.817  1.00  0.00    -0.393 OA
ATOM     14  H1  UNL     1     -11.458  17.816  32.761  1.00  0.00     0.210 HD
ENDBRANCH   9  13
BRANCH  10  15
HETATM   15  O2  UNL     1     -14.233  16.667  32.406  1.00  0.00    -0.388 OA
ATOM     16  H2  UNL     1     -14.805  17.339  32.758  1.00  0.00     0.210 HD
ENDBRANCH  10  15
BRANCH  11  17
HETATM   17  O3  UNL     1     -14.774  15.352  30.226  1.00  0.00    -0.368 OA
ATOM     18  H3  UNL     1     -14.251  14.761  29.697  1.00  0.00     0.212 HD
ENDBRANCH  11  17
ENDBRANCH   6   7
ENDBRANCH   4   6
ENDBRANCH   2   4
ENDBRANCH   1   2
BRANCH   1  19
HETATM   19  O6  UNL     1     -12.352  23.457  28.545  1.00  0.00    -0.384 OA
ATOM     20  H6  UNL     1     -11.423  23.495  28.353  1.00  0.00     0.211 HD
ENDBRANCH   1  19
BRANCH   1  21
HETATM   21  C10 UNL     1     -14.268  22.132  28.107  1.00  0.00     0.076 C
HETATM   22  C11 UNL     1     -14.646  22.432  26.851  1.00  0.00     0.182 C
HETATM   23  O7  UNL     1     -15.942  22.473  26.362  1.00  0.00    -0.296 OA
HETATM   24  O10 UNL     1     -13.833  22.762  25.781  1.00  0.00    -0.312 OA
HETATM   25  C12 UNL     1     -15.874  21.989  25.012  1.00  0.00     0.305 C
HETATM   26  C18 UNL     1     -14.444  22.169  24.630  1.00  0.00     0.137 C
HETATM   27  C19 UNL     1     -13.705  20.872  24.388  1.00  0.00     0.054 C
BRANCH  25  28
HETATM   28  O8  UNL     1     -16.178  20.649  25.068  1.00  0.00    -0.352 OA
BRANCH  28  29
HETATM   29  C13 UNL     1     -17.540  20.390  25.112  1.00  0.00     0.124 C
HETATM   30  C14 UNL     1     -17.985  20.077  23.698  1.00  0.00     0.032 C
HETATM   31  C15 UNL     1     -17.160  18.825  23.409  1.00  0.00     0.002 C
HETATM   32  C16 UNL     1     -17.223  18.061  24.698  1.00  0.00     0.002 C
HETATM   33  C17 UNL     1     -17.742  19.015  25.763  1.00  0.00     0.032 C
ENDBRANCH  28  29
ENDBRANCH  25  28
BRANCH  26  34
HETATM   34  C20 UNL     1     -14.248  23.147  23.497  1.00  0.00     0.207 C
BRANCH  34  35
HETATM   35  O9  UNL     1     -13.135  23.946  23.648  1.00  0.00    -0.398 OA
ATOM     36  H9  UNL     1     -12.654  24.082  22.840  1.00  0.00     0.209 HD
ENDBRANCH  34  35
ENDBRANCH  26  34
ENDBRANCH   1  21
TORSDOF 13
ENDMDL