MODEL 5
REMARK VINA RESULT: -7.925882261      1.207      1.568
REMARK  5 active torsions:
REMARK  status: ('A' for Active; 'I' for Inactive)
REMARK    1  A    between atoms: N1_1  and  C1_4
REMARK    2  A    between atoms: C3_10  and  N4_11
REMARK    3  A    between atoms: N5_17  and  C9_18
REMARK    4  A    between atoms: C11_22  and  C12_23
REMARK       I    between atoms: C12_23  and  N7_25
REMARK    5  A    between atoms: N7_25  and  C13_27
ROOT
HETATM    1  N4  UNL     1       2.871  41.472 -19.690  1.00  0.00    -0.365 N
HETATM    2  C4  UNL     1       4.118  42.064 -20.135  1.00  0.00     0.125 C
HETATM    3  C5  UNL     1       4.187  41.731 -21.619  1.00  0.00     0.033 C
HETATM    4  C6  UNL     1       3.507  40.413 -21.691  1.00  0.00    -0.004 C
HETATM    5  C7  UNL     1       2.871  40.149 -23.050  1.00  0.00     0.033 C
HETATM    6  C8  UNL     1       2.610  38.644 -22.906  1.00  0.00     0.142 C
HETATM    7  N5  UNL     1       3.901  38.202 -22.441  1.00  0.00    -0.217 N
HETATM    8  C17 UNL     1       4.426  39.227 -21.575  1.00  0.00     0.152 C
HETATM    9  C18 UNL     1       2.446  40.474 -20.648  1.00  0.00     0.135 C
ENDROOT
BRANCH   7  10
HETATM   10  C9  UNL     1       4.499  36.968 -22.804  1.00  0.00     0.679 A
HETATM   11  N6  UNL     1       5.823  36.741 -22.661  1.00  0.00    -0.201 N
HETATM   12  C10 UNL     1       6.432  35.593 -22.989  1.00  0.00     0.124 A
ATOM     13  H6  UNL     1       6.397  37.492 -22.279  1.00  0.00     0.183 HD
HETATM   14  C11 UNL     1       5.690  34.565 -23.508  1.00  0.00     0.063 A
HETATM   15  C16 UNL     1       4.333  34.787 -23.660  1.00  0.00     0.124 A
HETATM   16  N8  UNL     1       3.786  35.945 -23.316  1.00  0.00    -0.201 N
ATOM     17  H8  UNL     1       2.782  36.067 -23.445  1.00  0.00     0.183 HD
BRANCH  14  18
HETATM   18  C12 UNL     1       6.276  33.279 -23.893  1.00  0.00     0.254 C
HETATM   19  O1  UNL     1       7.543  33.195 -23.931  1.00  0.00    -0.268 OA
HETATM   20  N7  UNL     1       5.524  32.144 -24.219  1.00  0.00    -0.352 N
ATOM     21  H7  UNL     1       4.506  32.190 -24.195  1.00  0.00     0.163 HD
BRANCH  20  22
HETATM   22  C13 UNL     1       6.174  30.907 -24.590  1.00  0.00     0.084 A
HETATM   23  C14 UNL     1       5.195  29.767 -24.885  1.00  0.00     0.027 A
HETATM   24  C15 UNL     1       6.063  30.392 -25.979  1.00  0.00     0.027 A
ENDBRANCH  20  22
ENDBRANCH  14  18
ENDBRANCH   7  10
BRANCH   1  25
HETATM   25  C3  UNL     1       2.153  41.800 -18.509  1.00  0.00     0.130 A
HETATM   26  N3  UNL     1       2.288  41.067 -17.391  1.00  0.00    -0.337 N
HETATM   27  C2  UNL     1       1.621  41.353 -16.265  1.00  0.00     0.183 A
ATOM     28  H3  UNL     1       2.920  40.266 -17.399  1.00  0.00     0.168 HD
HETATM   29  N2  UNL     1       0.789  42.403 -16.239  1.00  0.00    -0.337 N
HETATM   30  C1  UNL     1       0.603  43.179 -17.316  1.00  0.00     0.125 A
ATOM     31  H2  UNL     1       0.285  42.617 -15.379  1.00  0.00     0.168 HD
HETATM   32  C19 UNL     1       1.290  42.875 -18.457  1.00  0.00     0.121 A
HETATM   33 CL1  UNL     1       1.071  43.867 -19.881  1.00  0.00    -0.076 Cl
BRANCH  30  34
HETATM   34  N1  UNL     1      -0.200  44.165 -17.243  1.00  0.00    -0.384 N
ATOM     35  H12 UNL     1      -0.691  44.410 -16.383  1.00  0.00     0.157 HD
ATOM     36  H11 UNL     1      -0.364  44.737 -18.070  1.00  0.00     0.157 HD
ENDBRANCH  30  34
ENDBRANCH   1  25
TORSDOF 5
ENDMDL