MODEL 3
REMARK VINA RESULT: -6.728529842      4.226      5.694
REMARK  8 active torsions:
REMARK  status: ('A' for Active; 'I' for Inactive)
REMARK    1  A    between atoms: O1_2  and  C2_3
REMARK    2  A    between atoms: C2_3  and  C3_4
REMARK    3  A    between atoms: C3_4  and  C4_5
REMARK    4  A    between atoms: C4_5  and  C5_6
REMARK    5  A    between atoms: C10_13  and  C11_14
REMARK    6  A    between atoms: C17_21  and  O2_22
REMARK    7  A    between atoms: C18_24  and  O3_25
REMARK    8  A    between atoms: C19_27  and  O4_28
ROOT
HETATM    1  C4  UNL     1      -0.002  36.441 -26.219  1.00  0.00    -0.027 C
HETATM    2  C6  UNL     1       0.348  37.805 -26.536  1.00  0.00     0.019 C
HETATM    3  C7  UNL     1       0.986  38.578 -25.431  1.00  0.00     0.094 C
HETATM    4  C8  UNL     1       2.405  38.085 -25.189  1.00  0.00     0.156 C
HETATM    5  S1  UNL     1       2.973  38.320 -23.527  1.00  0.00    -0.114 SA
HETATM    6  C9  UNL     1       4.021  39.708 -23.996  1.00  0.00     0.072 C
HETATM    7  C10 UNL     1       4.033  39.841 -25.308  1.00  0.00     0.022 C
HETATM    8  N1  UNL     1       3.254  38.911 -25.990  1.00  0.00    -0.367 N
HETATM    9  C15 UNL     1       3.299  38.784 -27.433  1.00  0.00     0.152 C
HETATM   10  C16 UNL     1       2.303  37.776 -27.974  1.00  0.00     0.138 C
HETATM   11  C17 UNL     1       2.682  37.562 -29.426  1.00  0.00     0.174 C
HETATM   12  C18 UNL     1       2.026  38.524 -30.356  1.00  0.00     0.182 C
HETATM   13  C19 UNL     1       0.537  38.288 -30.228  1.00  0.00     0.188 C
HETATM   14  C20 UNL     1       0.071  38.340 -28.804  1.00  0.00     0.099 C
HETATM   15  N2  UNL     1       0.980  38.019 -27.810  1.00  0.00    -0.352 N
ENDROOT
BRANCH   1  16
HETATM   16  C3  UNL     1      -1.004  36.044 -25.213  1.00  0.00     0.065 C
BRANCH  16  17
HETATM   17  C2  UNL     1      -0.864  34.797 -24.429  1.00  0.00     0.171 C
BRANCH  17  18
HETATM   18  O1  UNL     1      -2.117  34.221 -24.122  1.00  0.00    -0.396 OA
HETATM   19  C1  UNL     1      -2.070  33.342 -23.066  1.00  0.00     0.201 C
ENDBRANCH  17  18
ENDBRANCH  16  17
ENDBRANCH   1  16
BRANCH   1  20
HETATM   20  C5  UNL     1      -0.266  35.547 -27.441  1.00  0.00     0.258 C
HETATM   21  F1  UNL     1      -1.609  35.627 -27.779  1.00  0.00    -0.251 F
ENDBRANCH   1  20
BRANCH  11  22
HETATM   22  O2  UNL     1       4.057  37.637 -29.618  1.00  0.00    -0.391 OA
ATOM     23  H2  UNL     1       4.425  38.425 -29.234  1.00  0.00     0.210 HD
ENDBRANCH  11  22
BRANCH  13  24
HETATM   24  O4  UNL     1      -0.100  39.223 -31.044  1.00  0.00    -0.388 OA
ATOM     25  H4  UNL     1      -0.953  39.394 -30.662  1.00  0.00     0.210 HD
ENDBRANCH  13  24
BRANCH   7  26
HETATM   26  C11 UNL     1       4.867  40.962 -25.870  1.00  0.00    -0.008 C
HETATM   27  C12 UNL     1       5.673  40.518 -27.072  1.00  0.00     0.021 C
HETATM   28  C13 UNL     1       4.048  42.130 -26.312  1.00  0.00     0.021 C
HETATM   29  C14 UNL     1       5.834  41.357 -24.780  1.00  0.00     0.021 C
ENDBRANCH   7  26
BRANCH  12  30
HETATM   30  O3  UNL     1       2.366  39.837 -30.183  1.00  0.00    -0.390 OA
ATOM     31  H3  UNL     1       1.798  40.334 -29.607  1.00  0.00     0.210 HD
ENDBRANCH  12  30
TORSDOF 8
ENDMDL