MODEL 5
REMARK VINA RESULT: -9.255245833      1.258      3.909
REMARK  6 active torsions:
REMARK  status: ('A' for Active; 'I' for Inactive)
REMARK    1  A    between atoms: C3_4  and  O1_5
REMARK    2  A    between atoms: O1_5  and  C4_6
REMARK    3  A    between atoms: C4_6  and  C5_7
REMARK    4  A    between atoms: C8_11  and  N2_12
REMARK    5  A    between atoms: C13_20  and  C14_21
REMARK    6  A    between atoms: C20_33  and  N6_34
ROOT
HETATM    1  N1  UNL     1       3.207  30.677 -25.411  1.00  0.00    -0.191 NA
HETATM    2  C1  UNL     1       4.173  31.286 -25.117  1.00  0.00     0.106 C
HETATM    3  C2  UNL     1       5.366  32.009 -24.772  1.00  0.00     0.121 A
HETATM    4  C3  UNL     1       5.171  33.178 -23.998  1.00  0.00     0.102 A
HETATM    5  C13 UNL     1       6.306  33.869 -23.668  1.00  0.00     0.007 A
HETATM    6  C19 UNL     1       7.540  33.360 -24.122  1.00  0.00     0.100 A
HETATM    7  N5  UNL     1       7.679  32.263 -24.845  1.00  0.00    -0.351 N
ATOM      8  H5  UNL     1       8.604  31.950 -25.142  1.00  0.00     0.166 HD
HETATM    9  C20 UNL     1       6.600  31.578 -25.176  1.00  0.00     0.122 A
ENDROOT
BRANCH   4  10
HETATM   10  O1  UNL     1       3.946  33.521 -23.665  1.00  0.00    -0.348 OA
BRANCH  10  11
HETATM   11  C4  UNL     1       2.976  33.467 -22.747  1.00  0.00     0.180 C
BRANCH  11  12
HETATM   12  C5  UNL     1       1.612  33.165 -23.417  1.00  0.00     0.016 C
HETATM   13  C6  UNL     1       0.593  32.741 -22.423  1.00  0.00     0.033 C
HETATM   14  C7  UNL     1      -0.778  32.870 -23.010  1.00  0.00     0.171 C
HETATM   15  O2  UNL     1      -0.799  33.271 -24.324  1.00  0.00    -0.366 OA
HETATM   16  C8  UNL     1      -0.234  34.566 -24.374  1.00  0.00     0.228 C
HETATM   17  C12 UNL     1       1.244  34.394 -24.200  1.00  0.00     0.061 C
BRANCH  16  18
HETATM   18  N2  UNL     1      -0.527  35.172 -25.672  1.00  0.00    -0.323 N
HETATM   19  C9  UNL     1      -1.362  34.697 -26.618  1.00  0.00     0.186 A
HETATM   20  N3  UNL     1      -1.372  35.537 -27.687  1.00  0.00    -0.342 N
HETATM   21  C10 UNL     1      -0.536  36.556 -27.425  1.00  0.00     0.120 A
ATOM     22  H3  UNL     1      -1.918  35.415 -28.539  1.00  0.00     0.167 HD
HETATM   23 CL1  UNL     1      -0.211  37.896 -28.503  1.00  0.00    -0.063 Cl
HETATM   24  C11 UNL     1      -0.027  36.306 -26.174  1.00  0.00     0.136 A
ENDBRANCH  16  18
ENDBRANCH  11  12
ENDBRANCH  10  11
ENDBRANCH   4  10
BRANCH   9  25
HETATM   25  N6  UNL     1       6.719  30.496 -25.886  1.00  0.00    -0.384 N
ATOM     26  H62 UNL     1       5.922  29.867 -25.984  1.00  0.00     0.157 HD
ATOM     27  H61 UNL     1       7.602  30.275 -26.345  1.00  0.00     0.157 HD
ENDBRANCH   9  25
BRANCH   5  28
HETATM   28  C14 UNL     1       6.362  35.066 -22.851  1.00  0.00     0.064 A
HETATM   29  C15 UNL     1       5.329  36.122 -23.250  1.00  0.00     0.251 C
HETATM   30  N4  UNL     1       5.299  37.010 -22.083  1.00  0.00    -0.071 N
HETATM   31  C16 UNL     1       5.256  36.094 -20.992  1.00  0.00     0.265 C
ATOM     32  H42 UNL     1       6.060  37.687 -22.043  1.00  0.00     0.277 HD
ATOM     33  H41 UNL     1       4.548  37.700 -22.092  1.00  0.00     0.277 HD
HETATM   34  C17 UNL     1       6.310  35.054 -21.396  1.00  0.00     0.164 A
HETATM   35  O3  UNL     1       7.558  35.729 -21.393  1.00  0.00    -0.382 OA
HETATM   36  C18 UNL     1       7.685  35.809 -22.774  1.00  0.00     0.187 A
ENDBRANCH   5  28
TORSDOF 6
ENDMDL