MODEL 1
REMARK VINA RESULT: -8.612752346      0.000      0.000
REMARK  6 active torsions:
REMARK  status: ('A' for Active; 'I' for Inactive)
REMARK    1  A    between atoms: C2_3  and  N1_4
REMARK    2  A    between atoms: C6_8  and  N2_9
REMARK    3  A    between atoms: N2_9  and  C7_11
REMARK    4  A    between atoms: C7_11  and  C8_12
REMARK    5  A    between atoms: C17_28  and  N6_29
REMARK    6  A    between atoms: N6_29  and  C18_31
ROOT
HETATM    1 CL1  UNL     1       6.300  33.100 -23.266  1.00  0.00    -0.076 Cl
HETATM    2  C1  UNL     1       5.508  31.900 -24.257  1.00  0.00     0.121 A
HETATM    3  C2  UNL     1       4.181  31.998 -24.565  1.00  0.00     0.130 A
HETATM    4  N4  UNL     1       3.707  30.945 -25.331  1.00  0.00    -0.337 N
ATOM      5  H4  UNL     1       2.722  30.956 -25.597  1.00  0.00     0.168 HD
HETATM    6  C16 UNL     1       4.444  29.925 -25.742  1.00  0.00     0.183 A
HETATM    7  N5  UNL     1       5.753  29.841 -25.432  1.00  0.00    -0.337 N
ATOM      8  H5  UNL     1       6.325  29.057 -25.747  1.00  0.00     0.168 HD
HETATM    9  C17 UNL     1       6.274  30.833 -24.690  1.00  0.00     0.132 A
ENDROOT
BRANCH   3  10
HETATM   10  N1  UNL     1       3.291  33.037 -24.237  1.00  0.00    -0.364 N
HETATM   11  C3  UNL     1       3.023  33.217 -22.778  1.00  0.00     0.124 C
HETATM   12  C4  UNL     1       1.593  32.741 -22.574  1.00  0.00     0.022 C
HETATM   13  C5  UNL     1       0.883  32.501 -23.900  1.00  0.00     0.028 C
HETATM   14  C6  UNL     1       1.030  33.728 -24.793  1.00  0.00     0.094 C
HETATM   15  C15 UNL     1       2.545  33.939 -25.051  1.00  0.00     0.149 C
BRANCH  14  16
HETATM   16  N2  UNL     1       0.394  34.888 -24.294  1.00  0.00    -0.413 N
ATOM     17  H2  UNL     1      -0.473  34.843 -23.759  1.00  0.00     0.153 HD
BRANCH  16  18
HETATM   18  C7  UNL     1       1.036  36.118 -24.582  1.00  0.00     0.153 C
BRANCH  18  19
HETATM   19  C8  UNL     1       0.611  36.832 -25.814  1.00  0.00     0.141 C
HETATM   20  C9  UNL     1       0.209  38.283 -25.525  1.00  0.00     0.041 C
HETATM   21  C10 UNL     1      -0.806  38.679 -26.599  1.00  0.00     0.009 C
HETATM   22  C11 UNL     1      -0.350  37.963 -27.882  1.00  0.00     0.011 C
HETATM   23  C12 UNL     1      -0.919  36.546 -27.782  1.00  0.00     0.009 C
HETATM   24  C14 UNL     1       1.165  37.839 -27.866  1.00  0.00     0.238 C
HETATM   25  C13 UNL     1      -0.596  36.072 -26.374  1.00  0.00     0.041 C
HETATM   26  N3  UNL     1       1.616  36.903 -26.842  1.00  0.00    -0.064 N
ATOM     27  H32 UNL     1       2.537  37.140 -26.474  1.00  0.00     0.278 HD
ATOM     28  H31 UNL     1       1.850  35.987 -27.225  1.00  0.00     0.278 HD
ENDBRANCH  18  19
ENDBRANCH  16  18
ENDBRANCH  14  16
ENDBRANCH   3  10
BRANCH   9  29
HETATM   29  N6  UNL     1       7.542  30.778 -24.383  1.00  0.00    -0.339 N
ATOM     30  H6  UNL     1       7.809  30.624 -23.410  1.00  0.00     0.167 HD
BRANCH  29  31
HETATM   31  C18 UNL     1       8.567  30.928 -25.367  1.00  0.00     0.064 A
HETATM   32  C19 UNL     1       9.575  29.955 -25.471  1.00  0.00     0.119 A
HETATM   33  N7  UNL     1      10.532  30.112 -26.393  1.00  0.00    -0.360 N
HETATM   34  C20 UNL     1      10.592  31.157 -27.239  1.00  0.00     0.180 A
ATOM     35  H7  UNL     1      11.258  29.399 -26.458  1.00  0.00     0.166 HD
HETATM   36  N8  UNL     1       9.625  32.080 -27.132  1.00  0.00    -0.360 N
HETATM   37  C21 UNL     1       8.636  31.990 -26.235  1.00  0.00     0.119 A
ATOM     38  H8  UNL     1       9.644  32.883 -27.760  1.00  0.00     0.166 HD
ENDBRANCH  29  31
ENDBRANCH   9  29
TORSDOF 6
ENDMDL