MODEL 4
REMARK VINA RESULT: -7.945516593      1.698      2.247
REMARK  8 active torsions:
REMARK  status: ('A' for Active; 'I' for Inactive)
REMARK    1  A    between atoms: C2_2  and  N1_3
REMARK       I    between atoms: N1_3  and  C3_5
REMARK       I    between atoms: C3_5  and  N2_7
REMARK    2  A    between atoms: N2_7  and  C4_9
REMARK    3  A    between atoms: C5_14  and  C6_15
REMARK    4  A    between atoms: C6_15  and  C7_16
REMARK    5  A    between atoms: C12_23  and  C13_24
REMARK    6  A    between atoms: C13_24  and  C14_25
REMARK    7  A    between atoms: C14_25  and  O3_27
REMARK    8  A    between atoms: O3_27  and  C15_28
ROOT
HETATM    1  C7  UNL     1       2.379  36.277 -25.832  1.00  0.00     0.170 C
HETATM    2  C8  UNL     1       1.693  37.409 -26.407  1.00  0.00     0.062 C
HETATM    3  N5  UNL     1       1.142  38.324 -26.892  1.00  0.00    -0.197 NA
ENDROOT
BRANCH   1   4
HETATM    4  C6  UNL     1       1.966  36.014 -24.412  1.00  0.00     0.188 C
HETATM    5  C9  UNL     1       0.480  36.111 -24.212  1.00  0.00     0.050 C
HETATM    6  C10 UNL     1      -0.239  34.813 -24.432  1.00  0.00     0.042 C
HETATM    7  C11 UNL     1       0.526  33.608 -24.038  1.00  0.00     0.201 C
HETATM    8  F1  UNL     1       0.582  33.416 -22.666  1.00  0.00    -0.247 F
HETATM    9  C12 UNL     1       1.966  33.686 -24.549  1.00  0.00     0.230 C
HETATM   10  N6  UNL     1       2.561  34.820 -23.901  1.00  0.00    -0.052 N
ATOM     11  H62 UNL     1       3.576  34.826 -23.984  1.00  0.00     0.279 HD
ATOM     12  H61 UNL     1       2.501  34.762 -22.884  1.00  0.00     0.279 HD
BRANCH   4  13
HETATM   13  C5  UNL     1       2.537  37.149 -23.588  1.00  0.00     0.107 A
HETATM   14  N4  UNL     1       1.870  38.153 -23.039  1.00  0.00    -0.293 N
HETATM   15  N3  UNL     1       2.480  39.042 -22.373  1.00  0.00    -0.279 N
ATOM     16  H4  UNL     1       0.859  38.211 -23.154  1.00  0.00     0.187 HD
HETATM   17  C4  UNL     1       3.811  38.937 -22.239  1.00  0.00     0.169 A
ATOM     18  H3  UNL     1       1.972  39.817 -21.949  1.00  0.00     0.189 HD
HETATM   19  S1  UNL     1       4.137  37.506 -23.115  1.00  0.00    -0.035 SA
BRANCH  17  20
HETATM   20  N2  UNL     1       4.608  39.755 -21.588  1.00  0.00    -0.288 N
HETATM   21  C3  UNL     1       5.215  40.780 -22.345  1.00  0.00     0.322 C
HETATM   22  N1  UNL     1       4.585  42.035 -22.544  1.00  0.00    -0.343 N
HETATM   23  O1  UNL     1       6.340  40.555 -22.845  1.00  0.00    -0.247 OA
ATOM     24  H1  UNL     1       3.667  42.204 -22.132  1.00  0.00     0.164 HD
ATOM     25  H2  UNL     1       4.779  39.654 -20.588  1.00  0.00     0.172 HD
BRANCH  22  26
HETATM   26  C2  UNL     1       5.224  43.092 -23.330  1.00  0.00     0.120 C
HETATM   27  C1  UNL     1       4.225  43.953 -24.045  1.00  0.00     0.026 C
ENDBRANCH  22  26
ENDBRANCH  17  20
ENDBRANCH   4  13
BRANCH   9  28
HETATM   28  C13 UNL     1       2.700  32.397 -24.229  1.00  0.00     0.147 C
BRANCH  28  29
HETATM   29  C14 UNL     1       4.157  32.556 -24.350  1.00  0.00     0.261 C
HETATM   30  O2  UNL     1       4.810  33.193 -23.486  1.00  0.00    -0.265 OA
BRANCH  29  31
HETATM   31  O3  UNL     1       4.828  32.011 -25.416  1.00  0.00    -0.311 OA
BRANCH  31  32
HETATM   32  C15 UNL     1       5.684  30.904 -25.360  1.00  0.00     0.060 C
HETATM   33  C16 UNL     1       6.178  30.631 -26.783  1.00  0.00     0.045 C
HETATM   34  C17 UNL     1       4.953  29.653 -24.910  1.00  0.00     0.045 C
HETATM   35  C18 UNL     1       6.888  31.088 -24.478  1.00  0.00     0.045 C
ENDBRANCH  31  32
ENDBRANCH  29  31
ENDBRANCH  28  29
ENDBRANCH   9  28
ENDBRANCH   1   4
TORSDOF 8
ENDMDL