MODEL 1
REMARK VINA RESULT: -8.912181737      0.000      0.000
REMARK  6 active torsions:
REMARK  status: ('A' for Active; 'I' for Inactive)
REMARK    1  A    between atoms: C1_2  and  C2_4
REMARK    2  A    between atoms: C2_4  and  N2_5
REMARK    3  A    between atoms: C5_8  and  C6_9
REMARK    4  A    between atoms: C7_13  and  C8_14
REMARK    5  A    between atoms: C10_18  and  C11_19
REMARK    6  A    between atoms: C13_21  and  N5_22
ROOT
HETATM    1  C8  UNL     1       1.344  34.019 -24.480  1.00  0.00     0.103 A
HETATM    2  C9  UNL     1      -0.019  34.038 -24.179  1.00  0.00     0.123 A
HETATM    3  N4  UNL     1      -0.413  35.328 -24.298  1.00  0.00    -0.353 N
ATOM      4  H4  UNL     1      -1.364  35.663 -24.139  1.00  0.00     0.166 HD
HETATM    5  C10 UNL     1       0.622  36.104 -24.654  1.00  0.00     0.086 A
HETATM    6  N6  UNL     1       1.671  35.282 -24.756  1.00  0.00    -0.341 N
ATOM      7  H6  UNL     1       2.611  35.585 -25.014  1.00  0.00     0.167 HD
ENDROOT
BRANCH   1   8
HETATM    8  C7  UNL     1       2.190  32.827 -24.479  1.00  0.00     0.200 A
HETATM    9  O2  UNL     1       1.709  31.612 -24.632  1.00  0.00    -0.216 OA
HETATM   10  N3  UNL     1       2.709  30.779 -24.584  1.00  0.00    -0.246 N
HETATM   11  C6  UNL     1       3.848  31.465 -24.396  1.00  0.00     0.108 A
ATOM     12  H3  UNL     1       2.637  29.766 -24.674  1.00  0.00     0.196 HD
HETATM   13  N7  UNL     1       3.517  32.760 -24.330  1.00  0.00    -0.321 N
ATOM     14  H7  UNL     1       4.154  33.544 -24.192  1.00  0.00     0.169 HD
BRANCH  11  15
HETATM   15  C5  UNL     1       5.248  30.963 -24.271  1.00  0.00     0.058 C
HETATM   16  C4  UNL     1       6.215  32.027 -23.916  1.00  0.00     0.042 C
HETATM   17  C3  UNL     1       7.026  32.589 -25.055  1.00  0.00     0.273 C
HETATM   18  N2  UNL     1       7.539  31.393 -25.747  1.00  0.00     0.096 N
HETATM   19  C17 UNL     1       6.433  30.816 -26.498  1.00  0.00     0.273 C
HETATM   20  C16 UNL     1       5.595  30.109 -25.455  1.00  0.00     0.042 C
BRANCH  18  21
HETATM   21  C2  UNL     1       8.682  31.694 -26.540  1.00  0.00     0.371 C
BRANCH  21  22
HETATM   22  C1  UNL     1       9.808  30.810 -26.188  1.00  0.00     0.259 C
HETATM   23  N1  UNL     1      10.928  31.337 -25.445  1.00  0.00    -0.061 NA
HETATM   24  O1  UNL     1       9.806  29.598 -26.528  1.00  0.00    -0.275 OA
ENDBRANCH  21  22
ENDBRANCH  18  21
ENDBRANCH  11  15
ENDBRANCH   1   8
BRANCH   5  25
HETATM   25  C11 UNL     1       0.596  37.560 -24.879  1.00  0.00     0.058 C
HETATM   26  C12 UNL     1       0.488  38.307 -23.567  1.00  0.00     0.048 C
HETATM   27  C13 UNL     1       1.222  39.607 -23.921  1.00  0.00     0.222 C
HETATM   28  C14 UNL     1       2.482  39.033 -24.543  1.00  0.00     0.142 C
HETATM   29 CL1  UNL     1       3.380  38.169 -23.281  1.00  0.00    -0.099 Cl
HETATM   30 CL2  UNL     1       3.454  40.241 -25.372  1.00  0.00    -0.099 Cl
HETATM   31  C15 UNL     1       1.899  37.998 -25.505  1.00  0.00     0.056 C
BRANCH  27  32
HETATM   32  N5  UNL     1       1.460  40.365 -22.730  1.00  0.00    -0.072 N
ATOM     33  H53 UNL     1       1.069  39.914 -21.902  1.00  0.00     0.274 HD
ATOM     34  H52 UNL     1       2.442  40.350 -22.454  1.00  0.00     0.274 HD
ATOM     35  H51 UNL     1       1.108  41.315 -22.853  1.00  0.00     0.274 HD
ENDBRANCH  27  32
ENDBRANCH   5  25
TORSDOF 6
ENDMDL