MODEL 4
REMARK VINA RESULT: -7.404777220      1.695      2.666
REMARK  9 active torsions:
REMARK  status: ('A' for Active; 'I' for Inactive)
REMARK    1  A    between atoms: C2_2  and  C3_4
REMARK    2  A    between atoms: C3_4  and  N1_5
REMARK    3  A    between atoms: C4_6  and  C5_7
REMARK    4  A    between atoms: C7_10  and  O2_11
REMARK    5  A    between atoms: C8_13  and  O3_14
REMARK    6  A    between atoms: C9_16  and  O4_17
REMARK    7  A    between atoms: N2_19  and  C10_20
REMARK    8  A    between atoms: C10_20  and  C11_21
REMARK    9  A    between atoms: C11_21  and  C12_22
ROOT
HETATM    1  N1  UNL     1       1.222  33.132 -24.502  1.00  0.00    -0.295 N
HETATM    2  C4  UNL     1       2.250  33.949 -24.458  1.00  0.00     0.099 A
HETATM    3  C9  UNL     1       3.430  33.149 -24.390  1.00  0.00     0.172 A
HETATM    4  N2  UNL     1       3.052  31.869 -24.391  1.00  0.00    -0.278 N
HETATM    5  C17 UNL     1       1.725  31.850 -24.456  1.00  0.00     0.331 A
HETATM    6  O5  UNL     1       1.027  30.823 -24.476  1.00  0.00    -0.246 OA
ENDROOT
BRANCH   2   7
HETATM    7  C5  UNL     1       2.400  35.400 -24.466  1.00  0.00     0.207 C
HETATM    8  O1  UNL     1       1.676  36.049 -23.490  1.00  0.00    -0.374 OA
HETATM    9  C6  UNL     1       1.260  37.266 -23.958  1.00  0.00     0.203 C
HETATM   10  C7  UNL     1       2.209  37.590 -25.092  1.00  0.00     0.173 C
HETATM   11  C8  UNL     1       2.222  36.147 -25.731  1.00  0.00     0.184 C
BRANCH  10  12
HETATM   12  O2  UNL     1       3.438  37.888 -24.556  1.00  0.00    -0.391 OA
ATOM     13  H2  UNL     1       3.914  38.427 -25.177  1.00  0.00     0.210 HD
ENDBRANCH  10  12
BRANCH  11  14
HETATM   14  O3  UNL     1       0.944  36.068 -26.290  1.00  0.00    -0.390 OA
ATOM     15  H3  UNL     1       0.765  36.701 -26.976  1.00  0.00     0.210 HD
ENDBRANCH  11  14
ENDBRANCH   2   7
BRANCH   1  16
HETATM   16  C3  UNL     1      -0.172  33.366 -24.667  1.00  0.00     0.149 C
BRANCH  16  17
HETATM   17  C2  UNL     1      -0.920  33.765 -23.425  1.00  0.00     0.072 C
HETATM   18  C1  UNL     1      -2.399  33.829 -23.849  1.00  0.00     0.023 C
HETATM   19 BR1  UNL     1      -0.821  32.518 -21.978  1.00  0.00    -0.090 Br
ENDBRANCH  16  17
ENDBRANCH   1  16
BRANCH   3  20
HETATM   20  O4  UNL     1       4.743  33.591 -24.332  1.00  0.00    -0.344 OA
ATOM     21  H4  UNL     1       5.488  33.135 -23.960  1.00  0.00     0.219 HD
ENDBRANCH   3  20
BRANCH   4  22
HETATM   22  C10 UNL     1       3.955  30.715 -24.335  1.00  0.00     0.136 C
BRANCH  22  23
HETATM   23  C11 UNL     1       4.203  30.138 -25.709  1.00  0.00     0.025 C
BRANCH  23  24
HETATM   24  C12 UNL     1       5.680  30.060 -25.922  1.00  0.00    -0.013 C
HETATM   25  C13 UNL     1       6.242  31.151 -26.789  1.00  0.00     0.005 C
HETATM   26  C14 UNL     1       7.718  31.101 -26.458  1.00  0.00     0.000 C
HETATM   27  C15 UNL     1       7.816  30.665 -25.015  1.00  0.00     0.000 C
HETATM   28  C16 UNL     1       6.384  30.335 -24.601  1.00  0.00     0.005 C
ENDBRANCH  23  24
ENDBRANCH  22  23
ENDBRANCH   4  22
TORSDOF 9
ENDMDL