MODEL 3
REMARK VINA RESULT: -8.078522924      3.471      6.995
REMARK  4 active torsions:
REMARK  status: ('A' for Active; 'I' for Inactive)
REMARK    1  A    between atoms: C3_6  and  N3_7
REMARK       I    between atoms: N3_7  and  C4_9
REMARK    2  A    between atoms: C4_9  and  C5_11
REMARK    3  A    between atoms: C7_17  and  C8_18
REMARK    4  A    between atoms: C13_26  and  N7_27
ROOT
HETATM    1  C5  UNL     1      -1.367  34.324 -24.294  1.00  0.00     0.126 A
HETATM    2  N4  UNL     1      -2.617  33.857 -24.512  1.00  0.00    -0.295 N
ATOM      3  H4  UNL     1      -3.267  34.245 -25.196  1.00  0.00     0.187 HD
HETATM    4  N5  UNL     1      -2.884  32.834 -23.723  1.00  0.00    -0.311 N
ATOM      5  H5  UNL     1      -3.752  32.301 -23.686  1.00  0.00     0.186 HD
HETATM    6  C6  UNL     1      -1.775  32.634 -22.975  1.00  0.00     0.118 A
HETATM    7  C7  UNL     1      -0.808  33.555 -23.313  1.00  0.00     0.023 A
ENDROOT
BRANCH   7   8
HETATM    8  C8  UNL     1       0.519  33.676 -22.702  1.00  0.00     0.223 C
HETATM    9  C9  UNL     1       1.625  33.870 -23.717  1.00  0.00     0.049 C
HETATM   10  C10 UNL     1       2.428  32.632 -23.650  1.00  0.00    -0.010 C
HETATM   11  C11 UNL     1       1.755  31.683 -22.723  1.00  0.00     0.242 C
HETATM   12  C12 UNL     1       3.924  32.795 -23.449  1.00  0.00     0.047 C
HETATM   13  C17 UNL     1       2.778  31.971 -24.986  1.00  0.00     0.047 C
HETATM   14  N6  UNL     1       0.863  32.496 -21.921  1.00  0.00    -0.066 N
ATOM     15  H62 UNL     1       1.251  32.725 -21.006  1.00  0.00     0.278 HD
ATOM     16  H61 UNL     1       0.044  31.983 -21.596  1.00  0.00     0.278 HD
HETATM   17  C13 UNL     1       4.075  31.528 -24.293  1.00  0.00     0.225 C
BRANCH  17  18
HETATM   18  N7  UNL     1       5.160  31.566 -25.233  1.00  0.00     0.102 N
HETATM   19  C14 UNL     1       5.157  30.306 -25.953  1.00  0.00     0.284 C
HETATM   20  C15 UNL     1       6.239  30.431 -27.031  1.00  0.00     0.105 C
HETATM   21  S1  UNL     1       7.537  31.239 -26.007  1.00  0.00    -0.138 SA
HETATM   22  C16 UNL     1       6.456  31.686 -24.584  1.00  0.00     0.347 C
ENDBRANCH  17  18
ENDBRANCH   7   8
BRANCH   1  23
HETATM   23  C4  UNL     1      -0.753  35.451 -25.013  1.00  0.00     0.274 C
HETATM   24  N3  UNL     1      -0.565  35.363 -26.410  1.00  0.00    -0.318 N
ATOM     25  H3  UNL     1      -0.861  34.513 -26.890  1.00  0.00     0.169 HD
HETATM   26  O1  UNL     1      -0.422  36.452 -24.344  1.00  0.00    -0.266 OA
BRANCH  24  27
HETATM   27  C3  UNL     1       0.012  36.397 -27.166  1.00  0.00     0.092 A
HETATM   28  C2  UNL     1      -0.536  37.200 -28.130  1.00  0.00     0.140 A
HETATM   29  N2  UNL     1       0.428  38.047 -28.568  1.00  0.00    -0.307 N
HETATM   30  N1  UNL     1       1.561  37.834 -27.939  1.00  0.00    -0.284 N
ATOM     31  H2  UNL     1       0.292  38.756 -29.290  1.00  0.00     0.186 HD
HETATM   32  C1  UNL     1       2.841  38.524 -28.112  1.00  0.00     0.179 C
HETATM   33  C18 UNL     1       1.345  36.835 -27.077  1.00  0.00     0.148 A
HETATM   34 CL1  UNL     1       2.538  36.166 -25.994  1.00  0.00    -0.060 Cl
ENDBRANCH  24  27
ENDBRANCH   1  23
TORSDOF 4
ENDMDL