MODEL 5
REMARK VINA RESULT: -5.797090063      5.265      7.359
REMARK  7 active torsions:
REMARK  status: ('A' for Active; 'I' for Inactive)
REMARK    1  A    between atoms: C2_2  and  N1_3
REMARK       I    between atoms: N1_3  and  C3_5
REMARK       I    between atoms: C3_5  and  N2_7
REMARK    2  A    between atoms: N2_7  and  C4_9
REMARK    3  A    between atoms: C10_17  and  O2_18
REMARK    4  A    between atoms: O2_18  and  C11_19
REMARK    5  A    between atoms: C12_21  and  C13_22
REMARK    6  A    between atoms: C13_22  and  O5_24
REMARK    7  A    between atoms: C15_26  and  C16_27
ROOT
HETATM    1  C4  UNL     1       2.840  41.883 -22.570  1.00  0.00     0.120 C
HETATM    2  C5  UNL     1       2.032  42.869 -23.338  1.00  0.00     0.048 C
HETATM    3  C6  UNL     1       2.284  42.577 -24.780  1.00  0.00     0.126 C
HETATM    4  N3  UNL     1       3.283  41.529 -24.846  1.00  0.00    -0.367 N
HETATM    5  C7  UNL     1       3.181  40.858 -23.669  1.00  0.00     0.169 C
HETATM    6  S1  UNL     1       4.384  39.758 -23.026  1.00  0.00    -0.137 SA
HETATM    7  C8  UNL     1       6.096  40.217 -23.177  1.00  0.00     0.117 C
HETATM    8  C9  UNL     1       6.261  41.576 -23.700  1.00  0.00    -0.008 C
HETATM    9  C10 UNL     1       7.297  42.203 -23.169  1.00  0.00     0.154 C
HETATM   10  C12 UNL     1       5.558  42.420 -24.663  1.00  0.00     0.071 C
HETATM   11  C15 UNL     1       4.490  41.883 -25.512  1.00  0.00     0.033 C
ENDROOT
BRANCH   1  12
HETATM   12  N2  UNL     1       2.046  41.205 -21.539  1.00  0.00    -0.336 N
HETATM   13  C3  UNL     1       2.402  41.207 -20.184  1.00  0.00     0.316 C
HETATM   14  N1  UNL     1       1.591  40.534 -19.244  1.00  0.00    -0.343 N
HETATM   15  O1  UNL     1       3.435  41.801 -19.810  1.00  0.00    -0.247 OA
ATOM     16  H1  UNL     1       0.751  40.052 -19.565  1.00  0.00     0.164 HD
ATOM     17  H2  UNL     1       1.199  40.712 -21.821  1.00  0.00     0.164 HD
BRANCH  14  18
HETATM   18  C2  UNL     1       1.929  40.510 -17.813  1.00  0.00     0.120 C
HETATM   19  C1  UNL     1       2.771  39.296 -17.550  1.00  0.00     0.026 C
ENDBRANCH  14  18
ENDBRANCH   1  12
BRANCH  11  20
HETATM   20  C16 UNL     1       4.715  40.986 -26.640  1.00  0.00    -0.008 C
HETATM   21  C17 UNL     1       6.091  40.551 -26.997  1.00  0.00     0.021 C
HETATM   22  C18 UNL     1       4.264  41.776 -27.912  1.00  0.00     0.021 C
HETATM   23  C19 UNL     1       3.831  39.762 -26.762  1.00  0.00     0.021 C
ENDBRANCH  11  20
BRANCH  10  24
HETATM   24  C13 UNL     1       6.468  43.399 -25.290  1.00  0.00     0.295 C
HETATM   25  O4  UNL     1       6.040  44.254 -26.132  1.00  0.00    -0.259 OA
BRANCH  24  26
HETATM   26  O5  UNL     1       7.831  43.505 -25.053  1.00  0.00    -0.322 OA
HETATM   27  C14 UNL     1       8.690  44.331 -25.788  1.00  0.00     0.213 C
ENDBRANCH  24  26
ENDBRANCH  10  24
BRANCH   9  28
HETATM   28  O2  UNL     1       8.108  41.593 -22.224  1.00  0.00    -0.298 OA
BRANCH  28  29
HETATM   29  C11 UNL     1       9.273  42.161 -21.738  1.00  0.00     0.402 C
HETATM   30  O3  UNL     1       9.795  43.114 -22.385  1.00  0.00    -0.276 OA
ENDBRANCH  28  29
ENDBRANCH   9  28
TORSDOF 7
ENDMDL