MODEL 2
REMARK VINA RESULT: -9.529224716      1.323      1.656
REMARK  7 active torsions:
REMARK  status: ('A' for Active; 'I' for Inactive)
REMARK    1  A    between atoms: C2_2  and  O1_3
REMARK    2  A    between atoms: C5_7  and  N1_8
REMARK    3  A    between atoms: N4_19  and  C11_21
REMARK    4  A    between atoms: C11_21  and  C12_22
REMARK    5  A    between atoms: C12_22  and  C13_23
REMARK    6  A    between atoms: C19_31  and  C20_32
REMARK    7  A    between atoms: C20_32  and  O4_33
ROOT
HETATM    1  N1  UNL     1      -0.956  34.424 -24.479  1.00  0.00    -0.310 N
HETATM    2  C6  UNL     1      -2.319  34.311 -24.497  1.00  0.00     0.186 A
HETATM    3  N2  UNL     1      -2.678  33.444 -23.525  1.00  0.00    -0.349 N
ATOM      4  H2  UNL     1      -3.628  33.155 -23.292  1.00  0.00     0.167 HD
HETATM    5  C7  UNL     1      -1.552  33.032 -22.923  1.00  0.00     0.087 A
HETATM    6  C8  UNL     1      -1.389  32.152 -21.879  1.00  0.00     0.078 A
HETATM    7 CL1  UNL     1      -2.759  31.392 -21.144  1.00  0.00    -0.080 Cl
HETATM    8  C9  UNL     1      -0.089  31.900 -21.446  1.00  0.00     0.116 A
HETATM    9  N3  UNL     1       0.979  32.488 -22.013  1.00  0.00    -0.349 N
ATOM     10  H3  UNL     1       1.912  32.274 -21.662  1.00  0.00     0.167 HD
HETATM   11  C10 UNL     1       0.843  33.351 -23.033  1.00  0.00     0.134 A
HETATM   12  N4  UNL     1       1.780  33.918 -23.593  1.00  0.00    -0.354 N
ATOM     13  H4  UNL     1       1.379  34.506 -24.324  1.00  0.00     0.166 HD
HETATM   14  C18 UNL     1      -0.463  33.629 -23.500  1.00  0.00     0.111 A
ENDROOT
BRANCH   1  15
HETATM   15  C5  UNL     1      -0.191  35.254 -25.363  1.00  0.00     0.229 C
HETATM   16  C4  UNL     1      -1.043  35.815 -26.509  1.00  0.00     0.057 C
HETATM   17  C3  UNL     1      -0.068  36.464 -27.452  1.00  0.00     0.044 C
HETATM   18  C2  UNL     1       0.624  37.573 -26.701  1.00  0.00     0.082 C
HETATM   19  C1  UNL     1       1.890  37.904 -27.503  1.00  0.00     0.049 C
HETATM   20  C19 UNL     1       1.053  37.207 -25.328  1.00  0.00     0.181 C
HETATM   21  O3  UNL     1       0.199  36.390 -24.634  1.00  0.00    -0.356 OA
BRANCH  18  22
HETATM   22  O1  UNL     1      -0.182  38.696 -26.775  1.00  0.00    -0.388 OA
ATOM     23  H1  UNL     1      -1.031  38.432 -26.441  1.00  0.00     0.210 HD
ENDBRANCH  18  22
BRANCH  20  24
HETATM   24  C20 UNL     1       1.200  38.492 -24.534  1.00  0.00     0.199 C
BRANCH  24  25
HETATM   25  O4  UNL     1       0.068  38.606 -23.729  1.00  0.00    -0.398 OA
ATOM     26  H4  UNL     1      -0.141  39.530 -23.673  1.00  0.00     0.209 HD
ENDBRANCH  24  25
ENDBRANCH  20  24
ENDBRANCH   1  15
BRANCH  12  27
HETATM   27  C11 UNL     1       3.138  34.087 -23.643  1.00  0.00     0.063 C
BRANCH  27  28
HETATM   28  C12 UNL     1       3.951  33.382 -24.685  1.00  0.00     0.049 C
BRANCH  28  29
HETATM   29  C13 UNL     1       4.473  32.069 -24.066  1.00  0.00    -0.006 C
HETATM   30  C14 UNL     1       5.826  31.802 -24.639  1.00  0.00     0.031 C
HETATM   31  C15 UNL     1       6.191  30.344 -24.688  1.00  0.00     0.168 C
HETATM   32  O2  UNL     1       5.212  29.536 -25.207  1.00  0.00    -0.391 OA
HETATM   33  C16 UNL     1       4.088  30.193 -25.645  1.00  0.00     0.168 C
HETATM   34  C17 UNL     1       3.521  30.984 -24.481  1.00  0.00     0.031 C
ENDBRANCH  28  29
ENDBRANCH  27  28
ENDBRANCH  12  27
TORSDOF 7
ENDMDL