MODEL 1
REMARK VINA RESULT: -8.360721586      0.000      0.000
REMARK  8 active torsions:
REMARK  status: ('A' for Active; 'I' for Inactive)
REMARK    1  A    between atoms: C6_6  and  O1_7
REMARK    2  A    between atoms: C8_10  and  O2_11
REMARK    3  A    between atoms: C16_22  and  C17_23
REMARK    4  A    between atoms: C17_23  and  C18_24
REMARK    5  A    between atoms: C18_24  and  C19_25
REMARK    6  A    between atoms: C19_25  and  C20_26
REMARK    7  A    between atoms: C20_26  and  C21_27
REMARK    8  A    between atoms: C21_27  and  O5_28
ROOT
HETATM    1  C1  UNL     1     -36.861  -6.901  26.099  1.00  0.00     0.015 C
HETATM    2  C2  UNL     1     -36.274  -8.036  25.303  1.00  0.00     0.048 C
HETATM    3  C3  UNL     1     -37.230  -9.239  25.330  1.00  0.00     0.017 C
HETATM    4  C4  UNL     1     -36.641 -10.192  24.302  1.00  0.00     0.019 C
HETATM    5  C5  UNL     1     -37.416 -11.442  24.135  1.00  0.00     0.046 C
HETATM    6  C6  UNL     1     -36.666 -12.444  25.022  1.00  0.00     0.073 C
HETATM    7  C7  UNL     1     -35.247 -12.021  25.021  1.00  0.00     0.079 C
HETATM    8  C8  UNL     1     -34.364 -12.728  24.049  1.00  0.00     0.127 C
HETATM    9  C9  UNL     1     -34.504 -14.229  24.322  1.00  0.00     0.033 C
HETATM   10  C10 UNL     1     -35.904 -14.577  23.926  1.00  0.00     0.014 C
HETATM   11  C11 UNL     1     -36.964 -13.835  24.659  1.00  0.00    -0.016 C
HETATM   12  C12 UNL     1     -38.198 -13.830  23.743  1.00  0.00     0.018 C
HETATM   13  C13 UNL     1     -37.372 -14.697  25.859  1.00  0.00     0.018 C
HETATM   14  C14 UNL     1     -35.247 -10.517  24.733  1.00  0.00     0.139 C
HETATM   15  O3  UNL     1     -34.806  -9.885  25.855  1.00  0.00    -0.346 OA
HETATM   16  C15 UNL     1     -34.949  -8.520  25.912  1.00  0.00     0.204 C
HETATM   17  O4  UNL     1     -35.068  -8.189  27.269  1.00  0.00    -0.319 OA
HETATM   18  C16 UNL     1     -33.881  -8.222  27.970  1.00  0.00     0.300 C
HETATM   19  O6  UNL     1     -32.782  -7.938  27.170  1.00  0.00    -0.207 OA
HETATM   20  O7  UNL     1     -33.215  -7.026  26.290  1.00  0.00    -0.222 OA
HETATM   21  C22 UNL     1     -33.768  -7.844  25.271  1.00  0.00     0.145 C
HETATM   22  C23 UNL     1     -34.117  -6.935  24.145  1.00  0.00     0.054 C
HETATM   23  C24 UNL     1     -32.662  -8.808  24.896  1.00  0.00     0.054 C
ENDROOT
BRANCH  18  24
HETATM   24  C17 UNL     1     -33.924  -7.190  29.061  1.00  0.00     0.064 C
BRANCH  24  25
HETATM   25  C18 UNL     1     -34.995  -7.335  30.077  1.00  0.00     0.005 C
BRANCH  25  26
HETATM   26  C19 UNL     1     -35.004  -6.410  31.226  1.00  0.00     0.002 C
BRANCH  26  27
HETATM   27  C20 UNL     1     -33.693  -5.661  31.298  1.00  0.00     0.026 C
BRANCH  27  28
HETATM   28  C21 UNL     1     -33.068  -5.856  32.636  1.00  0.00     0.164 C
BRANCH  28  29
HETATM   29  O5  UNL     1     -33.857  -6.743  33.424  1.00  0.00    -0.401 OA
ATOM     30  H5  UNL     1     -33.298  -7.357  33.886  1.00  0.00     0.209 HD
ENDBRANCH  28  29
ENDBRANCH  27  28
ENDBRANCH  26  27
ENDBRANCH  25  26
ENDBRANCH  24  25
ENDBRANCH  18  24
BRANCH   6  31
HETATM   31  O1  UNL     1     -37.174 -12.214  26.324  1.00  0.00    -0.388 OA
ATOM     32  H1  UNL     1     -36.557 -11.607  26.716  1.00  0.00     0.210 HD
ENDBRANCH   6  31
BRANCH   8  33
HETATM   33  O2  UNL     1     -34.590 -12.414  22.730  1.00  0.00    -0.395 OA
ATOM     34  H2  UNL     1     -35.158 -13.018  22.267  1.00  0.00     0.210 HD
ENDBRANCH   8  33
TORSDOF 8
ENDMDL