MODEL 2
REMARK VINA RESULT: -8.639037099      0.533      1.008
REMARK  6 active torsions:
REMARK  status: ('A' for Active; 'I' for Inactive)
REMARK    1  A    between atoms: N2_3  and  C2_5
REMARK    2  A    between atoms: C4_7  and  C5_8
REMARK    3  A    between atoms: C6_11  and  N4_12
REMARK    4  A    between atoms: N6_22  and  C14_23
REMARK    5  A    between atoms: C14_23  and  C15_24
REMARK    6  A    between atoms: C15_24  and  O1_25
ROOT
HETATM    1  N1  UNL     1     -38.071  -8.941  19.997  1.00  0.00    -0.172 NA
HETATM    2  C1  UNL     1     -38.087  -8.122  20.806  1.00  0.00     0.183 C
HETATM    3  N2  UNL     1     -38.096  -7.112  21.767  1.00  0.00    -0.278 N
ATOM      4  H2  UNL     1     -38.328  -6.162  21.477  1.00  0.00     0.179 HD
ENDROOT
BRANCH   3   5
HETATM    5  C2  UNL     1     -37.824  -7.327  23.002  1.00  0.00     0.131 A
HETATM    6  C3  UNL     1     -36.681  -8.026  23.409  1.00  0.00     0.083 A
HETATM    7  C4  UNL     1     -36.631  -8.122  24.763  1.00  0.00     0.079 A
HETATM    8  N7  UNL     1     -37.769  -7.458  25.145  1.00  0.00    -0.297 N
HETATM    9  N8  UNL     1     -38.440  -7.011  24.115  1.00  0.00    -0.284 N
ATOM     10  H7  UNL     1     -38.058  -7.328  26.114  1.00  0.00     0.187 HD
ATOM     11  H8  UNL     1     -39.316  -6.492  24.169  1.00  0.00     0.188 HD
BRANCH   7  12
HETATM   12  C5  UNL     1     -35.670  -8.533  25.780  1.00  0.00     0.075 A
HETATM   13  N3  UNL     1     -35.565  -7.734  26.849  1.00  0.00    -0.339 N
HETATM   14  C6  UNL     1     -34.594  -7.831  27.749  1.00  0.00     0.118 A
ATOM     15  H3  UNL     1     -36.270  -7.009  26.979  1.00  0.00     0.167 HD
HETATM   16  C12 UNL     1     -33.650  -8.809  27.557  1.00  0.00     0.054 A
HETATM   17  C13 UNL     1     -32.527  -9.106  28.280  1.00  0.00     0.124 A
HETATM   18  C16 UNL     1     -33.673  -9.708  26.468  1.00  0.00     0.079 A
HETATM   19  N5  UNL     1     -31.931 -10.088  27.675  1.00  0.00    -0.308 N
HETATM   20  N6  UNL     1     -32.615 -10.484  26.546  1.00  0.00    -0.289 N
ATOM     21  H5  UNL     1     -31.062 -10.515  27.996  1.00  0.00     0.186 HD
HETATM   22  C17 UNL     1     -34.758  -9.556  25.546  1.00  0.00     0.025 A
HETATM   23  C18 UNL     1     -35.189 -10.689  24.788  1.00  0.00    -0.065 C
HETATM   24  C19 UNL     1     -34.762 -11.413  23.622  1.00  0.00     0.035 C
HETATM   25  C23 UNL     1     -36.602 -11.164  25.175  1.00  0.00     0.035 C
HETATM   26  C20 UNL     1     -35.186 -12.920  23.744  1.00  0.00     0.004 C
HETATM   27  C21 UNL     1     -36.645 -13.088  23.618  1.00  0.00     0.001 C
HETATM   28  C22 UNL     1     -37.372 -11.905  24.164  1.00  0.00     0.004 C
BRANCH  14  29
HETATM   29  N4  UNL     1     -34.550  -6.996  28.902  1.00  0.00    -0.366 N
HETATM   30  C7  UNL     1     -33.250  -6.641  29.387  1.00  0.00     0.124 C
HETATM   31  C8  UNL     1     -33.271  -6.202  30.835  1.00  0.00     0.020 C
HETATM   32  C9  UNL     1     -34.449  -6.907  31.497  1.00  0.00     0.003 C
HETATM   33  C10 UNL     1     -35.693  -6.268  30.943  1.00  0.00     0.020 C
HETATM   34  C11 UNL     1     -35.791  -6.563  29.469  1.00  0.00     0.124 C
ENDBRANCH  14  29
BRANCH  20  35
HETATM   35  C14 UNL     1     -32.099 -11.509  25.730  1.00  0.00     0.175 C
BRANCH  35  36
HETATM   36  C15 UNL     1     -31.278 -10.860  24.603  1.00  0.00     0.185 C
BRANCH  36  37
HETATM   37  O1  UNL     1     -30.973 -11.911  23.717  1.00  0.00    -0.399 OA
ATOM     38  H1  UNL     1     -30.285 -12.406  24.146  1.00  0.00     0.209 HD
ENDBRANCH  36  37
ENDBRANCH  35  36
ENDBRANCH  20  35
ENDBRANCH   7  12
ENDBRANCH   3   5
TORSDOF 6
ENDMDL