MODEL 4
REMARK VINA RESULT: -7.723000672      1.804      2.752
REMARK  8 active torsions:
REMARK  status: ('A' for Active; 'I' for Inactive)
REMARK    1  A    between atoms: C4_6  and  C5_7
REMARK    2  A    between atoms: C9_11  and  N2_12
REMARK    3  A    between atoms: C10_15  and  S1_16
REMARK    4  A    between atoms: S1_16  and  N3_19
REMARK    5  A    between atoms: N3_19  and  C11_21
REMARK    6  A    between atoms: C17_27  and  C18_28
REMARK    7  A    between atoms: C18_28  and  O5_29
REMARK    8  A    between atoms: N4_31  and  O6_33
ROOT
HETATM    1  S1  UNL     1     -36.553  -9.191  25.894  1.00  0.00     0.263 S
HETATM    2  O3  UNL     1     -36.250  -7.890  26.650  1.00  0.00    -0.200 OA
HETATM    3  O4  UNL     1     -37.563  -9.984  26.673  1.00  0.00    -0.200 OA
ENDROOT
BRANCH   1   4
HETATM    4  C10 UNL     1     -35.056 -10.021  25.689  1.00  0.00     0.135 A
HETATM    5  C2  UNL     1     -33.924  -9.642  26.424  1.00  0.00     0.031 A
HETATM    6  C1  UNL     1     -34.034  -8.493  27.370  1.00  0.00     0.070 C
HETATM    7  N1  UNL     1     -32.770 -10.294  26.260  1.00  0.00    -0.368 N
HETATM    8  C3  UNL     1     -32.629 -11.317  25.410  1.00  0.00     0.098 A
ATOM      9  H1  UNL     1     -31.961  -9.999  26.806  1.00  0.00     0.165 HD
HETATM   10  C4  UNL     1     -33.731 -11.729  24.656  1.00  0.00    -0.001 A
HETATM   11  C9  UNL     1     -34.968 -11.073  24.798  1.00  0.00     0.136 A
BRANCH  10  12
HETATM   12  C5  UNL     1     -33.505 -12.823  23.721  1.00  0.00    -0.020 C
HETATM   13  C6  UNL     1     -31.992 -13.049  23.532  1.00  0.00     0.019 C
HETATM   14  C7  UNL     1     -33.956 -12.484  22.294  1.00  0.00     0.019 C
HETATM   15  C8  UNL     1     -34.041 -14.169  24.142  1.00  0.00     0.019 C
ENDBRANCH  10  12
BRANCH  11  16
HETATM   16  N2  UNL     1     -36.055 -11.597  24.082  1.00  0.00    -0.113 N
HETATM   17  O1  UNL     1     -36.508 -11.284  22.983  1.00  0.00    -0.532 OA
HETATM   18  O2  UNL     1     -36.769 -12.644  24.692  1.00  0.00    -0.532 OA
ENDBRANCH  11  16
ENDBRANCH   1   4
BRANCH   1  19
HETATM   19  N3  UNL     1     -37.310  -8.702  24.462  1.00  0.00    -0.309 N
ATOM     20  H3  UNL     1     -37.881  -9.345  23.912  1.00  0.00     0.172 HD
BRANCH  19  21
HETATM   21  C11 UNL     1     -37.112  -7.335  24.055  1.00  0.00     0.108 C
HETATM   22  C12 UNL     1     -38.336  -7.022  23.150  1.00  0.00     0.006 C
HETATM   23  C13 UNL     1     -38.441  -7.996  22.026  1.00  0.00     0.012 C
HETATM   24  C14 UNL     1     -38.345  -5.625  22.655  1.00  0.00     0.006 C
HETATM   25  C15 UNL     1     -36.969  -5.025  22.763  1.00  0.00     0.001 C
HETATM   26  C16 UNL     1     -36.000  -6.032  22.219  1.00  0.00     0.015 C
HETATM   27  C17 UNL     1     -35.847  -7.117  23.270  1.00  0.00     0.086 C
BRANCH  27  28
HETATM   28  C18 UNL     1     -34.688  -6.766  24.096  1.00  0.00     0.141 C
HETATM   29  N4  UNL     1     -33.515  -7.280  23.847  1.00  0.00    -0.251 N
ATOM     30  H4  UNL     1     -33.426  -7.929  23.066  1.00  0.00     0.196 HD
BRANCH  28  31
HETATM   31  O5  UNL     1     -34.747  -5.894  25.166  1.00  0.00    -0.348 OA
ATOM     32  H5  UNL     1     -34.966  -6.161  26.051  1.00  0.00     0.219 HD
ENDBRANCH  28  31
BRANCH  29  33
HETATM   33  O6  UNL     1     -32.397  -6.990  24.585  1.00  0.00    -0.288 OA
ATOM     34  H6  UNL     1     -31.772  -7.649  24.864  1.00  0.00     0.244 HD
ENDBRANCH  29  33
ENDBRANCH  27  28
ENDBRANCH  19  21
ENDBRANCH   1  19
TORSDOF 8
ENDMDL