MODEL 2
REMARK VINA RESULT: -8.704509710      1.094      1.290
REMARK  9 active torsions:
REMARK  status: ('A' for Active; 'I' for Inactive)
REMARK    1  A    between atoms: C3_3  and  O1_4
REMARK    2  A    between atoms: O1_4  and  C4_5
REMARK    3  A    between atoms: C4_5  and  C5_7
REMARK    4  A    between atoms: C5_7  and  C6_8
REMARK    5  A    between atoms: C6_8  and  C7_9
REMARK    6  A    between atoms: C7_9  and  C8_10
REMARK    7  A    between atoms: C17_20  and  O3_21
REMARK    8  A    between atoms: C18_23  and  O4_24
REMARK    9  A    between atoms: C22_30  and  O6_31
ROOT
HETATM    1  C1  UNL     1     -33.757  -8.694  24.408  1.00  0.00     0.017 C
HETATM    2  C2  UNL     1     -35.005  -8.900  24.137  1.00  0.00    -0.056 C
HETATM    3  C3  UNL     1     -35.622 -10.243  24.256  1.00  0.00     0.160 C
HETATM    4  C10 UNL     1     -37.045 -10.036  24.728  1.00  0.00     0.037 C
HETATM    5  C11 UNL     1     -37.219  -8.812  25.568  1.00  0.00     0.009 C
HETATM    6  C12 UNL     1     -36.763  -7.517  24.902  1.00  0.00     0.003 C
HETATM    7  C13 UNL     1     -35.908  -7.806  23.704  1.00  0.00     0.022 C
HETATM    8  C14 UNL     1     -35.090  -6.611  23.385  1.00  0.00     0.029 C
HETATM    9  C15 UNL     1     -35.914  -5.647  22.571  1.00  0.00     0.120 C
HETATM   10  N1  UNL     1     -36.920  -4.967  23.361  1.00  0.00    -0.384 N
HETATM   11  C16 UNL     1     -36.976  -3.632  22.999  1.00  0.00     0.146 C
HETATM   12  C17 UNL     1     -38.018  -5.783  23.528  1.00  0.00     0.164 C
HETATM   13  C18 UNL     1     -39.399  -5.125  23.642  1.00  0.00     0.212 C
HETATM   14  C19 UNL     1     -39.477  -4.185  24.761  1.00  0.00     0.042 A
HETATM   15  C20 UNL     1     -38.733  -4.497  25.879  1.00  0.00    -0.021 A
HETATM   16  C21 UNL     1     -38.958  -3.496  26.780  1.00  0.00     0.152 A
HETATM   17  O5  UNL     1     -39.790  -2.640  26.221  1.00  0.00    -0.299 OA
HETATM   18  C22 UNL     1     -40.128  -3.002  25.026  1.00  0.00     0.192 A
HETATM   19  C23 UNL     1     -37.909  -5.683  25.973  1.00  0.00     0.051 C
HETATM   20  C24 UNL     1     -37.888  -6.596  24.782  1.00  0.00     0.053 C
ENDROOT
BRANCH   3  21
HETATM   21  O1  UNL     1     -34.896 -11.124  25.043  1.00  0.00    -0.311 OA
BRANCH  21  22
HETATM   22  C4  UNL     1     -34.349 -12.271  24.415  1.00  0.00     0.259 C
HETATM   23  O2  UNL     1     -33.153 -12.571  24.654  1.00  0.00    -0.265 OA
BRANCH  22  24
HETATM   24  C5  UNL     1     -35.136 -13.103  23.509  1.00  0.00     0.111 C
BRANCH  24  25
HETATM   25  C6  UNL     1     -35.864 -14.168  24.269  1.00  0.00     0.010 C
BRANCH  25  26
HETATM   26  C7  UNL     1     -37.352 -14.070  24.227  1.00  0.00     0.000 C
BRANCH  26  27
HETATM   27  C8  UNL     1     -37.988 -15.388  24.639  1.00  0.00    -0.005 C
HETATM   28  C9  UNL     1     -37.703 -15.719  26.076  1.00  0.00     0.005 C
ENDBRANCH  26  27
ENDBRANCH  25  26
ENDBRANCH  24  25
ENDBRANCH  22  24
ENDBRANCH  21  22
ENDBRANCH   3  21
BRANCH  12  29
HETATM   29  O3  UNL     1     -38.191  -6.588  22.377  1.00  0.00    -0.368 OA
ATOM     30  H3  UNL     1     -39.100  -6.563  22.105  1.00  0.00     0.212 HD
ENDBRANCH  12  29
BRANCH  13  31
HETATM   31  O4  UNL     1     -39.868  -4.659  22.444  1.00  0.00    -0.386 OA
ATOM     32  H4  UNL     1     -39.657  -5.231  21.716  1.00  0.00     0.210 HD
ENDBRANCH  13  31
BRANCH  18  33
HETATM   33  O6  UNL     1     -40.975  -2.391  24.101  1.00  0.00    -0.340 OA
ATOM     34  H6  UNL     1     -41.667  -1.793  24.360  1.00  0.00     0.220 HD
ENDBRANCH  18  33
TORSDOF 9
ENDMDL