MODEL 5
REMARK VINA RESULT: -7.174815689      2.699      7.001
REMARK  9 active torsions:
REMARK  status: ('A' for Active; 'I' for Inactive)
REMARK    1  A    between atoms: C2_2  and  C3_3
REMARK    2  A    between atoms: C13_13  and  O1_14
REMARK    3  A    between atoms: C13_13  and  C14_16
REMARK    4  A    between atoms: C14_16  and  O2_17
REMARK    5  A    between atoms: O2_17  and  C15_18
REMARK    6  A    between atoms: C15_18  and  C16_20
REMARK    7  A    between atoms: C16_20  and  C17_21
REMARK    8  A    between atoms: C17_21  and  O4_23
REMARK    9  A    between atoms: C22_30  and  O7_31
ROOT
HETATM    1  C3  UNL     1     -34.045 -13.160  23.158  1.00  0.00     0.007 C
HETATM    2  C4  UNL     1     -33.052 -12.407  23.957  1.00  0.00     0.009 C
HETATM    3  C5  UNL     1     -32.943 -10.945  23.643  1.00  0.00     0.005 C
HETATM    4  C6  UNL     1     -31.747 -10.373  24.384  1.00  0.00    -0.018 C
HETATM    5  C7  UNL     1     -30.600 -11.360  24.489  1.00  0.00     0.010 C
HETATM    6  C8  UNL     1     -32.128  -9.999  25.779  1.00  0.00     0.008 C
HETATM    7  C9  UNL     1     -32.888  -8.678  25.869  1.00  0.00     0.028 C
HETATM    8  C10 UNL     1     -33.005  -8.284  27.279  1.00  0.00    -0.021 C
HETATM    9  C11 UNL     1     -34.049  -8.113  28.035  1.00  0.00    -0.049 C
HETATM   10  C12 UNL     1     -33.815  -7.694  29.476  1.00  0.00     0.046 C
HETATM   11  C13 UNL     1     -35.492  -8.267  27.676  1.00  0.00     0.124 C
HETATM   12  C19 UNL     1     -35.774  -9.451  26.782  1.00  0.00     0.223 C
HETATM   13  O5  UNL     1     -37.012 -10.043  27.218  1.00  0.00    -0.318 OA
HETATM   14  C20 UNL     1     -37.813 -10.699  26.303  1.00  0.00     0.261 C
HETATM   15  O6  UNL     1     -38.998 -10.950  26.714  1.00  0.00    -0.265 OA
HETATM   16  C21 UNL     1     -37.405 -11.108  24.949  1.00  0.00     0.142 C
HETATM   17  C22 UNL     1     -36.749 -12.467  25.036  1.00  0.00     0.127 C
HETATM   18  C23 UNL     1     -36.509 -13.088  23.700  1.00  0.00     0.033 C
HETATM   19  C24 UNL     1     -35.362 -12.451  22.944  1.00  0.00     0.011 C
ENDROOT
BRANCH  11  20
HETATM   20  O1  UNL     1     -36.207  -8.513  28.855  1.00  0.00    -0.381 OA
ATOM     21  H1  UNL     1     -35.729  -9.162  29.357  1.00  0.00     0.211 HD
ENDBRANCH  11  20
BRANCH  11  22
HETATM   22  C14 UNL     1     -36.046  -7.056  27.012  1.00  0.00     0.223 C
BRANCH  22  23
HETATM   23  O2  UNL     1     -37.111  -7.172  26.162  1.00  0.00    -0.318 OA
BRANCH  23  24
HETATM   24  C15 UNL     1     -37.380  -6.697  24.933  1.00  0.00     0.261 C
HETATM   25  O3  UNL     1     -38.487  -6.904  24.422  1.00  0.00    -0.265 OA
BRANCH  24  26
HETATM   26  C16 UNL     1     -36.305  -5.918  24.216  1.00  0.00     0.142 C
BRANCH  26  27
HETATM   27  C17 UNL     1     -35.588  -6.761  23.215  1.00  0.00     0.123 C
HETATM   28  C18 UNL     1     -34.086  -6.633  23.380  1.00  0.00     0.040 C
BRANCH  27  29
HETATM   29  O4  UNL     1     -35.924  -8.095  23.446  1.00  0.00    -0.395 OA
ATOM     30  H4  UNL     1     -35.993  -8.535  22.607  1.00  0.00     0.210 HD
ENDBRANCH  27  29
ENDBRANCH  26  27
ENDBRANCH  24  26
ENDBRANCH  23  24
ENDBRANCH  22  23
ENDBRANCH  11  22
BRANCH  17  31
HETATM   31  O7  UNL     1     -37.455 -13.351  25.844  1.00  0.00    -0.395 OA
ATOM     32  H7  UNL     1     -38.174 -13.769  25.386  1.00  0.00     0.210 HD
ENDBRANCH  17  31
BRANCH   1  33
HETATM   33  C2  UNL     1     -33.506 -13.727  21.893  1.00  0.00    -0.032 C
HETATM   34  C1  UNL     1     -32.531 -13.189  21.173  1.00  0.00     0.007 C
ENDBRANCH   1  33
TORSDOF 9
ENDMDL