MODEL 5
REMARK VINA RESULT: -6.662105898      2.538      4.473
REMARK  6 active torsions:
REMARK  status: ('A' for Active; 'I' for Inactive)
REMARK    1  A    between atoms: C6_7  and  C7_8
REMARK    2  A    between atoms: C6_7  and  O6_30
REMARK    3  A    between atoms: C7_8  and  C8_9
REMARK    4  A    between atoms: C12_13  and  O2_14
REMARK    5  A    between atoms: C13_16  and  C15_18
REMARK    6  A    between atoms: C17_21  and  O4_23
ROOT
HETATM    1  C8  UNL     1     -36.329  -6.286  23.934  1.00  0.00    -0.029 C
HETATM    2  C9  UNL     1     -35.204  -5.277  24.091  1.00  0.00     0.016 C
HETATM    3  C10 UNL     1     -36.329  -6.536  22.454  1.00  0.00     0.012 C
HETATM    4  C11 UNL     1     -37.700  -6.972  22.127  1.00  0.00     0.033 C
HETATM    5  C12 UNL     1     -38.425  -5.800  22.815  1.00  0.00     0.129 C
HETATM    6  C13 UNL     1     -37.682  -5.694  24.165  1.00  0.00     0.018 C
HETATM    7  C14 UNL     1     -38.566  -6.420  25.130  1.00  0.00     0.021 C
ENDROOT
BRANCH   1   8
HETATM    8  C7  UNL     1     -36.193  -7.445  24.825  1.00  0.00     0.056 C
BRANCH   8   9
HETATM    9  C6  UNL     1     -35.363  -8.617  24.596  1.00  0.00     0.121 C
HETATM   10  C5  UNL     1     -35.234  -9.339  25.935  1.00  0.00     0.161 C
HETATM   11  C4  UNL     1     -35.509  -8.834  27.292  1.00  0.00     0.086 C
HETATM   12  O1  UNL     1     -34.853 -10.486  25.913  1.00  0.00    -0.295 OA
HETATM   13  C3  UNL     1     -34.150  -8.448  27.880  1.00  0.00     0.041 C
HETATM   14  C2  UNL     1     -33.133  -8.420  26.768  1.00  0.00    -0.089 C
HETATM   15  C1  UNL     1     -32.082  -9.182  27.032  1.00  0.00     0.014 C
HETATM   16  C25 UNL     1     -33.176  -7.682  25.497  1.00  0.00     0.036 C
HETATM   17  C24 UNL     1     -33.866  -8.321  24.360  1.00  0.00     0.050 C
BRANCH   9  18
HETATM   18  O6  UNL     1     -35.688  -9.542  23.670  1.00  0.00    -0.377 OA
HETATM   19  C23 UNL     1     -36.898 -10.141  23.640  1.00  0.00     0.203 C
ENDBRANCH   9  18
ENDBRANCH   8   9
ENDBRANCH   1   8
BRANCH   6  20
HETATM   20  C15 UNL     1     -37.756  -4.225  24.526  1.00  0.00     0.158 C
HETATM   21  C16 UNL     1     -36.958  -3.806  25.695  1.00  0.00     0.204 C
HETATM   22  O3  UNL     1     -37.661  -2.999  26.608  1.00  0.00    -0.353 OA
HETATM   23  C17 UNL     1     -37.713  -1.667  26.170  1.00  0.00     0.160 C
HETATM   24  C18 UNL     1     -38.168  -0.738  27.250  1.00  0.00     0.078 C
HETATM   25  C19 UNL     1     -38.580  -1.657  24.958  1.00  0.00     0.105 C
HETATM   26  C20 UNL     1     -39.567  -2.769  24.859  1.00  0.00     0.059 C
HETATM   27  C21 UNL     1     -40.519  -2.795  26.066  1.00  0.00     0.045 C
HETATM   28  C22 UNL     1     -40.498  -2.342  23.699  1.00  0.00     0.045 C
HETATM   29  O5  UNL     1     -39.122  -4.003  24.648  1.00  0.00    -0.372 OA
BRANCH  23  30
HETATM   30  O4  UNL     1     -36.437  -1.214  25.760  1.00  0.00    -0.365 OA
ATOM     31  H4  UNL     1     -36.401  -0.265  25.736  1.00  0.00     0.213 HD
ENDBRANCH  23  30
ENDBRANCH   6  20
BRANCH   5  32
HETATM   32  O2  UNL     1     -38.098  -4.716  21.993  1.00  0.00    -0.395 OA
ATOM     33  H2  UNL     1     -38.082  -3.990  22.605  1.00  0.00     0.210 HD
ENDBRANCH   5  32
TORSDOF 6
ENDMDL