MODEL 1
REMARK VINA RESULT: -6.780600225      0.000      0.000
REMARK  9 active torsions:
REMARK  status: ('A' for Active; 'I' for Inactive)
REMARK    1  A    between atoms: C3_3  and  C5_5
REMARK    2  A    between atoms: C5_5  and  O2_7
REMARK    3  A    between atoms: O2_7  and  C6_8
REMARK    4  A    between atoms: C6_8  and  C7_9
REMARK    5  A    between atoms: C15_17  and  O3_18
REMARK    6  A    between atoms: C16_20  and  C17_21
REMARK    7  A    between atoms: C17_21  and  O4_23
REMARK    8  A    between atoms: C22_30  and  O7_31
REMARK    9  A    between atoms: C22_30  and  C23_33
ROOT
HETATM    1  C6  UNL     1     -38.331  -3.506  24.524  1.00  0.00     0.238 C
HETATM    2  O5  UNL     1     -36.957  -2.986  24.590  1.00  0.00    -0.275 OA
HETATM    3  C19 UNL     1     -37.092  -1.719  25.136  1.00  0.00     0.268 C
HETATM    4  O6  UNL     1     -36.333  -0.738  25.017  1.00  0.00    -0.265 OA
HETATM    5  C20 UNL     1     -38.348  -1.758  25.912  1.00  0.00     0.121 C
HETATM    6  C21 UNL     1     -38.304  -1.060  27.197  1.00  0.00     0.024 C
HETATM    7  C22 UNL     1     -38.521  -3.309  25.970  1.00  0.00     0.131 C
ENDROOT
BRANCH   1   8
HETATM    8  O2  UNL     1     -38.933  -2.480  23.765  1.00  0.00    -0.271 OA
BRANCH   8   9
HETATM    9  C5  UNL     1     -39.901  -2.610  22.794  1.00  0.00     0.291 C
HETATM   10  O1  UNL     1     -39.573  -2.651  21.621  1.00  0.00    -0.260 OA
BRANCH   9  11
HETATM   11  C3  UNL     1     -41.330  -2.703  23.139  1.00  0.00     0.009 C
HETATM   12  C2  UNL     1     -41.848  -1.862  24.004  1.00  0.00    -0.018 C
HETATM   13  C1  UNL     1     -43.278  -1.959  24.345  1.00  0.00     0.036 C
HETATM   14  C4  UNL     1     -42.175  -3.748  22.504  1.00  0.00     0.054 C
ENDBRANCH   9  11
ENDBRANCH   8   9
ENDBRANCH   1   8
BRANCH   1  15
HETATM   15  C7  UNL     1     -38.351  -4.842  23.855  1.00  0.00    -0.006 C
HETATM   16  C8  UNL     1     -38.637  -5.976  24.807  1.00  0.00     0.041 C
HETATM   17  C9  UNL     1     -37.679  -7.083  24.957  1.00  0.00     0.017 C
HETATM   18  C10 UNL     1     -37.296  -7.577  23.636  1.00  0.00    -0.009 C
HETATM   19  C11 UNL     1     -38.410  -8.102  22.811  1.00  0.00     0.018 C
HETATM   20  C12 UNL     1     -36.153  -8.586  23.811  1.00  0.00     0.012 C
HETATM   21  C15 UNL     1     -36.534  -6.437  23.003  1.00  0.00     0.091 C
HETATM   22  C13 UNL     1     -34.977  -7.725  24.215  1.00  0.00     0.004 C
HETATM   23  C14 UNL     1     -35.314  -6.303  23.820  1.00  0.00     0.043 C
HETATM   24  C16 UNL     1     -37.333  -5.166  22.823  1.00  0.00    -0.009 C
BRANCH  21  25
HETATM   25  O3  UNL     1     -36.187  -7.053  21.775  1.00  0.00    -0.384 OA
ATOM     26  H3  UNL     1     -36.823  -6.630  21.210  1.00  0.00     0.211 HD
ENDBRANCH  21  25
BRANCH  24  27
HETATM   27  C17 UNL     1     -36.393  -4.187  22.249  1.00  0.00     0.146 C
HETATM   28  C18 UNL     1     -36.330  -3.985  20.786  1.00  0.00     0.044 C
BRANCH  27  29
HETATM   29  O4  UNL     1     -35.083  -4.705  22.545  1.00  0.00    -0.391 OA
ATOM     30  H4  UNL     1     -34.623  -3.989  22.968  1.00  0.00     0.210 HD
ENDBRANCH  27  29
ENDBRANCH  24  27
ENDBRANCH   1  15
BRANCH   7  31
HETATM   31  O7  UNL     1     -39.736  -3.459  26.526  1.00  0.00    -0.383 OA
ATOM     32  H7  UNL     1     -40.205  -2.709  26.872  1.00  0.00     0.210 HD
ENDBRANCH   7  31
BRANCH   7  33
HETATM   33  C23 UNL     1     -37.349  -3.727  26.848  1.00  0.00     0.040 C
HETATM   34  C24 UNL     1     -37.693  -4.493  28.066  1.00  0.00     0.008 C
ENDBRANCH   7  33
TORSDOF 9
ENDMDL