MODEL 5
REMARK VINA RESULT: -8.565907200      1.296      1.610
REMARK  9 active torsions:
REMARK  status: ('A' for Active; 'I' for Inactive)
REMARK    1  A    between atoms: C4_4  and  C5_5
REMARK    2  A    between atoms: C5_5  and  C6_6
REMARK    3  A    between atoms: C6_6  and  C7_7
REMARK    4  A    between atoms: C12_13  and  O2_15
REMARK    5  A    between atoms: C14_17  and  O3_18
REMARK    6  A    between atoms: O3_18  and  C15_19
REMARK    7  A    between atoms: C15_19  and  C16_21
REMARK    8  A    between atoms: C18_24  and  O5_26
REMARK    9  A    between atoms: C20_28  and  O6_29
ROOT
HETATM    1  C7  UNL     1     -35.189 -12.204  23.550  1.00  0.00     0.004 C
HETATM    2  C8  UNL     1     -36.608 -11.787  23.212  1.00  0.00     0.022 C
HETATM    3  C9  UNL     1     -34.551 -12.740  22.331  1.00  0.00    -0.011 C
HETATM    4  C10 UNL     1     -33.202 -12.758  22.324  1.00  0.00     0.050 C
HETATM    5  C11 UNL     1     -32.476 -12.258  23.487  1.00  0.00     0.185 C
HETATM    6  O1  UNL     1     -31.362 -12.735  23.815  1.00  0.00    -0.290 OA
HETATM    7  C12 UNL     1     -33.034 -11.158  24.333  1.00  0.00     0.145 C
HETATM    8  C13 UNL     1     -32.799 -11.446  25.748  1.00  0.00     0.057 C
HETATM    9  C14 UNL     1     -34.452 -10.928  23.892  1.00  0.00     0.185 C
ENDROOT
BRANCH   9  10
HETATM   10  O3  UNL     1     -35.134  -9.929  24.522  1.00  0.00    -0.310 OA
BRANCH  10  11
HETATM   11  C15 UNL     1     -35.322  -8.635  24.232  1.00  0.00     0.278 C
HETATM   12  O4  UNL     1     -34.538  -8.112  23.449  1.00  0.00    -0.263 OA
BRANCH  11  13
HETATM   13  C16 UNL     1     -36.425  -7.838  24.816  1.00  0.00     0.098 C
HETATM   14  C17 UNL     1     -37.042  -8.721  25.892  1.00  0.00     0.038 C
HETATM   15  S1  UNL     1     -37.692  -7.440  23.585  1.00  0.00    -0.109 SA
HETATM   16  C18 UNL     1     -36.961  -6.267  22.415  1.00  0.00     0.129 C
HETATM   17  C19 UNL     1     -38.020  -5.256  22.023  1.00  0.00     0.061 C
HETATM   18  C20 UNL     1     -35.774  -5.605  23.070  1.00  0.00     0.163 C
HETATM   19  C21 UNL     1     -35.996  -5.358  24.537  1.00  0.00     0.042 C
HETATM   20  C22 UNL     1     -35.911  -6.555  25.396  1.00  0.00     0.012 C
HETATM   21  C23 UNL     1     -36.734  -6.273  26.660  1.00  0.00     0.012 C
BRANCH  16  22
HETATM   22  O5  UNL     1     -36.551  -6.982  21.300  1.00  0.00    -0.377 OA
ATOM     23  H5  UNL     1     -37.165  -7.695  21.171  1.00  0.00     0.211 HD
ENDBRANCH  16  22
BRANCH  18  24
HETATM   24  O6  UNL     1     -35.677  -4.321  22.476  1.00  0.00    -0.392 OA
ATOM     25  H6  UNL     1     -35.805  -4.460  21.545  1.00  0.00     0.210 HD
ENDBRANCH  18  24
ENDBRANCH  11  13
ENDBRANCH  10  11
ENDBRANCH   9  10
BRANCH   1  26
HETATM   26  C6  UNL     1     -35.229 -13.222  24.581  1.00  0.00     0.019 C
BRANCH  26  27
HETATM   27  C5  UNL     1     -35.924 -14.480  24.191  1.00  0.00     0.028 C
BRANCH  27  28
HETATM   28  C4  UNL     1     -37.369 -14.487  24.077  1.00  0.00    -0.025 C
HETATM   29  C2  UNL     1     -38.130 -15.091  24.976  1.00  0.00    -0.091 C
HETATM   30  C1  UNL     1     -37.629 -15.810  26.167  1.00  0.00     0.042 C
HETATM   31  C3  UNL     1     -39.618 -15.040  24.774  1.00  0.00     0.042 C
ENDBRANCH  27  28
ENDBRANCH  26  27
ENDBRANCH   1  26
BRANCH   7  32
HETATM   32  O2  UNL     1     -32.250 -10.025  24.011  1.00  0.00    -0.379 OA
ATOM     33  H2  UNL     1     -31.792 -10.267  23.215  1.00  0.00     0.211 HD
ENDBRANCH   7  32
TORSDOF 9
ENDMDL