MODEL 1
REMARK VINA RESULT: -9.182605074      0.000      0.000
REMARK  7 active torsions:
REMARK  status: ('A' for Active; 'I' for Inactive)
REMARK       I    between atoms: N1_5  and  C5_6
REMARK    1  A    between atoms: C5_6  and  O2_8
REMARK    2  A    between atoms: O2_8  and  C6_9
REMARK    3  A    between atoms: C6_9  and  N2_11
REMARK    4  A    between atoms: N2_11  and  C7_13
REMARK    5  A    between atoms: C9_18  and  S2_19
REMARK    6  A    between atoms: S2_19  and  C10_20
REMARK    7  A    between atoms: C10_20  and  C11_21
ROOT
HETATM    1  C7  UNL     1     -33.378  -9.846  25.172  1.00  0.00     0.145 A
HETATM    2  C8  UNL     1     -32.742 -10.971  25.635  1.00  0.00     0.150 A
HETATM    3  N3  UNL     1     -31.723 -10.840  26.597  1.00  0.00    -0.080 NA
HETATM    4  N4  UNL     1     -33.141 -12.178  25.124  1.00  0.00    -0.323 N
ATOM      5  H4  UNL     1     -32.681 -13.027  25.453  1.00  0.00     0.169 HD
HETATM    6  C9  UNL     1     -34.098 -12.283  24.221  1.00  0.00     0.148 A
HETATM    7  N5  UNL     1     -34.717 -11.182  23.772  1.00  0.00    -0.302 N
ATOM      8  H5  UNL     1     -35.455 -11.269  23.075  1.00  0.00     0.171 HD
HETATM    9  C17 UNL     1     -34.373  -9.948  24.235  1.00  0.00     0.277 A
HETATM   10  O3  UNL     1     -34.962  -8.934  23.803  1.00  0.00    -0.266 OA
ENDROOT
BRANCH   1  11
HETATM   11  N2  UNL     1     -33.015  -8.572  25.657  1.00  0.00    -0.320 N
ATOM     12  H2  UNL     1     -32.246  -8.084  25.197  1.00  0.00     0.169 HD
BRANCH  11  13
HETATM   13  C6  UNL     1     -33.652  -7.934  26.743  1.00  0.00     0.224 C
HETATM   14  S1  UNL     1     -33.176  -8.265  28.254  1.00  0.00    -0.032 SA
BRANCH  13  15
HETATM   15  O2  UNL     1     -34.670  -7.040  26.524  1.00  0.00    -0.233 OA
BRANCH  15  16
HETATM   16  C5  UNL     1     -35.963  -7.377  26.228  1.00  0.00     0.369 C
HETATM   17  N1  UNL     1     -36.712  -6.638  25.276  1.00  0.00    -0.328 N
HETATM   18  C4  UNL     1     -38.082  -6.954  24.928  1.00  0.00     0.128 C
HETATM   19  C18 UNL     1     -36.086  -5.513  24.615  1.00  0.00     0.128 C
HETATM   20  C3  UNL     1     -38.826  -5.649  24.736  1.00  0.00     0.024 C
HETATM   21  C2  UNL     1     -38.186  -4.618  25.620  1.00  0.00    -0.015 C
HETATM   22  C1  UNL     1     -38.994  -3.327  25.647  1.00  0.00     0.010 C
HETATM   23  C19 UNL     1     -36.817  -4.271  25.052  1.00  0.00     0.024 C
HETATM   24  O1  UNL     1     -36.445  -8.370  26.843  1.00  0.00    -0.238 OA
ENDBRANCH  15  16
ENDBRANCH  13  15
ENDBRANCH  11  13
ENDBRANCH   1  11
BRANCH   6  25
HETATM   25  S2  UNL     1     -34.583 -13.867  23.588  1.00  0.00    -0.093 SA
BRANCH  25  26
HETATM   26  C10 UNL     1     -35.746 -14.608  24.734  1.00  0.00     0.087 C
BRANCH  26  27
HETATM   27  C11 UNL     1     -37.182 -14.569  24.268  1.00  0.00    -0.005 C
HETATM   28  C12 UNL     1     -38.039 -15.595  24.923  1.00  0.00     0.005 C
HETATM   29  C13 UNL     1     -39.307 -15.031  25.510  1.00  0.00     0.000 C
HETATM   30  C14 UNL     1     -39.045 -13.815  26.368  1.00  0.00     0.000 C
HETATM   31  C15 UNL     1     -38.230 -12.768  25.683  1.00  0.00     0.000 C
HETATM   32  C16 UNL     1     -37.701 -13.171  24.352  1.00  0.00     0.005 C
ENDBRANCH  26  27
ENDBRANCH  25  26
ENDBRANCH   6  25
TORSDOF 7
ENDMDL