MODEL 3
REMARK VINA RESULT: -8.080656984      3.513      5.767
REMARK  5 active torsions:
REMARK  status: ('A' for Active; 'I' for Inactive)
REMARK    1  A    between atoms: C2_2  and  C3_3
REMARK    2  A    between atoms: C14_17  and  S1_18
REMARK    3  A    between atoms: S1_18  and  C15_19
REMARK    4  A    between atoms: C15_19  and  C16_20
REMARK    5  A    between atoms: C16_20  and  C17_21
ROOT
HETATM    1  C3  UNL     1     -34.760  -8.849  24.234  1.00  0.00     0.058 C
HETATM    2  C4  UNL     1     -34.131  -9.899  25.078  1.00  0.00     0.106 C
HETATM    3  C5  UNL     1     -35.253 -10.923  25.206  1.00  0.00     0.054 C
HETATM    4  C6  UNL     1     -36.537 -10.161  25.249  1.00  0.00    -0.008 C
HETATM    5  C7  UNL     1     -36.930  -9.888  26.681  1.00  0.00     0.018 C
HETATM    6  C8  UNL     1     -37.604 -10.875  24.481  1.00  0.00     0.038 C
HETATM    7  C9  UNL     1     -37.486 -10.245  23.112  1.00  0.00     0.169 C
HETATM    8  O1  UNL     1     -36.921  -9.007  23.257  1.00  0.00    -0.379 OA
HETATM    9  C10 UNL     1     -36.265  -8.930  24.453  1.00  0.00     0.071 C
HETATM   10  C11 UNL     1     -36.781  -7.689  25.191  1.00  0.00     0.047 C
HETATM   11  O2  UNL     1     -33.726  -9.438  26.326  1.00  0.00    -0.347 OA
HETATM   12  C12 UNL     1     -32.739 -10.389  26.643  1.00  0.00     0.258 C
HETATM   13  C13 UNL     1     -31.910  -9.940  27.823  1.00  0.00     0.071 C
HETATM   14  O3  UNL     1     -31.954 -10.354  25.495  1.00  0.00    -0.343 OA
HETATM   15  C14 UNL     1     -32.924 -10.566  24.493  1.00  0.00     0.221 C
ENDROOT
BRANCH  15  16
HETATM   16  S1  UNL     1     -33.218 -12.350  24.361  1.00  0.00    -0.134 SA
BRANCH  16  17
HETATM   17  C15 UNL     1     -34.641 -12.722  23.327  1.00  0.00     0.083 C
BRANCH  17  18
HETATM   18  C16 UNL     1     -34.893 -14.222  23.394  1.00  0.00     0.077 C
BRANCH  18  19
HETATM   19  C17 UNL     1     -36.121 -14.400  24.224  1.00  0.00     0.079 A
HETATM   20  C18 UNL     1     -35.962 -14.654  25.512  1.00  0.00     0.039 A
HETATM   21  C19 UNL     1     -37.124 -14.838  26.374  1.00  0.00     0.055 A
HETATM   22  C20 UNL     1     -38.363 -14.754  25.883  1.00  0.00     0.155 A
HETATM   23  N1  UNL     1     -39.655 -14.884  26.473  1.00  0.00    -0.310 N
HETATM   24  N4  UNL     1     -38.519 -14.485  24.519  1.00  0.00    -0.136 N
HETATM   25  C21 UNL     1     -40.605 -14.688  25.435  1.00  0.00     0.195 A
ATOM     26  H1  UNL     1     -39.858 -15.080  27.453  1.00  0.00     0.170 HD
HETATM   27  N2  UNL     1     -41.911 -14.725  25.552  1.00  0.00    -0.370 N
HETATM   28  N3  UNL     1     -39.888 -14.443  24.237  1.00  0.00    -0.242 N
ATOM     29  H22 UNL     1     -42.427 -14.901  26.414  1.00  0.00     0.159 HD
ATOM     30  H21 UNL     1     -42.594 -14.585  24.807  1.00  0.00     0.159 HD
ATOM     31  H3  UNL     1     -40.302 -14.266  23.321  1.00  0.00     0.192 HD
HETATM   32  O4  UNL     1     -37.392 -14.310  23.707  1.00  0.00    -0.218 OA
ENDBRANCH  18  19
ENDBRANCH  17  18
ENDBRANCH  16  17
ENDBRANCH  15  16
BRANCH   1  33
HETATM   33  C2  UNL     1     -34.253  -7.461  24.459  1.00  0.00     0.006 C
HETATM   34  C1  UNL     1     -33.959  -6.683  23.220  1.00  0.00     0.006 C
ENDBRANCH   1  33
TORSDOF 5
ENDMDL