MODEL 3
REMARK VINA RESULT: -6.215584476      2.517      5.220
REMARK  4 active torsions:
REMARK  status: ('A' for Active; 'I' for Inactive)
REMARK    1  A    between atoms: C4_4  and  S1_5
REMARK    2  A    between atoms: S1_5  and  N1_6
REMARK    3  A    between atoms: C5_11  and  N2_12
REMARK    4  A    between atoms: N2_12  and  C6_14
ROOT
HETATM    1  C1  UNL     1     -39.066   5.172  13.102  1.00  0.00     0.050 C
HETATM    2  C2  UNL     1     -40.232   4.436  13.690  1.00  0.00    -0.037 A
HETATM    3  C3  UNL     1     -41.231   3.970  12.898  1.00  0.00     0.036 A
HETATM    4  C4  UNL     1     -42.312   3.285  13.451  1.00  0.00     0.107 A
HETATM    5  C5  UNL     1     -42.413   3.051  14.813  1.00  0.00     0.077 A
HETATM    6  C11 UNL     1     -41.360   3.552  15.585  1.00  0.00     0.084 A
HETATM    7 CL1  UNL     1     -41.325   3.384  17.346  1.00  0.00    -0.080 Cl
HETATM    8  C12 UNL     1     -40.294   4.228  15.031  1.00  0.00     0.064 A
HETATM    9 CL2  UNL     1     -38.976   4.849  16.025  1.00  0.00    -0.082 Cl
ENDROOT
BRANCH   5  10
HETATM   10  N2  UNL     1     -43.483   2.378  15.438  1.00  0.00    -0.359 N
ATOM     11  H2  UNL     1     -43.531   1.369  15.292  1.00  0.00     0.162 HD
BRANCH  10  12
HETATM   12  C6  UNL     1     -44.519   2.955  16.263  1.00  0.00     0.303 C
HETATM   13  N3  UNL     1     -45.136   4.015  15.541  1.00  0.00    -0.044 N
HETATM   14  C7  UNL     1     -46.332   4.472  16.203  1.00  0.00     0.309 C
ATOM     15  H32 UNL     1     -44.485   4.782  15.372  1.00  0.00     0.280 HD
ATOM     16  H31 UNL     1     -45.321   3.751  14.573  1.00  0.00     0.280 HD
HETATM   17  S2  UNL     1     -47.109   2.865  16.555  1.00  0.00    -0.129 SA
HETATM   18  C8  UNL     1     -45.551   1.936  16.663  1.00  0.00     0.048 C
HETATM   19  C9  UNL     1     -45.585   0.720  15.803  1.00  0.00     0.030 C
HETATM   20  C10 UNL     1     -45.408   1.502  18.109  1.00  0.00     0.030 C
ENDBRANCH  10  12
ENDBRANCH   5  10
BRANCH   4  21
HETATM   21  S1  UNL     1     -43.545   2.729  12.377  1.00  0.00     0.259 S
HETATM   22  O1  UNL     1     -43.715   1.213  12.543  1.00  0.00    -0.201 OA
HETATM   23  O2  UNL     1     -44.911   3.262  12.665  1.00  0.00    -0.201 OA
BRANCH  21  24
HETATM   24  N1  UNL     1     -43.061   2.904  10.728  1.00  0.00    -0.324 N
ATOM     25  H12 UNL     1     -42.135   2.653  10.382  1.00  0.00     0.169 HD
ATOM     26  H11 UNL     1     -43.817   3.287  10.161  1.00  0.00     0.169 HD
ENDBRANCH  21  24
ENDBRANCH   4  21
TORSDOF 4
ENDMDL