MODEL 2
REMARK VINA RESULT: -7.151282283      3.544      7.361
REMARK  7 active torsions:
REMARK  status: ('A' for Active; 'I' for Inactive)
REMARK    1  A    between atoms: O1_1  and  C1_3
REMARK    2  A    between atoms: C7_10  and  C8_11
REMARK    3  A    between atoms: C8_11  and  O2_12
REMARK    4  A    between atoms: O2_12  and  C9_13
REMARK    5  A    between atoms: C10_14  and  C11_15
REMARK    6  A    between atoms: C13_19  and  O3_20
REMARK    7  A    between atoms: C14_22  and  O4_23
ROOT
HETATM    1  C1  UNL     1     -43.794   6.273  13.915  1.00  0.00     0.126 C
HETATM    2  C2  UNL     1     -45.030   6.902  13.294  1.00  0.00     0.032 C
HETATM    3  C3  UNL     1     -46.163   6.625  14.268  1.00  0.00     0.002 C
HETATM    4  C4  UNL     1     -46.079   5.117  14.550  1.00  0.00     0.001 C
HETATM    5  C5  UNL     1     -45.947   4.349  13.281  1.00  0.00     0.015 C
HETATM    6  C6  UNL     1     -44.611   4.228  12.701  1.00  0.00     0.057 C
HETATM    7  S1  UNL     1     -44.111   2.463  12.567  1.00  0.00    -0.154 SA
HETATM    8  C7  UNL     1     -42.298   2.447  12.560  1.00  0.00     0.104 C
HETATM    9  C13 UNL     1     -41.766   3.153  13.790  1.00  0.00     0.163 C
HETATM   10  C14 UNL     1     -42.830   4.034  14.435  1.00  0.00     0.155 C
HETATM   11  C15 UNL     1     -43.489   4.928  13.373  1.00  0.00     0.059 C
ENDROOT
BRANCH   8  12
HETATM   12  C8  UNL     1     -41.801   1.017  12.564  1.00  0.00     0.205 C
BRANCH  12  13
HETATM   13  O2  UNL     1     -41.860   0.513  11.242  1.00  0.00    -0.302 OA
BRANCH  13  14
HETATM   14  C9  UNL     1     -40.857   0.682  10.342  1.00  0.00     0.060 C
HETATM   15  C10 UNL     1     -39.939   0.826   9.544  1.00  0.00    -0.023 C
BRANCH  15  16
HETATM   16  C11 UNL     1     -38.850   0.982   8.622  1.00  0.00     0.100 C
HETATM   17 CL1  UNL     1     -38.610   2.507   7.801  1.00  0.00    -0.073 Cl
HETATM   18  C12 UNL     1     -38.013  -0.007   8.372  1.00  0.00     0.117 C
HETATM   19 CL2  UNL     1     -38.234  -1.552   9.187  1.00  0.00    -0.095 Cl
ENDBRANCH  15  16
ENDBRANCH  13  14
ENDBRANCH  12  13
ENDBRANCH   8  12
BRANCH   9  20
HETATM   20  O3  UNL     1     -41.412   2.196  14.757  1.00  0.00    -0.392 OA
ATOM     21  H3  UNL     1     -42.134   2.082  15.363  1.00  0.00     0.210 HD
ENDBRANCH   9  20
BRANCH  10  22
HETATM   22  O4  UNL     1     -42.185   4.865  15.349  1.00  0.00    -0.392 OA
ATOM     23  H4  UNL     1     -41.904   4.323  16.076  1.00  0.00     0.210 HD
ENDBRANCH  10  22
BRANCH   1  24
HETATM   24  O1  UNL     1     -42.738   7.176  13.650  1.00  0.00    -0.395 OA
ATOM     25  H1  UNL     1     -41.949   6.735  13.943  1.00  0.00     0.210 HD
ENDBRANCH   1  24
TORSDOF 7
ENDMDL