MODEL 1
REMARK VINA RESULT: -7.045972515      0.000      0.000
REMARK  4 active torsions:
REMARK  status: ('A' for Active; 'I' for Inactive)
REMARK    1  A    between atoms: C2_2  and  C5_5
REMARK    2  A    between atoms: C6_9  and  C7_10
REMARK    3  A    between atoms: C8_13  and  C9_14
REMARK       I    between atoms: C9_14  and  N3_16
REMARK    4  A    between atoms: N3_16  and  N4_18
REMARK       I    between atoms: N4_18  and  C10_20
ROOT
HETATM    1  C5  UNL     1     -48.778   3.136  12.983  1.00  0.00     0.078 A
HETATM    2  N1  UNL     1     -47.830   3.245  13.881  1.00  0.00    -0.288 N
ATOM      3  H1  UNL     1     -47.923   2.761  14.774  1.00  0.00     0.188 HD
HETATM    4  N2  UNL     1     -46.791   3.951  13.650  1.00  0.00    -0.232 N
HETATM    5  C6  UNL     1     -45.619   4.238  14.332  1.00  0.00     0.102 A
HETATM    6  C8  UNL     1     -44.815   5.035  13.567  1.00  0.00     0.132 A
HETATM    7  N6  UNL     1     -45.499   5.245  12.407  1.00  0.00    -0.329 N
ATOM      8  H6  UNL     1     -45.177   5.805  11.617  1.00  0.00     0.168 HD
HETATM    9  C11 UNL     1     -46.686   4.580  12.481  1.00  0.00     0.173 A
HETATM   10  S1  UNL     1     -48.140   4.122  11.715  1.00  0.00    -0.037 SA
ENDROOT
BRANCH   6  11
HETATM   11  C9  UNL     1     -43.460   5.561  13.847  1.00  0.00     0.288 C
HETATM   12  O1  UNL     1     -43.198   6.463  14.660  1.00  0.00    -0.264 OA
HETATM   13  N3  UNL     1     -42.385   4.959  13.107  1.00  0.00    -0.261 N
ATOM     14  H3  UNL     1     -42.553   4.216  12.429  1.00  0.00     0.190 HD
BRANCH  13  15
HETATM   15  N4  UNL     1     -41.099   5.439  13.359  1.00  0.00    -0.251 N
HETATM   16  C10 UNL     1     -40.022   4.729  12.727  1.00  0.00     0.347 C
HETATM   17  N5  UNL     1     -38.715   5.185  12.964  1.00  0.00    -0.038 NA
HETATM   18  O2  UNL     1     -40.216   3.739  11.992  1.00  0.00    -0.249 OA
ATOM     19  H4  UNL     1     -40.934   6.248  13.958  1.00  0.00     0.191 HD
ENDBRANCH  13  15
ENDBRANCH   6  11
BRANCH   5  20
HETATM   20  C7  UNL     1     -45.301   3.716  15.704  1.00  0.00     0.232 C
HETATM   21 CL1  UNL     1     -46.762   4.195  16.697  1.00  0.00    -0.101 Cl
HETATM   22 CL2  UNL     1     -45.240   1.944  15.744  1.00  0.00    -0.101 Cl
ENDBRANCH   5  20
BRANCH   1  23
HETATM   23  C2  UNL     1     -50.046   2.333  13.024  1.00  0.00    -0.001 C
HETATM   24  C1  UNL     1     -51.186   3.316  13.250  1.00  0.00     0.021 C
HETATM   25  C3  UNL     1     -50.177   1.549  11.770  1.00  0.00     0.021 C
HETATM   26  C4  UNL     1     -49.870   1.427  14.250  1.00  0.00     0.021 C
ENDBRANCH   1  23
TORSDOF 4
ENDMDL