MODEL 5
REMARK VINA RESULT: -6.720856347      4.897      6.580
REMARK  5 active torsions:
REMARK  status: ('A' for Active; 'I' for Inactive)
REMARK    1  A    between atoms: C7_9  and  C9_11
REMARK    2  A    between atoms: C9_11  and  O3_12
REMARK    3  A    between atoms: O3_12  and  C10_13
REMARK    4  A    between atoms: C10_13  and  N1_15
REMARK    5  A    between atoms: N1_15  and  N2_17
ROOT
HETATM    1  C1  UNL     1     -47.343   1.356  15.909  1.00  0.00     0.027 C
HETATM    2  C2  UNL     1     -47.377   2.520  15.322  1.00  0.00     0.030 C
HETATM    3  C3  UNL     1     -48.098   2.979  14.149  1.00  0.00     0.290 C
HETATM    4  O1  UNL     1     -48.868   2.249  13.472  1.00  0.00    -0.260 OA
HETATM    5  O2  UNL     1     -47.781   4.335  13.935  1.00  0.00    -0.310 OA
HETATM    6  C4  UNL     1     -47.284   4.914  15.097  1.00  0.00     0.156 C
HETATM    7  C5  UNL     1     -46.256   5.979  14.708  1.00  0.00     0.035 C
HETATM    8  C6  UNL     1     -45.202   5.673  13.769  1.00  0.00     0.018 C
HETATM    9  C7  UNL     1     -43.825   5.229  14.216  1.00  0.00     0.024 C
HETATM   10  C8  UNL     1     -43.139   6.295  14.992  1.00  0.00     0.022 C
HETATM   11  C11 UNL     1     -43.890   3.911  15.050  1.00  0.00     0.174 C
HETATM   12 CL1  UNL     1     -42.724   4.086  16.386  1.00  0.00    -0.087 Cl
HETATM   13 CL2  UNL     1     -43.236   2.559  14.050  1.00  0.00    -0.087 Cl
HETATM   14  C12 UNL     1     -45.229   3.713  15.463  1.00  0.00    -0.123 C
HETATM   15  C13 UNL     1     -46.604   3.700  15.798  1.00  0.00     0.070 C
HETATM   16  C14 UNL     1     -46.935   3.793  17.299  1.00  0.00     0.036 C
ENDROOT
BRANCH   9  17
HETATM   17  C9  UNL     1     -43.024   4.960  12.954  1.00  0.00     0.191 C
BRANCH  17  18
HETATM   18  O3  UNL     1     -41.731   5.529  13.052  1.00  0.00    -0.325 OA
BRANCH  18  19
HETATM   19  C10 UNL     1     -40.621   4.778  12.697  1.00  0.00     0.228 C
HETATM   20  S1  UNL     1     -40.623   3.772  11.413  1.00  0.00    -0.032 SA
BRANCH  19  21
HETATM   21  N1  UNL     1     -39.443   4.891  13.483  1.00  0.00    -0.277 N
ATOM     22  H1  UNL     1     -38.576   5.197  13.041  1.00  0.00     0.189 HD
BRANCH  21  23
HETATM   23  N2  UNL     1     -39.446   4.591  14.850  1.00  0.00    -0.343 N
ATOM     24  H22 UNL     1     -40.321   4.287  15.276  1.00  0.00     0.176 HD
ATOM     25  H21 UNL     1     -38.600   4.672  15.415  1.00  0.00     0.176 HD
ENDBRANCH  21  23
ENDBRANCH  19  21
ENDBRANCH  18  19
ENDBRANCH  17  18
ENDBRANCH   9  17
TORSDOF 5
ENDMDL