MODEL 3
REMARK VINA RESULT: -8.573158210      1.704      2.661
REMARK  3 active torsions:
REMARK  status: ('A' for Active; 'I' for Inactive)
REMARK    1  A    between atoms: C2_2  and  C3_3
REMARK    2  A    between atoms: C7_9  and  S1_10
REMARK    3  A    between atoms: S1_10  and  C8_11
REMARK       I    between atoms: N3_22  and  C14_23
ROOT
HETATM    1  C3  UNL     1     -42.171   5.128  14.180  1.00  0.00     0.087 C
HETATM    2  C4  UNL     1     -41.418   5.155  12.881  1.00  0.00     0.036 C
HETATM    3  C5  UNL     1     -41.229   3.757  12.297  1.00  0.00     0.042 C
HETATM    4  C6  UNL     1     -40.400   3.891  11.074  1.00  0.00     0.068 C
HETATM    5  N1  UNL     1     -40.391   2.818  10.186  1.00  0.00    -0.358 N
ATOM      6  H1  UNL     1     -39.666   2.886   9.472  1.00  0.00     0.166 HD
HETATM    7  C7  UNL     1     -41.092   1.792  10.089  1.00  0.00     0.112 C
HETATM    8  S2  UNL     1     -42.401   1.567  11.295  1.00  0.00    -0.098 SA
HETATM    9  C12 UNL     1     -42.607   3.205  12.051  1.00  0.00     0.081 C
HETATM   10  C13 UNL     1     -43.357   3.108  13.348  1.00  0.00     0.142 C
HETATM   11  N3  UNL     1     -42.751   3.822  14.430  1.00  0.00    -0.350 N
HETATM   12  C14 UNL     1     -42.740   3.219  15.718  1.00  0.00     0.184 C
HETATM   13  N4  UNL     1     -43.720   2.462  16.067  1.00  0.00    -0.374 N
ATOM     14  H41 UNL     1     -43.712   2.030  16.991  1.00  0.00     0.158 HD
ATOM     15  H42 UNL     1     -44.489   2.304  15.416  1.00  0.00     0.158 HD
HETATM   16  N5  UNL     1     -41.673   3.438  16.621  1.00  0.00    -0.064 NA
ENDROOT
BRANCH   7  17
HETATM   17  S1  UNL     1     -40.928   0.509   8.861  1.00  0.00    -0.061 SA
BRANCH  17  18
HETATM   18  C8  UNL     1     -39.478  -0.485   9.092  1.00  0.00     0.066 A
HETATM   19  C9  UNL     1     -39.314  -1.825   9.264  1.00  0.00     0.112 A
HETATM   20  N2  UNL     1     -37.987  -2.067   9.398  1.00  0.00    -0.339 N
HETATM   21  C10 UNL     1     -37.302  -0.932   9.318  1.00  0.00     0.228 A
ATOM     22  H2  UNL     1     -37.574  -2.988   9.540  1.00  0.00     0.167 HD
HETATM   23  F1  UNL     1     -35.948  -0.844   9.414  1.00  0.00    -0.183 F
HETATM   24  C11 UNL     1     -38.208   0.064   9.128  1.00  0.00     0.190 A
HETATM   25  F2  UNL     1     -37.863   1.382   9.000  1.00  0.00    -0.200 F
ENDBRANCH  17  18
ENDBRANCH   7  17
BRANCH   1  26
HETATM   26  C2  UNL     1     -43.258   6.194  14.105  1.00  0.00     0.021 C
HETATM   27  C1  UNL     1     -43.890   6.469  15.429  1.00  0.00     0.007 C
ENDBRANCH   1  26
TORSDOF 3
ENDMDL