MODEL 2
REMARK VINA RESULT: -8.513573291      1.481      2.054
REMARK  2 active torsions:
REMARK  status: ('A' for Active; 'I' for Inactive)
REMARK    1  A    between atoms: C8_18  and  N5_19
REMARK    2  A    between atoms: N5_19  and  C9_21
ROOT
HETATM    1  C1  UNL     1     -45.907   5.601  14.515  1.00  0.00     0.045 C
HETATM    2  C2  UNL     1     -45.017   4.461  14.976  1.00  0.00     0.222 C
HETATM    3  N1  UNL     1     -44.176   4.958  16.042  1.00  0.00    -0.046 N
ATOM      4  H11 UNL     1     -44.712   5.163  16.885  1.00  0.00     0.280 HD
ATOM      5  H12 UNL     1     -43.834   5.899  15.847  1.00  0.00     0.280 HD
HETATM    6  C3  UNL     1     -43.074   4.018  16.308  1.00  0.00     0.295 C
HETATM    7  C4  UNL     1     -42.491   4.399  17.610  1.00  0.00     0.066 C
HETATM    8  C5  UNL     1     -41.206   3.706  17.966  1.00  0.00     0.086 C
HETATM    9  S1  UNL     1     -39.934   4.115  16.710  1.00  0.00    -0.094 SA
HETATM   10  C6  UNL     1     -40.822   4.233  15.166  1.00  0.00     0.143 C
HETATM   11  N2  UNL     1     -40.161   4.501  14.074  1.00  0.00    -0.380 N
ATOM     12  H21 UNL     1     -40.668   4.569  13.192  1.00  0.00     0.158 HD
ATOM     13  H22 UNL     1     -39.151   4.646  14.066  1.00  0.00     0.158 HD
HETATM   14  N3  UNL     1     -42.217   4.033  15.178  1.00  0.00    -0.283 N
HETATM   15  C7  UNL     1     -42.844   3.817  13.888  1.00  0.00     0.136 A
HETATM   16  N4  UNL     1     -42.123   3.432  12.844  1.00  0.00    -0.176 N
ATOM     17  H4  UNL     1     -41.118   3.286  12.942  1.00  0.00     0.186 HD
HETATM   18  C8  UNL     1     -42.740   3.230  11.623  1.00  0.00     0.679 A
HETATM   19  N6  UNL     1     -44.061   3.429  11.518  1.00  0.00    -0.201 N
ATOM     20  H6  UNL     1     -44.522   3.282  10.620  1.00  0.00     0.183 HD
HETATM   21  C15 UNL     1     -44.788   3.820  12.580  1.00  0.00     0.119 A
HETATM   22  C16 UNL     1     -44.204   4.031  13.817  1.00  0.00     0.033 A
ENDROOT
BRANCH  18  23
HETATM   23  N5  UNL     1     -42.002   2.870  10.689  1.00  0.00    -0.221 N
ATOM     24  H5  UNL     1     -41.779   3.651  10.072  1.00  0.00     0.178 HD
BRANCH  23  25
HETATM   25  C9  UNL     1     -41.395   1.695  10.252  1.00  0.00     0.099 C
HETATM   26  C10 UNL     1     -42.331   0.591   9.774  1.00  0.00     0.031 C
HETATM   27  C11 UNL     1     -41.517  -0.695   9.819  1.00  0.00     0.081 C
HETATM   28  C12 UNL     1     -40.256  -0.638   9.026  1.00  0.00     0.243 C
HETATM   29  F1  UNL     1     -39.439  -1.681   9.481  1.00  0.00    -0.206 F
HETATM   30  F2  UNL     1     -40.535  -0.891   7.711  1.00  0.00    -0.206 F
HETATM   31  C13 UNL     1     -39.453   0.629   9.210  1.00  0.00     0.081 C
HETATM   32  C14 UNL     1     -40.349   1.856   9.144  1.00  0.00     0.031 C
ENDBRANCH  23  25
ENDBRANCH  18  23
TORSDOF 2
ENDMDL