MODEL 3
REMARK VINA RESULT: -7.882737345      2.357      2.823
REMARK  4 active torsions:
REMARK  status: ('A' for Active; 'I' for Inactive)
REMARK    1  A    between atoms: C2_2  and  C4_4
REMARK    2  A    between atoms: C8_10  and  N1_11
REMARK    3  A    between atoms: C15_23  and  O1_24
REMARK    4  A    between atoms: C16_26  and  O2_27
ROOT
HETATM    1  N1  UNL     1     -41.595   2.902  11.852  1.00  0.00    -0.320 N
HETATM    2  C9  UNL     1     -40.784   3.295  10.886  1.00  0.00     0.185 A
HETATM    3  N2  UNL     1     -40.749   2.388   9.923  1.00  0.00    -0.348 N
ATOM      4  H2  UNL     1     -40.204   2.438   9.062  1.00  0.00     0.167 HD
HETATM    5  C10 UNL     1     -41.565   1.387  10.291  1.00  0.00     0.100 A
HETATM    6  C11 UNL     1     -42.060   0.159   9.898  1.00  0.00     0.090 A
HETATM    7  C12 UNL     1     -41.769  -0.554   8.700  1.00  0.00     0.103 C
HETATM    8  N3  UNL     1     -41.517  -1.140   7.736  1.00  0.00    -0.191 NA
HETATM    9  C13 UNL     1     -42.907  -0.257  10.903  1.00  0.00     0.115 A
HETATM   10  N4  UNL     1     -42.927   0.680  11.870  1.00  0.00    -0.349 N
ATOM     11  H4  UNL     1     -43.471   0.629  12.732  1.00  0.00     0.167 HD
HETATM   12  C14 UNL     1     -42.105   1.706  11.514  1.00  0.00     0.137 A
ENDROOT
BRANCH   1  13
HETATM   13  C8  UNL     1     -41.956   3.546  13.099  1.00  0.00     0.124 C
HETATM   14  C7  UNL     1     -43.429   3.397  13.423  1.00  0.00     0.044 C
HETATM   15  C6  UNL     1     -43.900   4.748  13.869  1.00  0.00     0.033 A
HETATM   16  C4  UNL     1     -45.124   4.968  14.627  1.00  0.00     0.043 A
HETATM   17  C5  UNL     1     -45.039   5.369  13.154  1.00  0.00     0.129 A
HETATM   18  C16 UNL     1     -42.646   5.498  14.182  1.00  0.00     0.161 C
HETATM   19 CL1  UNL     1     -44.884   7.077  12.747  1.00  0.00    -0.100 Cl
HETATM   20 CL2  UNL     1     -45.855   4.329  11.960  1.00  0.00    -0.100 Cl
HETATM   21  C15 UNL     1     -41.738   5.063  13.028  1.00  0.00     0.171 C
BRANCH  16  22
HETATM   22  C2  UNL     1     -46.157   3.919  14.891  1.00  0.00    -0.015 C
HETATM   23  C1  UNL     1     -45.830   3.081  16.113  1.00  0.00     0.010 C
HETATM   24  C3  UNL     1     -47.485   4.614  15.103  1.00  0.00     0.010 C
ENDBRANCH  16  22
BRANCH  18  25
HETATM   25  O2  UNL     1     -42.791   6.861  14.250  1.00  0.00    -0.392 OA
ATOM     26  H2  UNL     1     -43.245   7.175  15.023  1.00  0.00     0.210 HD
ENDBRANCH  18  25
BRANCH  21  27
HETATM   27  O1  UNL     1     -40.424   5.406  13.241  1.00  0.00    -0.391 OA
ATOM     28  H1  UNL     1     -40.036   5.820  12.479  1.00  0.00     0.210 HD
ENDBRANCH  21  27
ENDBRANCH   1  13
TORSDOF 4
ENDMDL