MODEL 1
REMARK VINA RESULT: -6.786834987      0.000      0.000
REMARK  5 active torsions:
REMARK  status: ('A' for Active; 'I' for Inactive)
REMARK    1  A    between atoms: C3_3  and  C4_4
REMARK    2  A    between atoms: N1_9  and  N2_10
REMARK    3  A    between atoms: N2_10  and  C7_12
REMARK    4  A    between atoms: C7_12  and  N3_14
REMARK    5  A    between atoms: N3_14  and  N4_16
ROOT
HETATM    1  C4  UNL     1     -42.379   1.989   9.939  1.00  0.00     0.213 C
HETATM    2  S1  UNL     1     -44.024   2.622   9.397  1.00  0.00    -0.127 SA
HETATM    3  C5  UNL     1     -44.582   1.001   8.714  1.00  0.00     0.181 C
HETATM    4  C6  UNL     1     -43.893   0.142   9.712  1.00  0.00     0.249 C
HETATM    5  O1  UNL     1     -44.475  -0.892  10.189  1.00  0.00    -0.271 OA
HETATM    6  N1  UNL     1     -42.594   0.593  10.045  1.00  0.00    -0.238 N
ENDROOT
BRANCH   6   7
HETATM    7  N2  UNL     1     -41.605  -0.354  10.438  1.00  0.00    -0.269 N
ATOM      8  H2  UNL     1     -41.682  -0.808  11.348  1.00  0.00     0.190 HD
BRANCH   7   9
HETATM    9  C7  UNL     1     -40.510  -0.679   9.585  1.00  0.00     0.205 C
HETATM   10  S2  UNL     1     -39.797   0.512   8.725  1.00  0.00    -0.038 SA
BRANCH   9  11
HETATM   11  N3  UNL     1     -40.037  -2.004   9.477  1.00  0.00    -0.282 N
ATOM     12  H3  UNL     1     -40.687  -2.783   9.578  1.00  0.00     0.189 HD
BRANCH  11  13
HETATM   13  N4  UNL     1     -38.689  -2.257   9.232  1.00  0.00    -0.343 N
ATOM     14  H42 UNL     1     -38.046  -1.467   9.166  1.00  0.00     0.176 HD
ATOM     15  H41 UNL     1     -38.353  -3.213   9.120  1.00  0.00     0.176 HD
ENDBRANCH  11  13
ENDBRANCH   9  11
ENDBRANCH   7   9
ENDBRANCH   6   7
BRANCH   1  16
HETATM   16  C3  UNL     1     -41.995   2.639  11.213  1.00  0.00     0.026 A
HETATM   17  C2  UNL     1     -40.945   3.469  11.487  1.00  0.00    -0.022 A
HETATM   18  C1  UNL     1     -39.989   3.855  10.373  1.00  0.00     0.051 C
HETATM   19  C9  UNL     1     -40.818   3.910  12.751  1.00  0.00     0.069 A
HETATM   20  C8  UNL     1     -41.752   3.490  13.655  1.00  0.00     0.097 A
HETATM   21 CL2  UNL     1     -39.508   5.001  13.300  1.00  0.00    -0.081 Cl
HETATM   22  S3  UNL     1     -42.771   2.498  12.714  1.00  0.00    -0.077 SA
HETATM   23 CL1  UNL     1     -41.888   3.864  15.384  1.00  0.00    -0.074 Cl
ENDBRANCH   1  16
TORSDOF 5
ENDMDL