MODEL 5
REMARK VINA RESULT: -6.528665633      3.986      6.003
REMARK  2 active torsions:
REMARK  status: ('A' for Active; 'I' for Inactive)
REMARK    1  A    between atoms: C3_6  and  C4_7
REMARK    2  A    between atoms: N2_13  and  C9_14
ROOT
HETATM    1  C4  UNL     1     -46.034   3.898  15.903  1.00  0.00     0.116 C
HETATM    2  C5  UNL     1     -46.616   3.649  17.278  1.00  0.00     0.029 C
HETATM    3  C6  UNL     1     -45.559   3.890  18.336  1.00  0.00     0.024 C
HETATM    4  C7  UNL     1     -44.391   2.981  18.182  1.00  0.00     0.100 C
HETATM    5 CL1  UNL     1     -44.720   1.417  18.960  1.00  0.00    -0.123 Cl
HETATM    6  C8  UNL     1     -43.915   2.811  16.784  1.00  0.00     0.144 C
HETATM    7  N2  UNL     1     -44.629   3.614  15.807  1.00  0.00    -0.369 N
ENDROOT
BRANCH   7   8
HETATM    8  C9  UNL     1     -43.874   4.120  14.737  1.00  0.00     0.084 A
HETATM    9  C10 UNL     1     -43.506   5.428  14.671  1.00  0.00     0.090 A
HETATM   10  N3  UNL     1     -43.873   6.447  15.576  1.00  0.00    -0.099 NA
HETATM   11  C11 UNL     1     -42.717   5.841  13.591  1.00  0.00     0.120 A
HETATM   12  N4  UNL     1     -42.310   5.019  12.625  1.00  0.00    -0.330 N
HETATM   13  C12 UNL     1     -42.686   3.734  12.707  1.00  0.00     0.269 A
ATOM     14  H4  UNL     1     -41.735   5.354  11.853  1.00  0.00     0.168 HD
HETATM   15  O1  UNL     1     -42.282   2.974  11.766  1.00  0.00    -0.266 OA
HETATM   16  C13 UNL     1     -43.460   3.264  13.742  1.00  0.00     0.130 A
HETATM   17 CL2  UNL     1     -43.853   1.559  13.684  1.00  0.00    -0.076 Cl
ENDBRANCH   7   8
BRANCH   1  18
HETATM   18  C3  UNL     1     -46.906   3.399  14.827  1.00  0.00     0.219 C
HETATM   19  N1  UNL     1     -47.780   4.514  14.419  1.00  0.00    -0.056 N
HETATM   20  C2  UNL     1     -48.405   4.078  13.168  1.00  0.00     0.243 C
ATOM     21  H12 UNL     1     -47.297   5.410  14.346  1.00  0.00     0.279 HD
ATOM     22  H11 UNL     1     -48.448   4.796  15.136  1.00  0.00     0.279 HD
HETATM   23  C1  UNL     1     -49.602   4.944  12.904  1.00  0.00     0.051 C
HETATM   24  S1  UNL     1     -48.926   2.386  13.672  1.00  0.00    -0.135 SA
HETATM   25  C14 UNL     1     -47.877   2.300  15.199  1.00  0.00     0.111 C
ENDBRANCH   1  18
TORSDOF 2
ENDMDL