MODEL 2
REMARK VINA RESULT: -7.504448186      3.089      4.428
REMARK  2 active torsions:
REMARK  status: ('A' for Active; 'I' for Inactive)
REMARK    1  A    between atoms: O1_2  and  C2_3
REMARK    2  A    between atoms: C5_6  and  C6_7
ROOT
HETATM    1  C6  UNL     1     -43.203   4.114  13.259  1.00  0.00     0.111 C
HETATM    2  C7  UNL     1     -41.988   4.879  13.670  1.00  0.00     0.031 C
HETATM    3  C8  UNL     1     -41.476   4.541  15.046  1.00  0.00     0.030 C
HETATM    4  C9  UNL     1     -39.963   4.541  15.132  1.00  0.00     0.232 C
HETATM    5  N1  UNL     1     -39.672   4.522  16.578  1.00  0.00    -0.074 N
ATOM      6  H11 UNL     1     -40.079   5.329  17.051  1.00  0.00     0.277 HD
ATOM      7  H12 UNL     1     -38.686   4.711  16.763  1.00  0.00     0.277 HD
HETATM    8  C10 UNL     1     -40.091   3.295  17.183  1.00  0.00     0.259 C
HETATM    9  C11 UNL     1     -41.198   3.456  18.196  1.00  0.00     0.259 C
HETATM   10  N2  UNL     1     -42.060   2.295  18.130  1.00  0.00    -0.072 N
ATOM     11  H21 UNL     1     -41.533   1.448  18.340  1.00  0.00     0.277 HD
ATOM     12  H22 UNL     1     -42.324   2.102  17.164  1.00  0.00     0.277 HD
HETATM   13  C12 UNL     1     -43.224   2.379  18.960  1.00  0.00     0.258 C
HETATM   14  C13 UNL     1     -44.517   2.555  18.192  1.00  0.00     0.195 C
HETATM   15  O2  UNL     1     -44.196   2.994  16.922  1.00  0.00    -0.388 OA
HETATM   16  C14 UNL     1     -44.729   4.216  16.583  1.00  0.00     0.186 C
HETATM   17  C15 UNL     1     -44.829   4.266  15.063  1.00  0.00     0.140 C
HETATM   18  N3  UNL     1     -43.854   3.471  14.398  1.00  0.00    -0.411 N
ATOM     19  H3  UNL     1     -43.626   2.522  14.695  1.00  0.00     0.154 HD
ENDROOT
BRANCH   1  20
HETATM   20  C5  UNL     1     -42.857   3.132  12.211  1.00  0.00    -0.012 A
HETATM   21  C4  UNL     1     -41.688   2.421  12.171  1.00  0.00     0.014 A
HETATM   22  C3  UNL     1     -41.374   1.474  11.193  1.00  0.00     0.039 A
HETATM   23  C2  UNL     1     -42.332   1.267  10.217  1.00  0.00     0.091 A
HETATM   24  C17 UNL     1     -43.511   1.976  10.248  1.00  0.00     0.089 A
HETATM   25  C16 UNL     1     -43.816   2.902  11.205  1.00  0.00     0.067 A
HETATM   26 CL2  UNL     1     -44.726   1.708   8.992  1.00  0.00    -0.080 Cl
HETATM   27 CL1  UNL     1     -45.317   3.805  11.241  1.00  0.00    -0.082 Cl
BRANCH  23  28
HETATM   28  O1  UNL     1     -42.131   0.360   9.206  1.00  0.00    -0.354 OA
HETATM   29  C1  UNL     1     -41.032  -0.466   9.013  1.00  0.00     0.210 C
ENDBRANCH  23  28
ENDBRANCH   1  20
TORSDOF 2
ENDMDL