MODEL 3
REMARK VINA RESULT: -6.616254206      2.277      2.902
REMARK  4 active torsions:
REMARK  status: ('A' for Active; 'I' for Inactive)
REMARK    1  A    between atoms: N1_1  and  C1_5
REMARK    2  A    between atoms: C6_15  and  N4_16
REMARK    3  A    between atoms: N4_16  and  N5_18
REMARK    4  A    between atoms: C7_20  and  C8_21
ROOT
HETATM    1  C1  UNL     1      41.675   3.743 -14.126  1.00  0.00     0.448 C
HETATM    2  N2  UNL     1      42.521   3.715 -15.302  1.00  0.00    -0.039 N
ATOM      3  H21 UNL     1      42.364   2.863 -15.840  1.00  0.00     0.280 HD
ATOM      4  H22 UNL     1      43.497   3.574 -15.041  1.00  0.00     0.280 HD
HETATM    5  C2  UNL     1      42.382   4.872 -16.134  1.00  0.00     0.235 C
HETATM    6  C3  UNL     1      43.698   5.631 -16.220  1.00  0.00     0.029 C
HETATM    7  C4  UNL     1      43.938   6.460 -14.976  1.00  0.00     0.021 C
HETATM    8  C5  UNL     1      44.463   5.566 -13.859  1.00  0.00     0.121 C
HETATM    9  N3  UNL     1      43.393   5.215 -12.944  1.00  0.00    -0.376 N
ATOM     10  H3  UNL     1      43.526   5.616 -12.016  1.00  0.00     0.160 HD
HETATM   11  C6  UNL     1      42.306   4.511 -13.028  1.00  0.00     0.150 C
ENDROOT
BRANCH  11  12
HETATM   12  N4  UNL     1      41.533   4.436 -11.844  1.00  0.00    -0.286 N
ATOM     13  H4  UNL     1      41.360   5.290 -11.313  1.00  0.00     0.188 HD
BRANCH  12  14
HETATM   14  N5  UNL     1      40.999   3.233 -11.376  1.00  0.00    -0.309 N
HETATM   15  C7  UNL     1      41.360   2.818 -10.218  1.00  0.00     0.127 C
ATOM     16  H5  UNL     1      40.339   2.699 -11.941  1.00  0.00     0.186 HD
BRANCH  15  17
HETATM   17  C8  UNL     1      40.829   1.551  -9.667  1.00  0.00     0.043 A
HETATM   18  S1  UNL     1      41.436  -0.045  -9.902  1.00  0.00    -0.099 SA
HETATM   19  C9  UNL     1      40.303  -0.904  -8.966  1.00  0.00     0.052 A
HETATM   20  C10 UNL     1      39.482   0.084  -8.495  1.00  0.00     0.032 A
HETATM   21  C11 UNL     1      39.752   1.339  -8.854  1.00  0.00     0.053 A
HETATM   22 CL1  UNL     1      38.771   2.734  -8.320  1.00  0.00    -0.083 Cl
ENDBRANCH  15  17
ENDBRANCH  12  14
ENDBRANCH  11  12
BRANCH   1  23
HETATM   23  N1  UNL     1      40.360   4.316 -14.446  1.00  0.00    -0.043 N
ATOM     24  H13 UNL     1      40.151   4.251 -15.442  1.00  0.00     0.277 HD
ATOM     25  H12 UNL     1      39.600   3.736 -14.092  1.00  0.00     0.277 HD
ATOM     26  H11 UNL     1      40.293   5.275 -14.107  1.00  0.00     0.277 HD
ENDBRANCH   1  23
TORSDOF 4
ENDMDL