MODEL 1
REMARK VINA RESULT: -7.631902627      0.000      0.000
REMARK  3 active torsions:
REMARK  status: ('A' for Active; 'I' for Inactive)
REMARK    1  A    between atoms: C2_2  and  C4_4
REMARK    2  A    between atoms: C5_9  and  C6_10
REMARK    3  A    between atoms: C7_14  and  N4_15
REMARK       I    between atoms: N4_15  and  C8_17
ROOT
HETATM    1  C6  UNL     1      42.610  -0.274  -8.543  1.00  0.00     0.116 A
HETATM    2  N3  UNL     1      42.353  -1.140  -7.570  1.00  0.00    -0.255 N
ATOM      3  H3  UNL     1      42.921  -1.297  -6.738  1.00  0.00     0.195 HD
HETATM    4  O1  UNL     1      41.244  -1.749  -7.872  1.00  0.00    -0.217 OA
HETATM    5  C7  UNL     1      40.741  -1.338  -9.000  1.00  0.00     0.197 A
HETATM    6  C9  UNL     1      41.609  -0.365  -9.477  1.00  0.00     0.118 A
HETATM    7 CL1  UNL     1      41.383   0.504 -10.966  1.00  0.00    -0.077 Cl
ENDROOT
BRANCH   1   8
HETATM    8  C5  UNL     1      43.753   0.625  -8.623  1.00  0.00     0.121 A
HETATM    9  N2  UNL     1      45.039   0.396  -8.375  1.00  0.00    -0.291 N
HETATM   10  N1  UNL     1      45.888   1.318  -8.503  1.00  0.00    -0.297 N
ATOM     11  H2  UNL     1      45.340  -0.532  -8.078  1.00  0.00     0.187 HD
HETATM   12  C4  UNL     1      45.502   2.529  -8.888  1.00  0.00     0.071 A
ATOM     13  H1  UNL     1      46.873   1.135  -8.310  1.00  0.00     0.187 HD
HETATM   14  S1  UNL     1      43.820   2.296  -9.068  1.00  0.00    -0.054 SA
BRANCH  12  15
HETATM   15  C2  UNL     1      46.378   3.704  -9.082  1.00  0.00     0.036 C
HETATM   16  C1  UNL     1      47.812   3.363  -8.782  1.00  0.00     0.016 C
HETATM   17  C3  UNL     1      46.197   4.163 -10.523  1.00  0.00     0.016 C
ENDBRANCH  12  15
ENDBRANCH   1   8
BRANCH   5  18
HETATM   18  N4  UNL     1      39.665  -1.764  -9.530  1.00  0.00    -0.308 N
HETATM   19  C8  UNL     1      38.422  -1.162  -9.224  1.00  0.00     0.188 C
HETATM   20  N5  UNL     1      37.330  -1.515  -9.832  1.00  0.00    -0.373 N
HETATM   21  N6  UNL     1      38.326  -0.140  -8.232  1.00  0.00    -0.064 NA
ATOM     22  H52 UNL     1      37.398  -2.245 -10.542  1.00  0.00     0.158 HD
ATOM     23  H51 UNL     1      36.434  -1.081  -9.611  1.00  0.00     0.158 HD
ATOM     24  H4  UNL     1      39.699  -2.547 -10.183  1.00  0.00     0.170 HD
ENDBRANCH   5  18
TORSDOF 3
ENDMDL