MODEL 5
REMARK VINA RESULT: -6.561107694      1.846      2.668
REMARK  4 active torsions:
REMARK  status: ('A' for Active; 'I' for Inactive)
REMARK    1  A    between atoms: C2_2  and  C4_4
REMARK    2  A    between atoms: C5_7  and  N2_8
REMARK    3  A    between atoms: C9_13  and  C10_14
REMARK    4  A    between atoms: C10_14  and  N3_15
ROOT
HETATM    1  N2  UNL     1      44.060   3.696 -13.877  1.00  0.00    -0.341 N
HETATM    2  C6  UNL     1      45.323   4.191 -13.386  1.00  0.00     0.170 C
HETATM    3  C7  UNL     1      45.937   5.284 -14.172  1.00  0.00     0.121 C
HETATM    4  C8  UNL     1      47.212   4.778 -14.852  1.00  0.00     0.054 C
HETATM    5  F1  UNL     1      46.393   6.235 -13.243  1.00  0.00    -0.241 F
HETATM    6  C9  UNL     1      45.068   5.972 -15.163  1.00  0.00     0.054 C
HETATM    7  C11 UNL     1      44.008   5.157 -15.797  1.00  0.00     0.040 C
HETATM    8  C12 UNL     1      43.843   3.763 -15.299  1.00  0.00     0.029 C
HETATM    9  C13 UNL     1      44.721   2.794 -16.060  1.00  0.00     0.038 C
HETATM   10  C14 UNL     1      42.397   3.309 -15.553  1.00  0.00     0.038 C
ENDROOT
BRANCH   1  11
HETATM   11  C5  UNL     1      43.069   3.161 -12.976  1.00  0.00     0.191 C
HETATM   12  N1  UNL     1      42.779   1.943 -12.743  1.00  0.00    -0.341 N
HETATM   13  C4  UNL     1      41.725   1.800 -11.772  1.00  0.00     0.202 C
ATOM     14  H1  UNL     1      43.242   1.154 -13.195  1.00  0.00     0.164 HD
HETATM   15  N5  UNL     1      41.676   3.081 -11.135  1.00  0.00    -0.113 NA
HETATM   16  N4  UNL     1      42.199   3.927 -12.148  1.00  0.00    -0.273 N
ATOM     17  H4  UNL     1      41.987   4.918 -12.264  1.00  0.00     0.185 HD
BRANCH  13  18
HETATM   18  C2  UNL     1      42.100   0.689 -10.804  1.00  0.00     0.018 C
HETATM   19  C1  UNL     1      42.450   1.365  -9.483  1.00  0.00     0.013 C
HETATM   20  C3  UNL     1      43.286  -0.052 -11.384  1.00  0.00     0.013 C
ENDBRANCH  13  18
ENDBRANCH   1  11
BRANCH   6  21
HETATM   21  C10 UNL     1      44.501   7.288 -14.627  1.00  0.00     0.237 C
BRANCH  21  22
HETATM   22  N3  UNL     1      43.263   7.127 -13.945  1.00  0.00    -0.079 N
ATOM     23  H33 UNL     1      42.511   6.917 -14.602  1.00  0.00     0.274 HD
ATOM     24  H32 UNL     1      43.257   6.264 -13.402  1.00  0.00     0.274 HD
ATOM     25  H31 UNL     1      43.020   7.927 -13.360  1.00  0.00     0.274 HD
ENDBRANCH  21  22
ENDBRANCH   6  21
TORSDOF 4
ENDMDL