MODEL 3
REMARK VINA RESULT: -6.164413836      3.239      3.842
REMARK  5 active torsions:
REMARK  status: ('A' for Active; 'I' for Inactive)
REMARK    1  A    between atoms: C3_5  and  N2_6
REMARK    2  A    between atoms: N2_6  and  C4_8
REMARK    3  A    between atoms: C4_8  and  C5_9
REMARK    4  A    between atoms: C8_12  and  O1_13
REMARK    5  A    between atoms: C9_15  and  O2_16
ROOT
HETATM    1  C4  UNL     1      41.206   0.257  -9.719  1.00  0.00     0.159 C
ENDROOT
BRANCH   1   2
HETATM    2  N2  UNL     1      42.523  -0.022 -10.184  1.00  0.00    -0.367 N
ATOM      3  H2  UNL     1      42.695  -0.768 -10.859  1.00  0.00     0.161 HD
BRANCH   2   4
HETATM    4  C3  UNL     1      43.512   0.713  -9.716  1.00  0.00     0.146 A
HETATM    5  N1  UNL     1      44.683   0.310  -9.231  1.00  0.00    -0.339 N
HETATM    6  C2  UNL     1      45.539   1.204  -8.811  1.00  0.00     0.036 A
ATOM      7  H1  UNL     1      44.910  -0.683  -9.188  1.00  0.00     0.168 HD
HETATM    8  C1  UNL     1      46.905   0.838  -8.240  1.00  0.00     0.070 C
HETATM    9  C10 UNL     1      45.172   2.521  -8.898  1.00  0.00     0.100 A
HETATM   10  S1  UNL     1      43.614   2.418  -9.578  1.00  0.00    -0.040 SA
HETATM   11 CL1  UNL     1      46.108   3.949  -8.413  1.00  0.00    -0.074 Cl
ENDBRANCH   2   4
ENDBRANCH   1   2
BRANCH   1  12
HETATM   12  C5  UNL     1      40.726  -0.636  -8.623  1.00  0.00     0.079 C
HETATM   13  C6  UNL     1      41.818  -1.022  -7.658  1.00  0.00     0.048 C
HETATM   14  C7  UNL     1      39.982  -1.842  -9.140  1.00  0.00     0.076 C
HETATM   15  C8  UNL     1      38.646  -1.220  -9.533  1.00  0.00     0.176 C
HETATM   16  C9  UNL     1      38.563  -0.059  -8.588  1.00  0.00     0.286 C
HETATM   17  O3  UNL     1      39.745   0.039  -7.903  1.00  0.00    -0.347 OA
BRANCH  15  18
HETATM   18  O1  UNL     1      37.582  -2.063  -9.313  1.00  0.00    -0.391 OA
ATOM     19  H1  UNL     1      37.835  -2.979  -9.298  1.00  0.00     0.210 HD
ENDBRANCH  15  18
BRANCH  16  20
HETATM   20  O2  UNL     1      38.205   1.106  -9.266  1.00  0.00    -0.369 OA
ATOM     21  H2  UNL     1      38.414   1.037 -10.190  1.00  0.00     0.212 HD
ENDBRANCH  16  20
ENDBRANCH   1  12
TORSDOF 5
ENDMDL