MODEL 3
REMARK VINA RESULT: -7.280276244      2.273      2.738
REMARK  6 active torsions:
REMARK  status: ('A' for Active; 'I' for Inactive)
REMARK    1  A    between atoms: C2_2  and  O1_4
REMARK    2  A    between atoms: C2_2  and  C4_6
REMARK    3  A    between atoms: C6_10  and  C7_11
REMARK    4  A    between atoms: N2_17  and  C12_18
REMARK    5  A    between atoms: C12_18  and  O2_19
REMARK    6  A    between atoms: N3_21  and  O3_23
ROOT
HETATM    1  C7  UNL     1      43.037   3.338 -13.681  1.00  0.00     0.053 C
HETATM    2  C8  UNL     1      44.474   3.850 -13.564  1.00  0.00     0.097 C
HETATM    3  C9  UNL     1      44.668   5.274 -13.871  1.00  0.00     0.177 C
HETATM    4  F1  UNL     1      46.000   5.400 -14.316  1.00  0.00    -0.249 F
HETATM    5  C10 UNL     1      43.816   5.585 -15.084  1.00  0.00     0.058 C
HETATM    6  C11 UNL     1      42.404   5.528 -14.640  1.00  0.00     0.135 C
HETATM    7  N2  UNL     1      42.065   4.333 -13.790  1.00  0.00    -0.313 N
ENDROOT
BRANCH   1   8
HETATM    8  C6  UNL     1      42.878   2.210 -12.752  1.00  0.00     0.116 A
HETATM    9  C5  UNL     1      42.106   1.084 -12.801  1.00  0.00     0.129 A
HETATM   10  N1  UNL     1      42.391   0.373 -11.662  1.00  0.00    -0.345 N
HETATM   11  C4  UNL     1      43.298   1.044 -10.964  1.00  0.00     0.158 A
ATOM     12  H1  UNL     1      41.977  -0.521 -11.398  1.00  0.00     0.167 HD
HETATM   13  O4  UNL     1      43.573   2.115 -11.616  1.00  0.00    -0.291 OA
BRANCH  11  14
HETATM   14  C2  UNL     1      43.834   0.527  -9.651  1.00  0.00     0.115 C
HETATM   15  C1  UNL     1      44.668   1.524  -8.919  1.00  0.00     0.054 C
HETATM   16  C3  UNL     1      42.801  -0.107  -8.813  1.00  0.00     0.054 C
BRANCH  14  17
HETATM   17  O1  UNL     1      44.772  -0.516  -9.980  1.00  0.00    -0.382 OA
ATOM     18  H1  UNL     1      44.567  -1.202  -9.355  1.00  0.00     0.211 HD
ENDBRANCH  14  17
ENDBRANCH  11  14
ENDBRANCH   1   8
BRANCH   7  19
HETATM   19  C12 UNL     1      40.761   4.462 -13.322  1.00  0.00     0.243 C
HETATM   20  N3  UNL     1      39.816   4.902 -14.086  1.00  0.00    -0.232 N
ATOM     21  H3  UNL     1      40.029   5.169 -15.048  1.00  0.00     0.198 HD
BRANCH  19  22
HETATM   22  O2  UNL     1      40.463   4.102 -12.034  1.00  0.00    -0.331 OA
ATOM     23  H2  UNL     1      40.536   4.742 -11.335  1.00  0.00     0.221 HD
ENDBRANCH  19  22
BRANCH  20  24
HETATM   24  O3  UNL     1      38.511   5.018 -13.612  1.00  0.00    -0.287 OA
ATOM     25  H3  UNL     1      38.078   5.863 -13.580  1.00  0.00     0.244 HD
ENDBRANCH  20  24
ENDBRANCH   7  19
TORSDOF 6
ENDMDL