MODEL 1
REMARK VINA RESULT: -6.431416032      0.000      0.000
REMARK  6 active torsions:
REMARK  status: ('A' for Active; 'I' for Inactive)
REMARK    1  A    between atoms: C2_2  and  N1_4
REMARK    2  A    between atoms: C6_8  and  C7_9
REMARK       I    between atoms: C7_9  and  N2_11
REMARK    3  A    between atoms: N2_11  and  C8_13
REMARK    4  A    between atoms: C8_13  and  N3_15
REMARK    5  A    between atoms: N3_15  and  C9_17
REMARK    6  A    between atoms: C9_17  and  N4_20
ROOT
HETATM    1  C7  UNL     1      41.880   2.838 -11.557  1.00  0.00     0.277 C
HETATM    2  O1  UNL     1      43.024   3.235 -11.310  1.00  0.00    -0.266 OA
HETATM    3  N2  UNL     1      41.044   3.438 -12.500  1.00  0.00    -0.298 N
ATOM      4  H2  UNL     1      40.117   3.033 -12.629  1.00  0.00     0.171 HD
ENDROOT
BRANCH   3   5
HETATM    5  C8  UNL     1      41.373   4.543 -13.277  1.00  0.00     0.176 C
HETATM    6  S1  UNL     1      40.503   4.683 -14.706  1.00  0.00    -0.041 SA
BRANCH   5   7
HETATM    7  N3  UNL     1      42.336   5.520 -12.984  1.00  0.00    -0.335 N
ATOM      8  H3  UNL     1      42.132   6.216 -12.266  1.00  0.00     0.164 HD
BRANCH   7   9
HETATM    9  C9  UNL     1      43.619   5.571 -13.675  1.00  0.00     0.190 C
HETATM   10  C10 UNL     1      43.818   4.414 -14.602  1.00  0.00     0.070 C
HETATM   11  C11 UNL     1      43.705   6.864 -14.443  1.00  0.00     0.070 C
BRANCH   9  12
HETATM   12  N4  UNL     1      44.680   5.575 -12.700  1.00  0.00    -0.053 N
ATOM     13  H43 UNL     1      44.710   6.441 -12.164  1.00  0.00     0.277 HD
ATOM     14  H42 UNL     1      44.498   4.933 -11.928  1.00  0.00     0.277 HD
ATOM     15  H41 UNL     1      45.564   5.378 -13.169  1.00  0.00     0.277 HD
ENDBRANCH   9  12
ENDBRANCH   7   9
ENDBRANCH   5   7
ENDBRANCH   3   5
BRANCH   1  16
HETATM   16  C6  UNL     1      41.438   1.665 -10.780  1.00  0.00     0.139 A
HETATM   17  C5  UNL     1      41.957   0.395 -10.736  1.00  0.00     0.084 A
HETATM   18  C4  UNL     1      41.192  -0.325  -9.865  1.00  0.00     0.137 A
HETATM   19 CL1  UNL     1      43.353  -0.101 -11.671  1.00  0.00    -0.080 Cl
HETATM   20  N1  UNL     1      40.236   0.489  -9.396  1.00  0.00    -0.297 N
HETATM   21  N5  UNL     1      40.398   1.671  -9.953  1.00  0.00    -0.292 N
ATOM     22  H5  UNL     1      39.805   2.481  -9.774  1.00  0.00     0.187 HD
BRANCH  20  23
HETATM   23  C2  UNL     1      39.197   0.161  -8.449  1.00  0.00     0.099 C
HETATM   24  C1  UNL     1      38.410  -1.014  -8.979  1.00  0.00     0.034 C
HETATM   25  C3  UNL     1      38.302   1.398  -8.347  1.00  0.00     0.034 C
ENDBRANCH  20  23
ENDBRANCH   1  16
TORSDOF 6
ENDMDL