MODEL 4
REMARK VINA RESULT: -6.159877357      0.781      1.532
REMARK  7 active torsions:
REMARK  status: ('A' for Active; 'I' for Inactive)
REMARK    1  A    between atoms: C2_2  and  O1_4
REMARK    2  A    between atoms: O1_4  and  C4_5
REMARK    3  A    between atoms: C4_5  and  C5_7
REMARK    4  A    between atoms: N3_12  and  C6_13
REMARK    5  A    between atoms: C6_13  and  N4_15
REMARK    6  A    between atoms: N4_15  and  C7_17
REMARK    7  A    between atoms: C11_21  and  N5_22
ROOT
HETATM    1  C5  UNL     1      41.203   2.277 -10.580  1.00  0.00     0.170 A
HETATM    2  N1  UNL     1      40.897   3.407  -9.876  1.00  0.00    -0.277 N
ATOM      3  H1  UNL     1      40.655   3.430  -8.885  1.00  0.00     0.189 HD
HETATM    4  N2  UNL     1      40.959   4.463 -10.665  1.00  0.00    -0.231 N
ATOM      5  H2  UNL     1      40.774   5.424 -10.379  1.00  0.00     0.209 HD
HETATM    6  N3  UNL     1      41.295   4.083 -11.873  1.00  0.00    -0.197 N
HETATM    7  C11 UNL     1      41.455   2.727 -11.856  1.00  0.00     0.159 A
ENDROOT
BRANCH   6   8
HETATM    8  C6  UNL     1      41.472   4.892 -13.017  1.00  0.00     0.197 C
HETATM    9  S1  UNL     1      40.593   4.634 -14.358  1.00  0.00    -0.039 SA
BRANCH   8  10
HETATM   10  N4  UNL     1      42.419   5.932 -13.002  1.00  0.00    -0.357 N
ATOM     11  H4  UNL     1      42.216   6.786 -12.483  1.00  0.00     0.162 HD
BRANCH  10  12
HETATM   12  C7  UNL     1      43.679   5.813 -13.709  1.00  0.00     0.021 C
HETATM   13  C8  UNL     1      44.557   6.967 -13.308  1.00  0.00     0.037 C
HETATM   14  C9  UNL     1      43.456   5.852 -15.197  1.00  0.00     0.037 C
HETATM   15  C10 UNL     1      44.306   4.478 -13.345  1.00  0.00     0.037 C
ENDBRANCH  10  12
ENDBRANCH   8  10
ENDBRANCH   6   8
BRANCH   7  16
HETATM   16  N5  UNL     1      41.784   2.026 -12.870  1.00  0.00    -0.382 N
ATOM     17  H52 UNL     1      41.727   1.008 -12.911  1.00  0.00     0.157 HD
ATOM     18  H51 UNL     1      42.141   2.365 -13.763  1.00  0.00     0.157 HD
ENDBRANCH   7  16
BRANCH   1  19
HETATM   19  C4  UNL     1      41.236   0.929 -10.042  1.00  0.00     0.315 C
HETATM   20  O2  UNL     1      41.944   0.043 -10.535  1.00  0.00    -0.257 OA
BRANCH  19  21
HETATM   21  O1  UNL     1      40.454   0.617  -8.939  1.00  0.00    -0.312 OA
BRANCH  21  22
HETATM   22  C2  UNL     1      39.090   0.320  -9.156  1.00  0.00     0.124 C
HETATM   23  C1  UNL     1      38.954  -1.196  -8.977  1.00  0.00     0.040 C
HETATM   24  C3  UNL     1      38.315   0.951  -8.018  1.00  0.00     0.040 C
ENDBRANCH  21  22
ENDBRANCH  19  21
ENDBRANCH   1  19
TORSDOF 7
ENDMDL