MODEL 4
REMARK VINA RESULT: -5.850569888      1.664      2.032
REMARK  6 active torsions:
REMARK  status: ('A' for Active; 'I' for Inactive)
REMARK    1  A    between atoms: S1_2  and  C2_3
REMARK    2  A    between atoms: C2_3  and  N2_8
REMARK    3  A    between atoms: N1_4  and  O1_6
REMARK    4  A    between atoms: N2_8  and  N3_10
REMARK    5  A    between atoms: C3_12  and  C4_13
REMARK    6  A    between atoms: C6_16  and  O3_17
ROOT
HETATM    1  N3  UNL     1      40.665   0.092  -9.065  1.00  0.00    -0.309 N
ATOM      2  H3  UNL     1      40.927   0.794  -8.372  1.00  0.00     0.186 HD
HETATM    3  C3  UNL     1      41.115   0.228 -10.260  1.00  0.00     0.122 C
ENDROOT
BRANCH   1   4
HETATM    4  N2  UNL     1      39.851  -0.941  -8.661  1.00  0.00    -0.279 N
ATOM      5  H2  UNL     1      40.242  -1.717  -8.126  1.00  0.00     0.189 HD
BRANCH   4   6
HETATM    6  C2  UNL     1      38.475  -0.932  -8.987  1.00  0.00     0.178 C
HETATM    7  N1  UNL     1      37.950  -2.043  -9.383  1.00  0.00    -0.246 N
ATOM      8  H1  UNL     1      38.515  -2.889  -9.454  1.00  0.00     0.196 HD
BRANCH   6   9
HETATM    9  S1  UNL     1      37.537   0.575  -8.844  1.00  0.00    -0.095 SA
HETATM   10  C1  UNL     1      37.874   1.354  -7.251  1.00  0.00     0.099 C
ENDBRANCH   6   9
BRANCH   7  11
HETATM   11  O1  UNL     1      36.625  -2.065  -9.705  1.00  0.00    -0.288 OA
ATOM     12  H1  UNL     1      36.278  -1.378 -10.263  1.00  0.00     0.244 HD
ENDBRANCH   7  11
ENDBRANCH   4   6
ENDBRANCH   1   4
BRANCH   3  13
HETATM   13  C4  UNL     1      41.972   1.334 -10.648  1.00  0.00     0.025 A
HETATM   14  C5  UNL     1      41.702   2.396 -11.484  1.00  0.00     0.159 A
HETATM   15  O2  UNL     1      42.765   3.178 -11.565  1.00  0.00    -0.298 OA
HETATM   16  C6  UNL     1      43.743   2.714 -10.836  1.00  0.00     0.201 A
HETATM   17  C7  UNL     1      43.284   1.542 -10.234  1.00  0.00     0.082 A
HETATM   18 BR1  UNL     1      44.302   0.451  -9.061  1.00  0.00    -0.045 Br
BRANCH  16  19
HETATM   19  O3  UNL     1      45.009   3.276 -10.681  1.00  0.00    -0.340 OA
ATOM     20  H3  UNL     1      45.822   2.813 -10.513  1.00  0.00     0.220 HD
ENDBRANCH  16  19
ENDBRANCH   3  13
TORSDOF 6
ENDMDL