MODEL 2
REMARK VINA RESULT: -6.745609647      2.830      3.960
REMARK  5 active torsions:
REMARK  status: ('A' for Active; 'I' for Inactive)
REMARK    1  A    between atoms: N1_1  and  C1_4
REMARK    2  A    between atoms: C1_4  and  S1_6
REMARK    3  A    between atoms: S1_6  and  C2_7
REMARK    4  A    between atoms: C2_7  and  N3_8
REMARK    5  A    between atoms: N3_8  and  C3_10
ROOT
HETATM    1  C3  UNL     1      42.009   2.459  -9.689  1.00  0.00     0.116 A
HETATM    2  N4  UNL     1      41.136   1.468  -9.262  1.00  0.00    -0.318 N
ATOM      3  H4  UNL     1      40.137   1.671  -9.307  1.00  0.00     0.170 HD
HETATM    4  C4  UNL     1      41.493   0.292  -8.805  1.00  0.00     0.180 A
HETATM    5 CL1  UNL     1      40.313  -0.908  -8.282  1.00  0.00    -0.045 Cl
HETATM    6  N5  UNL     1      42.804   0.006  -8.737  1.00  0.00    -0.336 N
ATOM      7  H5  UNL     1      43.089  -0.906  -8.382  1.00  0.00     0.168 HD
HETATM    8  C5  UNL     1      43.747   0.869  -9.116  1.00  0.00     0.023 A
HETATM    9  C6  UNL     1      43.349   2.105  -9.594  1.00  0.00     0.018 A
HETATM   10  C7  UNL     1      44.441   3.010  -9.989  1.00  0.00     0.118 C
HETATM   11  S2  UNL     1      45.558   3.091  -8.524  1.00  0.00    -0.164 SA
HETATM   12  C8  UNL     1      45.964   1.372  -8.115  1.00  0.00     0.080 C
HETATM   13  C9  UNL     1      45.168   0.491  -9.021  1.00  0.00     0.068 C
ENDROOT
BRANCH   1  14
HETATM   14  N3  UNL     1      41.520   3.521 -10.101  1.00  0.00    -0.346 N
ATOM     15  H3  UNL     1      42.004   4.277  -9.616  1.00  0.00     0.167 HD
BRANCH  14  16
HETATM   16  C2  UNL     1      40.605   4.109 -10.930  1.00  0.00     0.143 C
BRANCH  16  17
HETATM   17  S1  UNL     1      41.277   4.558 -12.576  1.00  0.00    -0.052 SA
BRANCH  17  18
HETATM   18  C1  UNL     1      39.908   4.821 -13.689  1.00  0.00     0.153 C
HETATM   19  N2  UNL     1      38.681   5.319 -13.160  1.00  0.00    -0.075 NA
BRANCH  18  20
HETATM   20  N1  UNL     1      40.014   4.568 -14.949  1.00  0.00    -0.382 N
ATOM     21  H12 UNL     1      39.387   3.909 -15.411  1.00  0.00     0.157 HD
ATOM     22  H11 UNL     1      40.732   5.030 -15.506  1.00  0.00     0.157 HD
ENDBRANCH  18  20
ENDBRANCH  17  18
ENDBRANCH  16  17
ENDBRANCH  14  16
ENDBRANCH   1  14
TORSDOF 5
ENDMDL