MODEL 1
REMARK VINA RESULT: -6.220266695      0.000      0.000
REMARK  3 active torsions:
REMARK  status: ('A' for Active; 'I' for Inactive)
REMARK    1  A    between atoms: N1_2  and  C2_4
REMARK    2  A    between atoms: C2_4  and  C4_12
REMARK    3  A    between atoms: N2_5  and  N3_7
ROOT
HETATM    1  C2  UNL     1      40.155  -0.653  -9.162  1.00  0.00     0.136 C
HETATM    2  N2  UNL     1      39.002  -1.008  -9.590  1.00  0.00    -0.282 N
ATOM      3  H2  UNL     1      38.625  -0.529 -10.408  1.00  0.00     0.188 HD
ENDROOT
BRANCH   1   4
HETATM    4  N1  UNL     1      40.805  -1.214  -8.054  1.00  0.00    -0.378 N
HETATM    5  C1  UNL     1      42.203  -0.994  -7.762  1.00  0.00     0.147 C
ATOM      6  H1  UNL     1      40.265  -1.807  -7.422  1.00  0.00     0.160 HD
ENDBRANCH   1   4
BRANCH   1   7
HETATM    7  C4  UNL     1      40.829   0.433  -9.914  1.00  0.00     0.091 A
HETATM    8  S1  UNL     1      42.166   0.365 -10.967  1.00  0.00    -0.053 SA
HETATM    9  C5  UNL     1      42.259   2.011 -11.368  1.00  0.00     0.146 A
HETATM   10  S2  UNL     1      43.336   2.756 -12.375  1.00  0.00    -0.052 SA
HETATM   11  N6  UNL     1      41.254   2.556 -10.674  1.00  0.00    -0.326 N
HETATM   12  C6  UNL     1      41.010   4.027 -10.771  1.00  0.00     0.159 C
HETATM   13  C7  UNL     1      40.519   1.769  -9.932  1.00  0.00     0.128 A
HETATM   14 CL1  UNL     1      39.139   2.374  -8.950  1.00  0.00    -0.063 Cl
ENDBRANCH   1   7
BRANCH   2  15
HETATM   15  N3  UNL     1      38.234  -2.011  -9.001  1.00  0.00    -0.274 N
HETATM   16  C3  UNL     1      36.967  -1.944  -9.073  1.00  0.00     0.215 C
HETATM   17  N4  UNL     1      36.340  -0.874  -9.737  1.00  0.00    -0.065 NA
HETATM   18  N5  UNL     1      36.177  -2.952  -8.482  1.00  0.00    -0.065 NA
ATOM     19  H3  UNL     1      38.683  -2.788  -8.518  1.00  0.00     0.189 HD
ENDBRANCH   2  15
TORSDOF 3
ENDMDL