MODEL 5
REMARK VINA RESULT: -8.224034817      1.271      1.708
REMARK  9 active torsions:
REMARK  status: ('A' for Active; 'I' for Inactive)
REMARK    1  A    between atoms: C2_2  and  C3_3
REMARK    2  A    between atoms: C3_3  and  O1_4
REMARK    3  A    between atoms: C6_8  and  N1_9
REMARK    4  A    between atoms: N1_9  and  C7_11
REMARK    5  A    between atoms: C10_16  and  N3_17
REMARK    6  A    between atoms: C15_23  and  O2_24
REMARK    7  A    between atoms: O2_24  and  C16_25
REMARK    8  A    between atoms: N5_35  and  C23_36
REMARK    9  A    between atoms: C26_39  and  O3_40
ROOT
HETATM    1  C7  UNL     1      -1.168   4.115  12.131  1.00  0.00     0.120 A
HETATM    2  C8  UNL     1      -0.746   5.357  12.563  1.00  0.00     0.137 A
HETATM    3  N2  UNL     1       0.263   5.964  11.959  1.00  0.00    -0.359 N
ATOM      4  H2  UNL     1       0.572   6.882  12.280  1.00  0.00     0.165 HD
HETATM    5  C9  UNL     1       0.882   5.370  10.920  1.00  0.00     0.089 A
HETATM    6  C10 UNL     1       1.942   6.009  10.298  1.00  0.00     0.101 A
HETATM    7  C14 UNL     1       2.586   5.412   9.239  1.00  0.00     0.178 A
HETATM    8  F1  UNL     1       3.625   6.038   8.633  1.00  0.00    -0.201 F
HETATM    9  C15 UNL     1       2.207   4.180   8.775  1.00  0.00     0.112 A
HETATM   10  C21 UNL     1       1.129   3.568   9.430  1.00  0.00     0.072 A
HETATM   11  C22 UNL     1       0.448   4.123  10.494  1.00  0.00     0.068 A
HETATM   12  N5  UNL     1      -0.576   3.440  11.057  1.00  0.00    -0.325 N
ENDROOT
BRANCH   1  13
HETATM   13  N1  UNL     1      -2.112   3.572  12.725  1.00  0.00    -0.368 N
ATOM     14  H1  UNL     1      -1.793   2.605  12.798  1.00  0.00     0.161 HD
BRANCH  13  15
HETATM   15  C6  UNL     1      -3.302   3.520  13.323  1.00  0.00     0.112 C
HETATM   16  C5  UNL     1      -3.944   2.133  13.504  1.00  0.00     0.030 C
HETATM   17  C4  UNL     1      -5.402   2.345  13.856  1.00  0.00     0.040 C
HETATM   18  C3  UNL     1      -5.634   3.431  14.854  1.00  0.00     0.060 C
HETATM   19  C27 UNL     1      -4.355   3.656  15.619  1.00  0.00     0.071 C
HETATM   20  C26 UNL     1      -3.190   4.047  14.770  1.00  0.00     0.143 C
BRANCH  18  21
HETATM   21  C2  UNL     1      -6.708   3.073  15.894  1.00  0.00     0.033 C
HETATM   22  C1  UNL     1      -6.319   1.848  16.683  1.00  0.00     0.008 C
ENDBRANCH  18  21
BRANCH  18  23
HETATM   23  O1  UNL     1      -6.076   4.604  14.240  1.00  0.00    -0.390 OA
ATOM     24  H1  UNL     1      -6.529   4.328  13.452  1.00  0.00     0.210 HD
ENDBRANCH  18  23
BRANCH  20  25
HETATM   25  O3  UNL     1      -2.057   3.380  15.302  1.00  0.00    -0.393 OA
ATOM     26  H3  UNL     1      -2.336   2.477  15.396  1.00  0.00     0.210 HD
ENDBRANCH  20  25
ENDBRANCH  13  15
ENDBRANCH   1  13
BRANCH  12  27
HETATM   27  C23 UNL     1      -1.041   2.198  10.638  1.00  0.00     0.092 A
HETATM   28  C24 UNL     1      -2.325   1.675  10.199  1.00  0.00     0.028 A
HETATM   29  C25 UNL     1      -1.379   0.927  11.204  1.00  0.00     0.028 A
ENDBRANCH  12  27
BRANCH   6  30
HETATM   30  N3  UNL     1       2.310   7.286  10.799  1.00  0.00    -0.376 N
HETATM   31  C11 UNL     1       2.240   8.618  10.208  1.00  0.00     0.125 C
HETATM   32  C12 UNL     1       2.099   9.147  11.636  1.00  0.00     0.040 C
HETATM   33  C13 UNL     1       2.871   7.887  11.979  1.00  0.00     0.125 C
ENDBRANCH   6  30
BRANCH   9  34
HETATM   34  O2  UNL     1       2.802   3.543   7.746  1.00  0.00    -0.343 OA
BRANCH  34  35
HETATM   35  C16 UNL     1       2.863   3.828   6.394  1.00  0.00     0.132 C
HETATM   36  C17 UNL     1       1.400   4.129   5.979  1.00  0.00     0.060 C
HETATM   37  C18 UNL     1       1.215   4.162   4.501  1.00  0.00     0.235 C
HETATM   38  N4  UNL     1       1.765   3.041   3.798  1.00  0.00    -0.075 N
HETATM   39  C19 UNL     1       3.123   2.726   4.165  1.00  0.00     0.235 C
ATOM     40  H42 UNL     1       1.166   2.223   3.905  1.00  0.00     0.277 HD
ATOM     41  H41 UNL     1       1.690   3.180   2.790  1.00  0.00     0.277 HD
HETATM   42  C20 UNL     1       3.255   2.554   5.664  1.00  0.00     0.060 C
ENDBRANCH  34  35
ENDBRANCH   9  34
TORSDOF 9
ENDMDL