MODEL 2
REMARK VINA RESULT: -8.681761700      4.603      5.798
REMARK  9 active torsions:
REMARK  status: ('A' for Active; 'I' for Inactive)
REMARK    1  A    between atoms: C2_2  and  C5_5
REMARK    2  A    between atoms: C5_5  and  O1_6
REMARK    3  A    between atoms: O1_6  and  C6_7
REMARK       I    between atoms: C6_7  and  N1_9
REMARK    4  A    between atoms: N1_9  and  C7_11
REMARK    5  A    between atoms: N2_16  and  C11_17
REMARK    6  A    between atoms: C11_17  and  C12_18
REMARK    7  A    between atoms: C14_22  and  C15_23
REMARK       I    between atoms: C15_23  and  N4_25
REMARK    8  A    between atoms: N4_25  and  C16_27
REMARK    9  A    between atoms: C19_30  and  O4_31
ROOT
HETATM    1  C11 UNL     1      -3.537   3.487  10.418  1.00  0.00     0.190 C
ENDROOT
BRANCH   1   2
HETATM    2  N2  UNL     1      -3.418   2.163  10.978  1.00  0.00    -0.342 N
HETATM    3  C10 UNL     1      -2.428   1.263  10.421  1.00  0.00     0.163 C
HETATM    4  C9  UNL     1      -3.079  -0.112  10.410  1.00  0.00     0.190 C
HETATM    5  C8  UNL     1      -3.460  -0.596  11.773  1.00  0.00     0.073 C
HETATM    6  F1  UNL     1      -4.212  -0.101   9.621  1.00  0.00    -0.248 F
HETATM    7  C7  UNL     1      -3.712   0.497  12.780  1.00  0.00     0.181 C
HETATM    8  C22 UNL     1      -4.222   1.687  12.049  1.00  0.00     0.243 C
HETATM    9  O5  UNL     1      -5.298   2.259  12.343  1.00  0.00    -0.271 OA
BRANCH   7  10
HETATM   10  N1  UNL     1      -4.571   0.092  13.843  1.00  0.00    -0.324 N
HETATM   11  C6  UNL     1      -4.251   0.491  15.198  1.00  0.00     0.361 C
HETATM   12  O2  UNL     1      -3.221   1.179  15.360  1.00  0.00    -0.238 OA
ATOM     13  H1  UNL     1      -5.400  -0.470  13.652  1.00  0.00     0.165 HD
BRANCH  11  14
HETATM   14  O1  UNL     1      -5.020   0.144  16.248  1.00  0.00    -0.303 OA
BRANCH  14  15
HETATM   15  C5  UNL     1      -5.443   0.874  17.310  1.00  0.00     0.189 C
BRANCH  15  16
HETATM   16  C2  UNL     1      -6.495   1.899  17.192  1.00  0.00    -0.029 C
HETATM   17  C1  UNL     1      -6.339   3.021  16.242  1.00  0.00     0.016 C
HETATM   18  C3  UNL     1      -6.638   2.533  18.597  1.00  0.00     0.016 C
HETATM   19  C4  UNL     1      -7.859   1.229  16.924  1.00  0.00     0.016 C
ENDBRANCH  15  16
ENDBRANCH  14  15
ENDBRANCH  11  14
ENDBRANCH   7  10
ENDBRANCH   1   2
BRANCH   1  20
HETATM   20  C12 UNL     1      -3.004   4.438  11.466  1.00  0.00     0.069 A
HETATM   21  N3  UNL     1      -1.821   4.415  12.063  1.00  0.00    -0.361 N
HETATM   22  C13 UNL     1      -1.530   5.317  12.945  1.00  0.00     0.113 A
ATOM     23  H3  UNL     1      -1.143   3.690  11.828  1.00  0.00     0.165 HD
HETATM   24  C14 UNL     1      -2.473   6.269  13.225  1.00  0.00     0.089 A
HETATM   25  S1  UNL     1      -3.747   5.798  12.180  1.00  0.00    -0.068 SA
BRANCH  24  26
HETATM   26  C15 UNL     1      -2.395   7.389  14.174  1.00  0.00     0.260 C
HETATM   27  O3  UNL     1      -3.189   7.397  15.140  1.00  0.00    -0.267 OA
HETATM   28  N4  UNL     1      -1.433   8.392  13.946  1.00  0.00    -0.352 N
ATOM     29  H4  UNL     1      -0.819   8.314  13.134  1.00  0.00     0.163 HD
BRANCH  28  30
HETATM   30  C16 UNL     1      -1.290   9.530  14.833  1.00  0.00     0.085 C
HETATM   31  C17 UNL     1      -2.093  10.713  14.365  1.00  0.00     0.028 C
HETATM   32  C18 UNL     1      -1.338  11.537  13.346  1.00  0.00     0.034 C
HETATM   33  C19 UNL     1      -0.195  12.217  14.065  1.00  0.00     0.118 C
HETATM   34  C20 UNL     1       0.419  11.340  15.128  1.00  0.00     0.034 C
HETATM   35  C21 UNL     1       0.184   9.873  14.866  1.00  0.00     0.028 C
BRANCH  33  36
HETATM   36  O4  UNL     1      -0.710  13.349  14.684  1.00  0.00    -0.396 OA
ATOM     37  H4  UNL     1      -0.262  13.444  15.517  1.00  0.00     0.210 HD
ENDBRANCH  33  36
ENDBRANCH  28  30
ENDBRANCH  24  26
ENDBRANCH   1  20
TORSDOF 9
ENDMDL