MODEL 5
REMARK VINA RESULT: -7.210705514      3.658      7.170
REMARK  11 active torsions:
REMARK  status: ('A' for Active; 'I' for Inactive)
REMARK    1  A    between atoms: N1_2  and  O1_3
REMARK    2  A    between atoms: N1_2  and  C2_5
REMARK    3  A    between atoms: C2_5  and  O2_7
REMARK    4  A    between atoms: O2_7  and  C3_8
REMARK    5  A    between atoms: C3_8  and  C4_9
REMARK    6  A    between atoms: C4_9  and  C5_10
REMARK    7  A    between atoms: C5_10  and  C22_32
REMARK    8  A    between atoms: C6_11  and  C7_12
REMARK    9  A    between atoms: C7_12  and  O3_13
REMARK   10  A    between atoms: C8_15  and  O4_16
REMARK   11  A    between atoms: C22_32  and  C23_34
ROOT
HETATM    1  C7  UNL     1      -1.969   5.244  12.025  1.00  0.00     0.106 C
HETATM    2  C8  UNL     1      -2.715   6.585  11.922  1.00  0.00     0.157 C
HETATM    3  C9  UNL     1      -3.360   7.029  13.171  1.00  0.00     0.036 C
HETATM    4  C10 UNL     1      -2.949   6.337  14.418  1.00  0.00     0.012 C
HETATM    5  C11 UNL     1      -2.850   4.842  14.304  1.00  0.00    -0.032 C
HETATM    6  C12 UNL     1      -1.528   4.452  14.972  1.00  0.00     0.016 C
HETATM    7  C13 UNL     1      -3.909   4.162  15.147  1.00  0.00     0.010 C
HETATM    8  C14 UNL     1      -3.429   2.748  15.504  1.00  0.00     0.014 C
HETATM    9  C15 UNL     1      -4.659   1.870  15.504  1.00  0.00     0.079 C
HETATM   10  C16 UNL     1      -5.775   2.808  15.333  1.00  0.00     0.135 C
HETATM   11  O5  UNL     1      -6.889   2.657  15.783  1.00  0.00    -0.297 OA
HETATM   12  C17 UNL     1      -5.216   3.943  14.503  1.00  0.00     0.021 C
HETATM   13  C18 UNL     1      -6.208   5.073  14.675  1.00  0.00     0.024 C
HETATM   14  C19 UNL     1      -5.156   3.452  13.098  1.00  0.00     0.018 C
HETATM   15  C20 UNL     1      -4.144   4.154  12.251  1.00  0.00     0.010 C
HETATM   16  C21 UNL     1      -2.800   4.343  12.905  1.00  0.00     0.035 C
ENDROOT
BRANCH   1  17
HETATM   17  C6  UNL     1      -1.770   4.745  10.678  1.00  0.00     0.024 C
HETATM   18  C5  UNL     1      -1.363   3.582  10.198  1.00  0.00    -0.010 C
BRANCH  18  19
HETATM   19  C4  UNL     1      -1.317   3.529   8.698  1.00  0.00     0.069 C
BRANCH  19  20
HETATM   20  C3  UNL     1      -0.045   4.085   8.172  1.00  0.00     0.183 C
BRANCH  20  21
HETATM   21  O2  UNL     1       1.070   3.436   8.743  1.00  0.00    -0.325 OA
BRANCH  21  22
HETATM   22  C2  UNL     1       2.170   4.086   9.202  1.00  0.00     0.236 C
HETATM   23  S1  UNL     1       3.654   4.028   8.497  1.00  0.00    -0.031 SA
BRANCH  22  24
HETATM   24  N1  UNL     1       2.047   4.879  10.387  1.00  0.00    -0.234 N
HETATM   25  C1  UNL     1       2.091   6.310  10.320  1.00  0.00     0.188 C
BRANCH  24  26
HETATM   26  O1  UNL     1       1.897   4.267  11.563  1.00  0.00    -0.285 OA
ATOM     27  H1  UNL     1       1.290   3.540  11.650  1.00  0.00     0.245 HD
ENDBRANCH  24  26
ENDBRANCH  22  24
ENDBRANCH  21  22
ENDBRANCH  20  21
ENDBRANCH  19  20
ENDBRANCH  18  19
BRANCH  18  28
HETATM   28  C22 UNL     1      -1.042   2.400  10.940  1.00  0.00     0.169 C
HETATM   29  O6  UNL     1      -0.165   2.337  11.872  1.00  0.00    -0.291 OA
BRANCH  28  30
HETATM   30  C23 UNL     1      -1.711   1.101  10.720  1.00  0.00     0.198 C
HETATM   31 CL1  UNL     1      -3.026   0.745  11.820  1.00  0.00    -0.122 Cl
ENDBRANCH  28  30
ENDBRANCH  18  28
ENDBRANCH   1  17
BRANCH   1  32
HETATM   32  O3  UNL     1      -0.741   5.597  12.572  1.00  0.00    -0.383 OA
ATOM     33  H3  UNL     1      -0.851   6.357  13.130  1.00  0.00     0.211 HD
ENDBRANCH   1  32
BRANCH   2  34
HETATM   34  O4  UNL     1      -1.738   7.519  11.503  1.00  0.00    -0.392 OA
ATOM     35  H4  UNL     1      -1.864   7.605  10.566  1.00  0.00     0.210 HD
ENDBRANCH   2  34
TORSDOF 11
ENDMDL