MODEL 3
REMARK VINA RESULT: -7.879538643      3.279      7.520
REMARK  9 active torsions:
REMARK  status: ('A' for Active; 'I' for Inactive)
REMARK    1  A    between atoms: C4_10  and  N4_11
REMARK    2  A    between atoms: N4_11  and  C5_13
REMARK    3  A    between atoms: C5_13  and  O1_14
REMARK    4  A    between atoms: C5_13  and  C6_16
REMARK    5  A    between atoms: C6_16  and  N5_17
REMARK    6  A    between atoms: N5_17  and  C7_18
REMARK    7  A    between atoms: C9_20  and  N6_21
REMARK    8  A    between atoms: C14_28  and  N8_29
REMARK    9  A    between atoms: N8_29  and  C16_31
ROOT
HETATM    1  C7  UNL     1      -2.888   4.192  10.531  1.00  0.00     0.135 A
HETATM    2  C8  UNL     1      -3.588   5.398  10.389  1.00  0.00     0.095 A
HETATM    3  C9  UNL     1      -4.379   5.952  11.347  1.00  0.00     0.107 A
HETATM    4  N7  UNL     1      -4.496   5.284  12.526  1.00  0.00    -0.327 N
ATOM      5  H7  UNL     1      -5.080   5.666  13.270  1.00  0.00     0.169 HD
HETATM    6  C14 UNL     1      -3.844   4.119  12.714  1.00  0.00     0.130 A
HETATM    7  C24 UNL     1      -3.054   3.558  11.768  1.00  0.00     0.118 A
HETATM    8 CL1  UNL     1      -2.247   2.034  12.116  1.00  0.00    -0.077 Cl
ENDROOT
BRANCH   1   9
HETATM    9  N5  UNL     1      -2.182   3.687   9.719  1.00  0.00    -0.416 NA
BRANCH   9  10
HETATM   10  C6  UNL     1      -1.266   3.100   8.987  1.00  0.00     0.208 C
BRANCH  10  11
HETATM   11  C5  UNL     1      -0.719   3.900   7.804  1.00  0.00     0.272 C
BRANCH  11  12
HETATM   12  N4  UNL     1       0.437   4.627   8.322  1.00  0.00    -0.343 N
ATOM     13  H4  UNL     1       0.301   5.465   8.887  1.00  0.00     0.164 HD
BRANCH  12  14
HETATM   14  C4  UNL     1       1.613   4.218   8.070  1.00  0.00     0.128 A
HETATM   15  C2  UNL     1       2.533   4.017   9.076  1.00  0.00     0.065 A
HETATM   16  C1  UNL     1       2.119   4.289  10.476  1.00  0.00     0.074 C
HETATM   17  N1  UNL     1       3.775   3.584   8.786  1.00  0.00    -0.301 N
HETATM   18  N2  UNL     1       4.146   3.343   7.542  1.00  0.00    -0.296 N
ATOM     19  H1  UNL     1       4.443   3.441   9.542  1.00  0.00     0.186 HD
HETATM   20  C3  UNL     1       3.270   3.530   6.542  1.00  0.00     0.199 A
ATOM     21  H2  UNL     1       5.091   3.017   7.343  1.00  0.00     0.187 HD
HETATM   22  N3  UNL     1       2.008   3.967   6.810  1.00  0.00    -0.336 N
ATOM     23  H3  UNL     1       1.351   4.105   6.042  1.00  0.00     0.168 HD
ENDBRANCH  12  14
ENDBRANCH  11  12
BRANCH  11  24
HETATM   24  O1  UNL     1      -1.690   4.817   7.395  1.00  0.00    -0.371 OA
ATOM     25  H1  UNL     1      -2.165   5.127   8.158  1.00  0.00     0.212 HD
ENDBRANCH  11  24
ENDBRANCH  10  11
ENDBRANCH   9  10
ENDBRANCH   1   9
BRANCH   3  26
HETATM   26  N6  UNL     1      -5.078   7.180  11.166  1.00  0.00    -0.367 N
HETATM   27  C10 UNL     1      -4.476   8.404  10.720  1.00  0.00     0.124 C
HETATM   28  C11 UNL     1      -5.594   9.363  10.420  1.00  0.00     0.021 C
HETATM   29  C12 UNL     1      -6.855   8.727  10.966  1.00  0.00     0.021 C
HETATM   30  C13 UNL     1      -6.495   7.329  11.412  1.00  0.00     0.124 C
ENDBRANCH   3  26
BRANCH   6  31
HETATM   31  N8  UNL     1      -4.036   3.532  13.997  1.00  0.00    -0.365 N
HETATM   32  C15 UNL     1      -3.095   3.869  15.026  1.00  0.00     0.151 C
BRANCH  31  33
HETATM   33  C16 UNL     1      -5.138   2.646  14.230  1.00  0.00     0.085 C
HETATM   34  C17 UNL     1      -4.805   1.391  14.960  1.00  0.00     0.026 C
HETATM   35  C18 UNL     1      -5.001   1.391  16.430  1.00  0.00     0.011 C
HETATM   36  C19 UNL     1      -6.273   2.007  16.905  1.00  0.00    -0.048 C
HETATM   37  C20 UNL     1      -7.502   1.177  16.652  1.00  0.00     0.015 C
HETATM   38  C21 UNL     1      -6.109   2.211  18.419  1.00  0.00     0.015 C
HETATM   39  C22 UNL     1      -6.451   3.350  16.280  1.00  0.00     0.011 C
HETATM   40  C23 UNL     1      -6.340   3.380  14.799  1.00  0.00     0.026 C
ENDBRANCH  31  33
ENDBRANCH   6  31
TORSDOF 9
ENDMDL