MODEL 3
REMARK VINA RESULT: -8.252990330      4.047      5.619
REMARK  7 active torsions:
REMARK  status: ('A' for Active; 'I' for Inactive)
REMARK    1  A    between atoms: C4_5  and  N1_6
REMARK    2  A    between atoms: N1_6  and  C6_8
REMARK    3  A    between atoms: C6_8  and  O2_9
REMARK    4  A    between atoms: C6_8  and  C7_11
REMARK    5  A    between atoms: C7_11  and  C10_14
REMARK    6  A    between atoms: N4_27  and  C18_28
REMARK    7  A    between atoms: C18_28  and  C19_29
ROOT
HETATM    1  C6  UNL     1      -3.778   5.192  12.548  1.00  0.00     0.230 C
ENDROOT
BRANCH   1   2
HETATM    2  N1  UNL     1      -3.414   4.056  11.845  1.00  0.00    -0.361 N
HETATM    3  C5  UNL     1      -4.326   3.075  11.436  1.00  0.00     0.148 C
BRANCH   2   4
HETATM    4  C4  UNL     1      -2.111   3.876  11.339  1.00  0.00     0.260 C
HETATM    5  O1  UNL     1      -1.538   2.630  11.451  1.00  0.00    -0.360 OA
HETATM    6  C3  UNL     1      -0.157   2.789  11.437  1.00  0.00     0.196 C
HETATM    7  C2  UNL     1       0.335   3.691  10.332  1.00  0.00     0.108 C
HETATM    8  C1  UNL     1       0.935   4.934  10.935  1.00  0.00     0.035 C
HETATM    9  N4  UNL     1      -0.677   4.051   9.403  1.00  0.00    -0.359 N
HETATM   10  C17 UNL     1      -1.978   4.287   9.881  1.00  0.00     0.117 C
BRANCH   9  11
HETATM   11  C18 UNL     1      -0.661   3.445   8.131  1.00  0.00     0.105 C
BRANCH  11  12
HETATM   12  C19 UNL     1       0.216   3.996   7.106  1.00  0.00     0.015 A
HETATM   13  C20 UNL     1       1.528   3.761   6.828  1.00  0.00     0.032 A
HETATM   14  C21 UNL     1       1.907   4.587   5.786  1.00  0.00     0.090 A
HETATM   15  N5  UNL     1       0.830   5.304   5.450  1.00  0.00    -0.359 N
HETATM   16  C22 UNL     1      -0.212   4.983   6.218  1.00  0.00     0.091 A
ATOM     17  H5  UNL     1       0.809   6.003   4.707  1.00  0.00     0.166 HD
HETATM   18 BR1  UNL     1      -1.989   5.717   6.135  1.00  0.00    -0.030 Br
ENDBRANCH  11  12
ENDBRANCH   9  11
ENDBRANCH   2   4
ENDBRANCH   1   2
BRANCH   1  19
HETATM   19  O2  UNL     1      -5.186   5.351  12.454  1.00  0.00    -0.376 OA
ATOM     20  H2  UNL     1      -5.385   6.280  12.439  1.00  0.00     0.212 HD
ENDBRANCH   1  19
BRANCH   1  21
HETATM   21  C7  UNL     1      -3.370   5.215  13.988  1.00  0.00     0.025 C
HETATM   22  C8  UNL     1      -4.006   6.407  14.683  1.00  0.00     0.025 C
HETATM   23  C9  UNL     1      -1.867   5.179  14.170  1.00  0.00     0.025 C
BRANCH  21  24
HETATM   24  C10 UNL     1      -3.887   4.025  14.755  1.00  0.00    -0.028 A
HETATM   25  C11 UNL     1      -2.947   3.059  15.040  1.00  0.00     0.098 A
HETATM   26  N2  UNL     1      -3.255   1.925  15.720  1.00  0.00    -0.344 N
HETATM   27  C12 UNL     1      -4.511   1.730  16.131  1.00  0.00     0.169 A
ATOM     28  H2  UNL     1      -2.534   1.229  15.915  1.00  0.00     0.167 HD
HETATM   29  C13 UNL     1      -5.478   2.674  15.864  1.00  0.00     0.080 A
HETATM   30  O3  UNL     1      -4.804   0.553  16.830  1.00  0.00    -0.332 OA
HETATM   31  C14 UNL     1      -5.159   3.843  15.164  1.00  0.00     0.043 A
HETATM   32  N3  UNL     1      -6.790   2.409  16.331  1.00  0.00    -0.384 N
HETATM   33  C15 UNL     1      -7.116   1.064  16.777  1.00  0.00     0.146 C
ATOM     34  H3  UNL     1      -7.493   3.148  16.354  1.00  0.00     0.159 HD
HETATM   35  C16 UNL     1      -5.977   0.595  17.661  1.00  0.00     0.197 C
ENDBRANCH  21  24
ENDBRANCH   1  21
TORSDOF 7
ENDMDL