MODEL 2
REMARK VINA RESULT: -8.301071822      1.406      1.629
REMARK  8 active torsions:
REMARK  status: ('A' for Active; 'I' for Inactive)
REMARK    1  A    between atoms: C2_2  and  O1_3
REMARK    2  A    between atoms: O1_3  and  C3_4
REMARK    3  A    between atoms: C5_6  and  O2_7
REMARK    4  A    between atoms: C9_12  and  C10_13
REMARK       I    between atoms: C10_13  and  N1_15
REMARK    5  A    between atoms: C16_21  and  O4_22
REMARK    6  A    between atoms: C16_21  and  O5_24
REMARK    7  A    between atoms: C20_30  and  N2_31
REMARK    8  A    between atoms: N2_31  and  C21_33
ROOT
HETATM    1  C10 UNL     1      -4.637   3.047  11.713  1.00  0.00     0.259 C
HETATM    2  O3  UNL     1      -5.521   2.624  10.928  1.00  0.00    -0.267 OA
HETATM    3  N1  UNL     1      -3.594   3.876  11.273  1.00  0.00    -0.314 N
HETATM    4  C11 UNL     1      -3.504   4.274   9.894  1.00  0.00     0.227 C
HETATM    5  C12 UNL     1      -3.377   5.762   9.824  1.00  0.00     0.061 C
HETATM    6  C13 UNL     1      -2.364   6.336  10.822  1.00  0.00     0.019 C
HETATM    7  C14 UNL     1      -1.028   5.638  10.676  1.00  0.00     0.006 C
HETATM    8  C15 UNL     1      -0.565   5.422   9.286  1.00  0.00     0.076 C
HETATM    9  C16 UNL     1      -0.162   3.941   9.318  1.00  0.00     0.186 C
HETATM   10  C17 UNL     1      -1.353   3.405  10.137  1.00  0.00     0.192 C
HETATM   11  O6  UNL     1      -2.448   3.594   9.319  1.00  0.00    -0.355 OA
HETATM   12  C18 UNL     1      -1.273   4.321  11.324  1.00  0.00     0.050 C
HETATM   13  C19 UNL     1      -2.522   4.407  12.130  1.00  0.00     0.120 C
HETATM   14  C20 UNL     1      -2.727   5.934  12.217  1.00  0.00     0.105 C
ENDROOT
BRANCH   1  15
HETATM   15  C9  UNL     1      -4.739   2.636  13.114  1.00  0.00     0.067 A
HETATM   16  C3  UNL     1      -4.024   1.523  13.521  1.00  0.00     0.087 A
HETATM   17  C4  UNL     1      -4.140   1.172  14.847  1.00  0.00     0.076 A
HETATM   18  C5  UNL     1      -4.941   1.908  15.726  1.00  0.00     0.092 A
HETATM   19  C7  UNL     1      -5.632   3.009  15.267  1.00  0.00     0.068 A
HETATM   20 CL1  UNL     1      -6.645   3.939  16.378  1.00  0.00    -0.081 Cl
HETATM   21  C8  UNL     1      -5.526   3.369  13.953  1.00  0.00     0.046 A
BRANCH  16  22
HETATM   22  O1  UNL     1      -3.241   0.817  12.617  1.00  0.00    -0.350 OA
BRANCH  22  23
HETATM   23  C2  UNL     1      -3.630  -0.312  11.888  1.00  0.00     0.171 C
HETATM   24  C1  UNL     1      -3.463  -0.207  10.407  1.00  0.00     0.034 C
ENDBRANCH  22  23
ENDBRANCH  16  22
BRANCH  18  25
HETATM   25  O2  UNL     1      -5.069   1.572  17.053  1.00  0.00    -0.354 OA
HETATM   26  C6  UNL     1      -5.929   0.562  17.493  1.00  0.00     0.210 C
ENDBRANCH  18  25
ENDBRANCH   1  15
BRANCH  14  27
HETATM   27  N2  UNL     1      -1.968   6.473  13.210  1.00  0.00    -0.407 N
ATOM     28  H2  UNL     1      -1.470   5.798  13.789  1.00  0.00     0.154 HD
BRANCH  27  29
HETATM   29  C21 UNL     1      -1.771   7.792  13.550  1.00  0.00     0.015 C
HETATM   30  C22 UNL     1      -2.525   8.799  12.748  1.00  0.00     0.037 C
HETATM   31  C23 UNL     1      -0.292   8.218  13.441  1.00  0.00     0.037 C
HETATM   32  C24 UNL     1      -2.139   8.096  15.016  1.00  0.00     0.037 C
ENDBRANCH  27  29
ENDBRANCH  14  27
BRANCH   9  33
HETATM   33  O4  UNL     1      -0.176   3.449   8.027  1.00  0.00    -0.363 OA
ATOM     34  H4  UNL     1      -0.039   4.169   7.424  1.00  0.00     0.213 HD
ENDBRANCH   9  33
BRANCH   9  35
HETATM   35  O5  UNL     1       1.039   3.737   9.933  1.00  0.00    -0.363 OA
ATOM     36  H5  UNL     1       1.318   2.830   9.900  1.00  0.00     0.213 HD
ENDBRANCH   9  35
TORSDOF 8
ENDMDL