MODEL 3
REMARK VINA RESULT: -8.498273173      2.540      4.042
REMARK  8 active torsions:
REMARK  status: ('A' for Active; 'I' for Inactive)
REMARK    1  A    between atoms: C5_8  and  C6_9
REMARK    2  A    between atoms: C6_9  and  C7_10
REMARK    3  A    between atoms: C7_10  and  C8_11
REMARK    4  A    between atoms: C13_16  and  O4_17
REMARK    5  A    between atoms: C13_16  and  C14_19
REMARK    6  A    between atoms: C14_19  and  O5_20
REMARK    7  A    between atoms: C15_23  and  C17_25
REMARK    8  A    between atoms: C17_25  and  O7_26
ROOT
HETATM    1  C8  UNL     1      -3.492   4.902  13.669  1.00  0.00     0.023 C
HETATM    2  C9  UNL     1      -4.511   5.886  13.136  1.00  0.00     0.015 C
HETATM    3  C10 UNL     1      -4.065   6.503  11.833  1.00  0.00     0.020 C
HETATM    4  C11 UNL     1      -2.906   5.802  11.215  1.00  0.00     0.130 C
HETATM    5  C12 UNL     1      -1.725   5.656  12.138  1.00  0.00     0.073 C
HETATM    6  C13 UNL     1      -2.102   5.423  13.581  1.00  0.00     0.085 C
HETATM    7  O6  UNL     1      -2.590   6.602  10.120  1.00  0.00    -0.372 OA
HETATM    8  C15 UNL     1      -3.514   6.373   9.067  1.00  0.00     0.083 C
HETATM    9  C16 UNL     1      -3.379   4.855   8.804  1.00  0.00     0.049 C
HETATM   10  C18 UNL     1      -4.899   6.705   9.427  1.00  0.00     0.036 C
HETATM   11  C19 UNL     1      -5.253   6.469  10.873  1.00  0.00    -0.000 C
HETATM   12  C20 UNL     1      -6.198   7.454  11.485  1.00  0.00     0.007 C
HETATM   13  C21 UNL     1      -7.341   7.863  10.644  1.00  0.00     0.021 C
HETATM   14  C22 UNL     1      -7.023   7.841   9.205  1.00  0.00     0.090 C
HETATM   15 CL1  UNL     1      -7.886   9.248   8.483  1.00  0.00    -0.124 Cl
HETATM   16  C23 UNL     1      -5.518   7.966   8.887  1.00  0.00    -0.024 C
HETATM   17  C24 UNL     1      -5.054   9.223   9.500  1.00  0.00     0.016 C
HETATM   18  C25 UNL     1      -5.538   8.015   7.358  1.00  0.00     0.016 C
ENDROOT
BRANCH   1  19
HETATM   19  C7  UNL     1      -3.882   4.398  15.018  1.00  0.00     0.009 C
BRANCH  19  20
HETATM   20  C6  UNL     1      -3.634   2.905  15.166  1.00  0.00     0.020 C
BRANCH  20  21
HETATM   21  C5  UNL     1      -4.817   2.098  14.715  1.00  0.00     0.124 C
HETATM   22  C2  UNL     1      -5.683   1.823  15.874  1.00  0.00     0.022 C
HETATM   23  C1  UNL     1      -6.489   2.690  16.467  1.00  0.00     0.026 C
HETATM   24  C3  UNL     1      -5.475   0.425  16.228  1.00  0.00     0.296 C
HETATM   25  O1  UNL     1      -5.878  -0.169  17.284  1.00  0.00    -0.259 OA
HETATM   26  O2  UNL     1      -4.748  -0.175  15.205  1.00  0.00    -0.241 OA
HETATM   27  C4  UNL     1      -4.469   0.764  14.196  1.00  0.00     0.275 C
HETATM   28  O3  UNL     1      -4.005   0.414  13.080  1.00  0.00    -0.264 OA
ENDBRANCH  20  21
ENDBRANCH  19  20
ENDBRANCH   1  19
BRANCH   6  29
HETATM   29  O4  UNL     1      -1.241   4.438  14.121  1.00  0.00    -0.387 OA
ATOM     30  H4  UNL     1      -0.445   4.875  14.400  1.00  0.00     0.210 HD
ENDBRANCH   6  29
BRANCH   6  31
HETATM   31  C14 UNL     1      -1.824   6.678  14.333  1.00  0.00     0.202 C
BRANCH  31  32
HETATM   32  O5  UNL     1      -1.080   7.624  13.680  1.00  0.00    -0.398 OA
ATOM     33  H5  UNL     1      -0.755   8.342  14.210  1.00  0.00     0.209 HD
ENDBRANCH  31  32
ENDBRANCH   6  31
BRANCH   8  34
HETATM   34  C17 UNL     1      -2.859   6.995   7.892  1.00  0.00     0.202 C
BRANCH  34  35
HETATM   35  O7  UNL     1      -1.904   7.910   8.445  1.00  0.00    -0.398 OA
ATOM     36  H7  UNL     1      -1.467   8.291   7.692  1.00  0.00     0.209 HD
ENDBRANCH  34  35
ENDBRANCH   8  34
TORSDOF 8
ENDMDL