MODEL 5
REMARK VINA RESULT: -7.867835327      3.990      9.264
REMARK  8 active torsions:
REMARK  status: ('A' for Active; 'I' for Inactive)
REMARK    1  A    between atoms: C2_2  and  C3_3
REMARK    2  A    between atoms: C3_3  and  O1_4
REMARK    3  A    between atoms: O1_4  and  C4_5
REMARK    4  A    between atoms: C4_5  and  C5_7
REMARK    5  A    between atoms: C8_10  and  N1_11
REMARK    6  A    between atoms: C13_18  and  C14_19
REMARK    7  A    between atoms: C14_19  and  C15_20
REMARK    8  A    between atoms: C21_30  and  N2_31
ROOT
HETATM    1  C5  UNL     1      -1.743   3.961  10.152  1.00  0.00     0.086 C
HETATM    2  C6  UNL     1      -1.968   2.520  10.547  1.00  0.00     0.017 C
HETATM    3  C7  UNL     1      -2.829   2.355  11.762  1.00  0.00     0.026 C
HETATM    4  C8  UNL     1      -3.279   3.729  12.211  1.00  0.00     0.087 C
HETATM    5  C16 UNL     1      -4.067   4.309  11.046  1.00  0.00     0.026 C
HETATM    6  C17 UNL     1      -3.015   4.748  10.026  1.00  0.00     0.017 C
ENDROOT
BRANCH   1   7
HETATM    7  C4  UNL     1      -1.095   3.931   8.790  1.00  0.00     0.266 C
HETATM    8  O2  UNL     1      -1.725   4.243   7.761  1.00  0.00    -0.265 OA
BRANCH   7   9
HETATM    9  O1  UNL     1       0.180   3.564   8.688  1.00  0.00    -0.277 OA
BRANCH   9  10
HETATM   10  C3  UNL     1       1.377   4.112   8.379  1.00  0.00     0.217 C
HETATM   11  O6  UNL     1       2.406   3.303   8.916  1.00  0.00    -0.349 OA
HETATM   12  C18 UNL     1       3.646   3.864   8.801  1.00  0.00     0.177 C
HETATM   13  C19 UNL     1       4.100   4.072   7.396  1.00  0.00     0.075 C
HETATM   14  C20 UNL     1       2.911   3.991   6.478  1.00  0.00     0.016 A
HETATM   15  S1  UNL     1       2.785   3.869   4.779  1.00  0.00    -0.057 SA
HETATM   16  C22 UNL     1       1.611   4.007   6.863  1.00  0.00     0.087 A
HETATM   17  C21 UNL     1       1.085   3.845   4.652  1.00  0.00     0.143 A
HETATM   18  N3  UNL     1       0.690   3.932   5.921  1.00  0.00    -0.335 N
ATOM     19  H3  UNL     1      -0.302   3.940   6.159  1.00  0.00     0.168 HD
BRANCH  10  20
HETATM   20  C2  UNL     1       1.560   5.534   8.703  1.00  0.00     0.071 C
HETATM   21  C1  UNL     1       1.384   5.998  10.098  1.00  0.00     0.011 C
ENDBRANCH  10  20
BRANCH  17  22
HETATM   22  N2  UNL     1       0.332   3.762   3.575  1.00  0.00    -0.380 N
ATOM     23  H22 UNL     1       0.585   3.996   2.614  1.00  0.00     0.158 HD
ATOM     24  H21 UNL     1      -0.636   3.454   3.487  1.00  0.00     0.158 HD
ENDBRANCH  17  22
ENDBRANCH   9  10
ENDBRANCH   7   9
ENDBRANCH   1   7
BRANCH   4  25
HETATM   25  N1  UNL     1      -4.089   3.665  13.409  1.00  0.00    -0.339 N
HETATM   26  C9  UNL     1      -4.394   4.789  14.225  1.00  0.00     0.260 C
HETATM   27  O3  UNL     1      -3.748   5.844  14.408  1.00  0.00    -0.270 OA
HETATM   28  C10 UNL     1      -5.713   4.494  14.883  1.00  0.00     0.182 C
HETATM   29  C11 UNL     1      -6.813   5.372  14.352  1.00  0.00     0.062 C
HETATM   30  F1  UNL     1      -5.527   4.644  16.230  1.00  0.00    -0.233 F
HETATM   31  C12 UNL     1      -6.022   3.051  14.548  1.00  0.00     0.079 C
HETATM   32  C13 UNL     1      -4.724   2.484  13.989  1.00  0.00     0.101 C
BRANCH  32  33
HETATM   33  C14 UNL     1      -3.872   1.880  15.070  1.00  0.00     0.138 C
BRANCH  33  34
HETATM   34  C15 UNL     1      -4.501   0.694  15.682  1.00  0.00     0.174 C
HETATM   35  O4  UNL     1      -4.709  -0.332  15.003  1.00  0.00    -0.648 OA
HETATM   36  O5  UNL     1      -4.880   0.681  17.019  1.00  0.00    -0.648 OA
ENDBRANCH  33  34
ENDBRANCH  32  33
ENDBRANCH   4  25
TORSDOF 8
ENDMDL