MODEL 1
REMARK VINA RESULT: -8.304361346      0.000      0.000
REMARK  9 active torsions:
REMARK  status: ('A' for Active; 'I' for Inactive)
REMARK    1  A    between atoms: N1_2  and  C3_4
REMARK    2  A    between atoms: C3_4  and  C4_5
REMARK    3  A    between atoms: N2_6  and  C5_8
REMARK    4  A    between atoms: C7_10  and  N3_11
REMARK    5  A    between atoms: N3_11  and  C8_13
REMARK    6  A    between atoms: C9_16  and  N5_17
REMARK    7  A    between atoms: N5_17  and  C10_19
REMARK    8  A    between atoms: C19_31  and  N7_32
REMARK    9  A    between atoms: C25_39  and  O2_40
ROOT
HETATM    1  C5  UNL     1       0.879   4.629  11.157  1.00  0.00     0.067 A
HETATM    2  C6  UNL     1      -0.266   3.877  11.006  1.00  0.00     0.064 A
HETATM    3  C7  UNL     1      -1.487   4.318  11.471  1.00  0.00     0.062 A
HETATM    4  C19 UNL     1      -1.497   5.566  12.103  1.00  0.00     0.060 A
HETATM    5  C24 UNL     1      -0.343   6.326  12.256  1.00  0.00     0.070 A
HETATM    6  C25 UNL     1       0.847   5.848  11.777  1.00  0.00     0.094 A
ENDROOT
BRANCH   3   7
HETATM    7  N3  UNL     1      -2.683   3.615  11.352  1.00  0.00    -0.339 N
ATOM      8  H3  UNL     1      -3.291   3.915  10.590  1.00  0.00     0.167 HD
BRANCH   7   9
HETATM    9  C8  UNL     1      -3.129   2.652  12.057  1.00  0.00     0.144 A
HETATM   10  N4  UNL     1      -3.713   2.731  13.243  1.00  0.00    -0.175 N
HETATM   11  C9  UNL     1      -4.163   1.675  13.946  1.00  0.00     0.679 A
ATOM     12  H4  UNL     1      -3.830   3.657  13.654  1.00  0.00     0.186 HD
HETATM   13  N6  UNL     1      -4.021   0.452  13.435  1.00  0.00    -0.200 N
HETATM   14  C17 UNL     1      -3.442   0.286  12.243  1.00  0.00     0.133 A
ATOM     15  H6  UNL     1      -4.356  -0.358  13.956  1.00  0.00     0.183 HD
HETATM   16  C18 UNL     1      -2.985   1.365  11.527  1.00  0.00     0.094 A
HETATM   17 CL1  UNL     1      -2.218   1.182   9.957  1.00  0.00    -0.079 Cl
BRANCH  11  18
HETATM   18  N5  UNL     1      -4.701   1.940  15.063  1.00  0.00    -0.221 N
ATOM     19  H5  UNL     1      -4.038   2.210  15.791  1.00  0.00     0.178 HD
BRANCH  18  20
HETATM   20  C10 UNL     1      -6.044   1.930  15.482  1.00  0.00     0.103 C
HETATM   21  C11 UNL     1      -6.506   3.154  16.249  1.00  0.00     0.030 C
HETATM   22  C12 UNL     1      -7.207   2.665  17.495  1.00  0.00    -0.012 C
HETATM   23  C13 UNL     1      -6.146   2.245  18.466  1.00  0.00     0.005 C
HETATM   24  C16 UNL     1      -7.690   1.292  16.996  1.00  0.00     0.011 C
HETATM   25  C14 UNL     1      -5.490   1.069  17.735  1.00  0.00     0.007 C
HETATM   26  C15 UNL     1      -6.330   0.829  16.499  1.00  0.00     0.009 C
ENDBRANCH  18  20
ENDBRANCH  11  18
ENDBRANCH   7   9
ENDBRANCH   3   7
BRANCH   4  27
HETATM   27  N7  UNL     1      -2.695   6.115  12.625  1.00  0.00    -0.375 N
HETATM   28  C20 UNL     1      -2.984   5.991  14.033  1.00  0.00     0.149 C
HETATM   29  C21 UNL     1      -4.454   5.743  14.254  1.00  0.00     0.187 C
HETATM   30  O1  UNL     1      -5.104   5.397  13.080  1.00  0.00    -0.388 OA
HETATM   31  C22 UNL     1      -5.072   6.432  12.139  1.00  0.00     0.187 C
HETATM   32  C23 UNL     1      -3.647   6.798  11.783  1.00  0.00     0.149 C
ENDBRANCH   4  27
BRANCH   1  33
HETATM   33  N2  UNL     1       2.137   4.144  10.655  1.00  0.00    -0.366 N
HETATM   34  C4  UNL     1       2.323   4.189   9.366  1.00  0.00     0.091 C
ATOM     35  H2  UNL     1       2.854   3.780  11.282  1.00  0.00     0.165 HD
BRANCH  34  36
HETATM   36  C3  UNL     1       3.599   3.701   8.835  1.00  0.00     0.315 C
BRANCH  36  37
HETATM   37  N1  UNL     1       3.716   3.887   7.400  1.00  0.00     0.084 N
HETATM   38  C1  UNL     1       4.639   2.979   6.792  1.00  0.00     0.309 C
HETATM   39  C2  UNL     1       2.401   3.663   6.828  1.00  0.00     0.309 C
ENDBRANCH  36  37
ENDBRANCH  34  36
ENDBRANCH   1  33
BRANCH   6  40
HETATM   40  O2  UNL     1       2.012   6.596  11.922  1.00  0.00    -0.358 OA
ATOM     41  H2  UNL     1       1.991   7.542  11.837  1.00  0.00     0.217 HD
ENDBRANCH   6  40
TORSDOF 9
ENDMDL