MODEL 2
REMARK VINA RESULT: -8.185716391      1.683      3.295
REMARK  8 active torsions:
REMARK  status: ('A' for Active; 'I' for Inactive)
REMARK    1  A    between atoms: C4_4  and  C5_5
REMARK    2  A    between atoms: C9_10  and  N1_11
REMARK    3  A    between atoms: C12_16  and  N3_17
REMARK    4  A    between atoms: N3_17  and  C13_19
REMARK    5  A    between atoms: C13_19  and  C14_20
REMARK    6  A    between atoms: C14_20  and  O1_21
REMARK    7  A    between atoms: C14_20  and  C15_23
REMARK    8  A    between atoms: C15_23  and  N4_24
ROOT
HETATM    1  N1  UNL     1      -1.946   6.085  12.478  1.00  0.00    -0.322 N
HETATM    2  C10 UNL     1      -0.925   5.253  12.844  1.00  0.00     0.185 A
HETATM    3  N2  UNL     1      -1.349   4.358  13.746  1.00  0.00    -0.346 N
ATOM      4  H2  UNL     1      -0.781   3.628  14.177  1.00  0.00     0.167 HD
HETATM    5  C11 UNL     1      -2.645   4.585  13.984  1.00  0.00     0.122 A
HETATM    6  C12 UNL     1      -3.608   3.981  14.821  1.00  0.00     0.137 A
HETATM    7  N5  UNL     1      -4.838   4.516  14.778  1.00  0.00    -0.337 N
ATOM      8  H5  UNL     1      -5.549   4.092  15.374  1.00  0.00     0.168 HD
HETATM    9  C22 UNL     1      -5.211   5.544  14.030  1.00  0.00     0.183 A
HETATM   10  N6  UNL     1      -4.284   6.118  13.231  1.00  0.00    -0.336 N
ATOM     11  H6  UNL     1      -4.543   6.911  12.643  1.00  0.00     0.168 HD
HETATM   12  C23 UNL     1      -3.015   5.647  13.205  1.00  0.00     0.141 A
ENDROOT
BRANCH   6  13
HETATM   13  N3  UNL     1      -3.252   3.023  15.513  1.00  0.00    -0.351 N
ATOM     14  H3  UNL     1      -2.631   3.370  16.245  1.00  0.00     0.166 HD
BRANCH  13  15
HETATM   15  C13 UNL     1      -3.380   1.664  15.665  1.00  0.00     0.096 C
BRANCH  15  16
HETATM   16  C14 UNL     1      -4.604   0.978  15.084  1.00  0.00     0.184 C
BRANCH  16  17
HETATM   17  O1  UNL     1      -4.743  -0.334  15.406  1.00  0.00    -0.389 OA
ATOM     18  H1  UNL     1      -5.262  -0.849  14.799  1.00  0.00     0.210 HD
ENDBRANCH  16  17
BRANCH  16  19
HETATM   19  C15 UNL     1      -4.690   1.277  13.631  1.00  0.00     0.309 C
BRANCH  19  20
HETATM   20  N4  UNL     1      -3.639   0.809  12.791  1.00  0.00     0.096 N
HETATM   21  C16 UNL     1      -3.242   1.871  11.851  1.00  0.00     0.303 C
HETATM   22  C17 UNL     1      -2.074   1.338  11.065  1.00  0.00     0.146 C
HETATM   23  C18 UNL     1      -1.463   2.457  10.235  1.00  0.00     0.041 C
HETATM   24  O2  UNL     1      -2.540   0.388  10.207  1.00  0.00    -0.378 OA
HETATM   25  C19 UNL     1      -3.618  -0.344  10.586  1.00  0.00     0.146 C
HETATM   26  C20 UNL     1      -4.863   0.001   9.775  1.00  0.00     0.041 C
HETATM   27  C21 UNL     1      -3.916  -0.408  12.059  1.00  0.00     0.303 C
ENDBRANCH  19  20
ENDBRANCH  16  19
ENDBRANCH  15  16
ENDBRANCH  13  15
ENDBRANCH   6  13
BRANCH   1  28
HETATM   28  C9  UNL     1      -1.920   7.142  11.539  1.00  0.00     0.103 C
HETATM   29  C5  UNL     1      -1.917   8.546  11.994  1.00  0.00     0.047 C
HETATM   30  C6  UNL     1      -1.570   9.275  10.671  1.00  0.00     0.049 C
HETATM   31  C7  UNL     1      -0.710   8.334   9.880  1.00  0.00     0.172 C
HETATM   32  F1  UNL     1      -1.270   8.244   8.593  1.00  0.00    -0.249 F
HETATM   33  C8  UNL     1      -0.740   7.012  10.572  1.00  0.00     0.063 C
BRANCH  29  34
HETATM   34  C4  UNL     1      -0.968   8.933  13.029  1.00  0.00    -0.028 A
HETATM   35  C3  UNL     1       0.299   9.427  12.801  1.00  0.00     0.034 A
HETATM   36  C2  UNL     1       0.931   9.650  13.999  1.00  0.00     0.006 A
HETATM   37  C1  UNL     1       2.302  10.180  14.191  1.00  0.00     0.068 C
HETATM   38  N7  UNL     1       0.044   9.290  14.951  1.00  0.00    -0.363 N
HETATM   39  C24 UNL     1      -1.106   8.856  14.389  1.00  0.00     0.012 A
ATOM     40  H7  UNL     1       0.218   9.339  15.955  1.00  0.00     0.165 HD
HETATM   41  C25 UNL     1      -2.282   8.429  15.186  1.00  0.00     0.068 C
ENDBRANCH  29  34
ENDBRANCH   1  28
TORSDOF 8
ENDMDL