MODEL 5
REMARK VINA RESULT: -7.951944088      2.072      3.263
REMARK  11 active torsions:
REMARK  status: ('A' for Active; 'I' for Inactive)
REMARK    1  A    between atoms: C3_4  and  N2_5
REMARK    2  A    between atoms: N2_5  and  C4_7
REMARK    3  A    between atoms: C4_7  and  C5_8
REMARK    4  A    between atoms: C5_8  and  C6_9
REMARK    5  A    between atoms: C6_9  and  C7_10
REMARK    6  A    between atoms: C7_10  and  C8_11
REMARK    7  A    between atoms: C8_11  and  C9_12
REMARK    8  A    between atoms: C9_12  and  C10_13
REMARK    9  A    between atoms: C10_13  and  O1_14
REMARK   10  A    between atoms: O1_14  and  C11_15
REMARK   11  A    between atoms: C17_21  and  N3_22
ROOT
HETATM    1  N1  UNL     1       2.609  72.520  29.803  1.00  0.00    -0.191 NA
HETATM    2  C1  UNL     1       3.701  72.575  29.435  1.00  0.00     0.105 C
HETATM    3  C2  UNL     1       5.081  72.605  28.998  1.00  0.00     0.117 A
HETATM    4  C3  UNL     1       5.624  73.632  28.286  1.00  0.00     0.089 A
HETATM    5  C17 UNL     1       6.979  73.527  27.936  1.00  0.00     0.171 A
HETATM    6  C18 UNL     1       7.769  72.458  28.270  1.00  0.00     0.153 A
HETATM    7  N4  UNL     1       9.144  72.433  27.872  1.00  0.00    -0.080 NA
HETATM    8  N5  UNL     1       7.205  71.463  28.970  1.00  0.00    -0.328 N
ATOM      9  H5  UNL     1       7.761  70.651  29.237  1.00  0.00     0.168 HD
HETATM   10  C19 UNL     1       5.914  71.532  29.321  1.00  0.00     0.123 A
HETATM   11  N6  UNL     1       5.389  70.573  29.989  1.00  0.00    -0.384 N
ATOM     12  H61 UNL     1       5.997  69.789  30.225  1.00  0.00     0.157 HD
ATOM     13  H62 UNL     1       4.406  70.625  30.256  1.00  0.00     0.157 HD
ENDROOT
BRANCH   4  14
HETATM   14  N2  UNL     1       4.898  74.766  27.888  1.00  0.00    -0.386 N
ATOM     15  H2  UNL     1       4.583  74.772  26.917  1.00  0.00     0.159 HD
BRANCH  14  16
HETATM   16  C4  UNL     1       4.540  75.920  28.664  1.00  0.00     0.120 C
BRANCH  16  17
HETATM   17  C5  UNL     1       5.127  77.159  27.935  1.00  0.00     0.020 C
BRANCH  17  18
HETATM   18  C6  UNL     1       4.528  78.432  28.428  1.00  0.00     0.002 C
BRANCH  18  19
HETATM   19  C7  UNL     1       3.284  78.803  27.690  1.00  0.00     0.000 C
BRANCH  19  20
HETATM   20  C8  UNL     1       2.159  79.042  28.662  1.00  0.00     0.002 C
BRANCH  20  21
HETATM   21  C9  UNL     1       1.329  77.783  28.855  1.00  0.00     0.027 C
BRANCH  21  22
HETATM   22  C10 UNL     1       0.793  77.398  27.504  1.00  0.00     0.175 C
BRANCH  22  23
HETATM   23  O1  UNL     1      -0.458  76.851  27.474  1.00  0.00    -0.351 OA
BRANCH  23  24
HETATM   24  C11 UNL     1      -1.655  77.355  27.066  1.00  0.00     0.068 A
HETATM   25  C12 UNL     1      -2.646  77.691  28.008  1.00  0.00     0.037 A
HETATM   26  C13 UNL     1      -3.853  78.199  27.635  1.00  0.00     0.003 A
HETATM   27  C14 UNL     1      -4.167  78.412  26.309  1.00  0.00     0.000 A
HETATM   28  C15 UNL     1      -3.228  78.097  25.357  1.00  0.00     0.003 A
HETATM   29  C16 UNL     1      -1.988  77.574  25.752  1.00  0.00     0.037 A
ENDBRANCH  23  24
ENDBRANCH  22  23
ENDBRANCH  21  22
ENDBRANCH  20  21
ENDBRANCH  19  20
ENDBRANCH  18  19
ENDBRANCH  17  18
ENDBRANCH  16  17
ENDBRANCH  14  16
ENDBRANCH   4  14
BRANCH   5  30
HETATM   30  N3  UNL     1       7.553  74.590  27.196  1.00  0.00    -0.110 N
HETATM   31  O2  UNL     1       8.207  75.450  27.842  1.00  0.00    -0.532 OA
HETATM   32  O3  UNL     1       7.441  74.745  25.850  1.00  0.00    -0.532 OA
ENDBRANCH   5  30
TORSDOF 11
ENDMDL