MODEL 2
REMARK VINA RESULT: -7.686784527      0.197      1.146
REMARK  12 active torsions:
REMARK  status: ('A' for Active; 'I' for Inactive)
REMARK    1  A    between atoms: N1_1  and  N2_4
REMARK    2  A    between atoms: N2_4  and  C1_6
REMARK    3  A    between atoms: C4_10  and  N3_11
REMARK    4  A    between atoms: N3_11  and  C5_13
REMARK    5  A    between atoms: C5_13  and  C6_14
REMARK    6  A    between atoms: C6_14  and  C7_15
REMARK    7  A    between atoms: C7_15  and  N4_16
REMARK    8  A    between atoms: N4_16  and  C8_19
REMARK    9  A    between atoms: C8_19  and  C9_20
REMARK   10  A    between atoms: C9_20  and  C10_21
REMARK   11  A    between atoms: C10_21  and  S2_22
REMARK   12  A    between atoms: S2_22  and  C11_23
ROOT
HETATM    1  N4  UNL     1       0.749  77.931  27.098  1.00  0.00    -0.075 N
ATOM      2  H41 UNL     1       1.413  77.999  26.327  1.00  0.00     0.277 HD
ATOM      3  H42 UNL     1       0.271  78.826  26.994  1.00  0.00     0.277 HD
ENDROOT
BRANCH   1   4
HETATM    4  C7  UNL     1       1.451  77.872  28.374  1.00  0.00     0.234 C
BRANCH   4   5
HETATM    5  C6  UNL     1       2.571  78.934  28.220  1.00  0.00     0.047 C
BRANCH   5   6
HETATM    6  C5  UNL     1       3.839  78.103  28.170  1.00  0.00     0.122 C
BRANCH   6   7
HETATM    7  N3  UNL     1       3.744  76.990  29.056  1.00  0.00    -0.382 N
ATOM      8  H3  UNL     1       3.250  77.085  29.944  1.00  0.00     0.160 HD
BRANCH   7   9
HETATM    9  C4  UNL     1       4.344  75.738  28.700  1.00  0.00     0.098 A
HETATM   10  C1  UNL     1       4.006  74.491  29.180  1.00  0.00     0.081 A
HETATM   11  C2  UNL     1       4.700  73.445  28.714  1.00  0.00     0.041 A
HETATM   12  C3  UNL     1       5.687  73.692  27.800  1.00  0.00     0.054 A
HETATM   13  S1  UNL     1       5.615  75.382  27.620  1.00  0.00    -0.082 SA
BRANCH  10  14
HETATM   14  N2  UNL     1       2.949  74.355  30.159  1.00  0.00    -0.305 N
ATOM     15  H2  UNL     1       2.406  75.158  30.474  1.00  0.00     0.186 HD
BRANCH  14  16
HETATM   16  N1  UNL     1       2.710  73.075  30.650  1.00  0.00    -0.345 N
ATOM     17  H12 UNL     1       2.742  72.266  30.030  1.00  0.00     0.176 HD
ATOM     18  H11 UNL     1       2.506  72.996  31.645  1.00  0.00     0.176 HD
ENDBRANCH  14  16
ENDBRANCH  10  14
ENDBRANCH   7   9
ENDBRANCH   6   7
ENDBRANCH   5   6
ENDBRANCH   4   5
ENDBRANCH   1   4
BRANCH   1  19
HETATM   19  C8  UNL     1      -0.162  76.848  26.882  1.00  0.00     0.233 C
BRANCH  19  20
HETATM   20  C9  UNL     1      -1.017  77.060  25.647  1.00  0.00     0.038 C
BRANCH  20  21
HETATM   21  C10 UNL     1      -2.263  76.189  25.844  1.00  0.00     0.084 C
BRANCH  21  22
HETATM   22  S2  UNL     1      -3.039  76.440  27.445  1.00  0.00    -0.094 SA
BRANCH  22  23
HETATM   23  C11 UNL     1      -3.796  78.026  27.624  1.00  0.00     0.145 A
HETATM   24  N5  UNL     1      -5.064  78.300  27.963  1.00  0.00    -0.335 N
HETATM   25  C12 UNL     1      -5.238  79.653  27.975  1.00  0.00     0.061 A
ATOM     26  H5  UNL     1      -5.783  77.608  28.178  1.00  0.00     0.168 HD
HETATM   27  C13 UNL     1      -6.305  80.460  28.242  1.00  0.00     0.032 A
HETATM   28  C17 UNL     1      -4.027  80.185  27.633  1.00  0.00     0.061 A
HETATM   29  C14 UNL     1      -6.189  81.843  28.172  1.00  0.00     0.002 A
HETATM   30  C15 UNL     1      -4.984  82.384  27.830  1.00  0.00     0.002 A
HETATM   31  C16 UNL     1      -3.906  81.570  27.560  1.00  0.00     0.032 A
HETATM   32  N6  UNL     1      -3.147  79.201  27.417  1.00  0.00    -0.335 N
ATOM     33  H6  UNL     1      -2.169  79.311  27.149  1.00  0.00     0.168 HD
ENDBRANCH  22  23
ENDBRANCH  21  22
ENDBRANCH  20  21
ENDBRANCH  19  20
ENDBRANCH   1  19
TORSDOF 12
ENDMDL