MODEL 4
REMARK VINA RESULT: -6.601867152      1.201      1.497
REMARK  12 active torsions:
REMARK  status: ('A' for Active; 'I' for Inactive)
REMARK    1  A    between atoms: C2_3  and  C3_4
REMARK    2  A    between atoms: C3_4  and  N2_5
REMARK    3  A    between atoms: N2_5  and  C4_7
REMARK    4  A    between atoms: C4_7  and  C5_8
REMARK    5  A    between atoms: C5_8  and  C6_9
REMARK    6  A    between atoms: C6_9  and  N3_10
REMARK    7  A    between atoms: N3_10  and  C7_13
REMARK    8  A    between atoms: C7_13  and  C8_14
REMARK    9  A    between atoms: C8_14  and  C9_15
REMARK   10  A    between atoms: C9_15  and  N4_16
REMARK   11  A    between atoms: N4_16  and  C10_18
REMARK   12  A    between atoms: C17_25  and  O1_26
ROOT
HETATM    1  N1  UNL     1      -4.734  78.953  27.549  1.00  0.00    -0.197 NA
HETATM    2  C1  UNL     1      -4.202  78.568  26.583  1.00  0.00     0.060 C
HETATM    3  C2  UNL     1      -3.549  78.063  25.363  1.00  0.00     0.143 C
ENDROOT
BRANCH   3   4
HETATM    4  C3  UNL     1      -2.203  77.506  25.782  1.00  0.00     0.127 C
BRANCH   4   5
HETATM    5  N2  UNL     1      -2.202  77.051  27.141  1.00  0.00    -0.420 N
ATOM      6  H2  UNL     1      -2.929  76.439  27.512  1.00  0.00     0.153 HD
BRANCH   5   7
HETATM    7  C4  UNL     1      -1.110  77.515  27.942  1.00  0.00     0.115 C
BRANCH   7   8
HETATM    8  C5  UNL     1       0.205  77.092  27.311  1.00  0.00     0.046 C
BRANCH   8   9
HETATM    9  C6  UNL     1       1.362  77.322  28.247  1.00  0.00     0.234 C
BRANCH   9  10
HETATM   10  N3  UNL     1       2.164  78.424  27.697  1.00  0.00    -0.075 N
ATOM     11  H32 UNL     1       2.044  78.487  26.686  1.00  0.00     0.277 HD
ATOM     12  H31 UNL     1       1.773  79.325  27.972  1.00  0.00     0.277 HD
BRANCH  10  13
HETATM   13  C7  UNL     1       3.543  78.350  28.035  1.00  0.00     0.234 C
BRANCH  13  14
HETATM   14  C8  UNL     1       3.933  77.089  28.708  1.00  0.00     0.047 C
BRANCH  14  15
HETATM   15  C9  UNL     1       5.215  76.451  28.378  1.00  0.00     0.121 C
BRANCH  15  16
HETATM   16  N4  UNL     1       5.190  75.273  27.552  1.00  0.00    -0.388 N
ATOM     17  H4  UNL     1       4.803  75.283  26.609  1.00  0.00     0.159 HD
BRANCH  16  18
HETATM   18  C10 UNL     1       5.734  74.098  28.130  1.00  0.00     0.050 A
HETATM   19  C11 UNL     1       4.950  73.230  28.839  1.00  0.00     0.004 A
HETATM   20  C12 UNL     1       3.599  73.454  29.028  1.00  0.00     0.014 A
HETATM   21  C16 UNL     1       5.517  72.074  29.406  1.00  0.00     0.010 A
HETATM   22  C13 UNL     1       2.785  72.596  29.744  1.00  0.00     0.001 A
HETATM   23  C14 UNL     1       3.372  71.473  30.285  1.00  0.00     0.001 A
HETATM   24  C15 UNL     1       4.715  71.212  30.121  1.00  0.00     0.015 A
HETATM   25  C17 UNL     1       6.862  71.850  29.224  1.00  0.00     0.089 A
HETATM   26  C18 UNL     1       7.673  72.732  28.499  1.00  0.00     0.035 A
HETATM   27  C19 UNL     1       9.019  72.494  28.323  1.00  0.00     0.060 A
HETATM   28  C23 UNL     1       7.080  73.851  27.961  1.00  0.00     0.006 A
HETATM   29  N5  UNL     1       9.583  71.339  28.893  1.00  0.00    -0.101 NA
HETATM   30  C20 UNL     1       9.786  73.398  27.591  1.00  0.00     0.027 A
HETATM   31  C21 UNL     1       9.216  74.514  27.048  1.00  0.00     0.003 A
HETATM   32  C22 UNL     1       7.876  74.744  27.230  1.00  0.00     0.015 A
BRANCH  25  33
HETATM   33  O1  UNL     1       7.481  70.745  29.748  1.00  0.00    -0.359 OA
ATOM     34  H1  UNL     1       7.151  70.316  30.530  1.00  0.00     0.217 HD
ENDBRANCH  25  33
ENDBRANCH  16  18
ENDBRANCH  15  16
ENDBRANCH  14  15
ENDBRANCH  13  14
ENDBRANCH  10  13
ENDBRANCH   9  10
ENDBRANCH   8   9
ENDBRANCH   7   8
ENDBRANCH   5   7
ENDBRANCH   4   5
ENDBRANCH   3   4
TORSDOF 12
ENDMDL