MODEL 5
REMARK VINA RESULT: -8.207883950      0.328      1.280
REMARK  11 active torsions:
REMARK  status: ('A' for Active; 'I' for Inactive)
REMARK    1  A    between atoms: O1_2  and  C2_3
REMARK    2  A    between atoms: C5_6  and  N1_7
REMARK    3  A    between atoms: N1_7  and  C6_9
REMARK    4  A    between atoms: C9_14  and  N3_15
REMARK    5  A    between atoms: N3_15  and  C10_17
REMARK    6  A    between atoms: C10_17  and  C11_18
REMARK    7  A    between atoms: C11_18  and  N4_19
REMARK    8  A    between atoms: N4_19  and  C12_21
REMARK    9  A    between atoms: C12_21  and  C13_22
REMARK   10  A    between atoms: C13_22  and  N5_23
REMARK   11  A    between atoms: N5_23  and  C14_25
ROOT
HETATM    1  C6  UNL     1       3.994  74.916  28.568  1.00  0.00     0.050 A
HETATM    2  C7  UNL     1       5.080  75.628  28.121  1.00  0.00     0.117 A
HETATM    3  N2  UNL     1       5.091  76.975  28.030  1.00  0.00    -0.371 N
ATOM      4  H2  UNL     1       5.935  77.436  27.690  1.00  0.00     0.164 HD
HETATM    5  C8  UNL     1       4.042  77.727  28.370  1.00  0.00     0.116 A
HETATM    6  C9  UNL     1       2.904  77.053  28.833  1.00  0.00     0.046 A
HETATM    7  C20 UNL     1       2.876  75.680  28.932  1.00  0.00     0.061 A
ENDROOT
BRANCH   6   8
HETATM    8  N3  UNL     1       1.810  77.851  29.210  1.00  0.00    -0.384 N
ATOM      9  H3  UNL     1       1.958  78.558  29.930  1.00  0.00     0.160 HD
BRANCH   8  10
HETATM   10  C10 UNL     1       0.506  77.730  28.644  1.00  0.00     0.164 C
BRANCH  10  11
HETATM   11  C11 UNL     1       0.428  77.001  27.341  1.00  0.00     0.079 C
BRANCH  11  12
HETATM   12  N4  UNL     1      -0.084  77.640  26.219  1.00  0.00    -0.379 N
ATOM     13  H4  UNL     1       0.344  78.523  25.939  1.00  0.00     0.164 HD
BRANCH  12  14
HETATM   14  C12 UNL     1      -1.141  77.157  25.449  1.00  0.00     0.079 C
BRANCH  14  15
HETATM   15  C13 UNL     1      -2.232  78.086  25.047  1.00  0.00     0.164 C
BRANCH  15  16
HETATM   16  N5  UNL     1      -2.299  79.182  26.017  1.00  0.00    -0.385 N
ATOM     17  H5  UNL     1      -1.461  79.740  26.177  1.00  0.00     0.160 HD
BRANCH  16  18
HETATM   18  C14 UNL     1      -3.471  79.504  26.742  1.00  0.00     0.028 A
HETATM   19  C15 UNL     1      -4.456  78.603  27.075  1.00  0.00     0.031 A
HETATM   20  C16 UNL     1      -5.580  78.951  27.791  1.00  0.00     0.029 A
HETATM   21  C17 UNL     1      -5.752  80.255  28.204  1.00  0.00     0.046 A
HETATM   22  N6  UNL     1      -6.890  80.678  28.944  1.00  0.00    -0.102 NA
HETATM   23  C18 UNL     1      -4.775  81.152  27.873  1.00  0.00     0.029 A
HETATM   24  C19 UNL     1      -3.640  80.834  27.159  1.00  0.00     0.031 A
ENDBRANCH  16  18
ENDBRANCH  15  16
ENDBRANCH  14  15
ENDBRANCH  12  14
ENDBRANCH  11  12
ENDBRANCH  10  11
ENDBRANCH   8  10
ENDBRANCH   6   8
BRANCH   1  25
HETATM   25  N1  UNL     1       3.941  73.510  28.714  1.00  0.00    -0.355 N
ATOM     26  H1  UNL     1       3.470  72.988  27.975  1.00  0.00     0.166 HD
BRANCH  25  27
HETATM   27  C5  UNL     1       4.479  72.757  29.786  1.00  0.00     0.032 A
HETATM   28  C4  UNL     1       5.607  71.977  29.688  1.00  0.00     0.032 A
HETATM   29  C3  UNL     1       6.070  71.234  30.783  1.00  0.00     0.039 A
HETATM   30  C2  UNL     1       5.424  71.249  32.000  1.00  0.00     0.068 A
HETATM   31  C22 UNL     1       4.295  72.027  32.106  1.00  0.00     0.039 A
HETATM   32  C21 UNL     1       3.838  72.759  31.032  1.00  0.00     0.032 A
BRANCH  30  33
HETATM   33  O1  UNL     1       5.884  70.509  33.089  1.00  0.00    -0.356 OA
HETATM   34  C1  UNL     1       7.265  70.392  33.382  1.00  0.00     0.210 C
ENDBRANCH  30  33
ENDBRANCH  25  27
ENDBRANCH   1  25
TORSDOF 11
ENDMDL