MODEL 1
REMARK VINA RESULT: -7.791996084      0.000      0.000
REMARK  13 active torsions:
REMARK  status: ('A' for Active; 'I' for Inactive)
REMARK    1  A    between atoms: N1_1  and  C1_4
REMARK    2  A    between atoms: C4_7  and  N2_8
REMARK    3  A    between atoms: N2_8  and  C5_10
REMARK    4  A    between atoms: C5_10  and  C6_11
REMARK    5  A    between atoms: C6_11  and  C7_12
REMARK    6  A    between atoms: C7_12  and  C8_13
REMARK    7  A    between atoms: C8_13  and  C9_14
REMARK    8  A    between atoms: C9_14  and  C10_15
REMARK    9  A    between atoms: C10_15  and  C11_16
REMARK   10  A    between atoms: C11_16  and  C12_17
REMARK   11  A    between atoms: C12_17  and  N3_18
REMARK   12  A    between atoms: C13_22  and  N4_23
REMARK   13  A    between atoms: C15_25  and  C16_26
ROOT
HETATM    1  C1  UNL     1       5.028  78.206  28.615  1.00  0.00     0.100 A
HETATM    2  C2  UNL     1       5.663  76.986  28.548  1.00  0.00     0.050 A
HETATM    3  C3  UNL     1       4.837  75.856  28.515  1.00  0.00     0.037 A
HETATM    4  C4  UNL     1       3.473  75.963  28.549  1.00  0.00     0.074 A
HETATM    5  C13 UNL     1       2.905  77.211  28.616  1.00  0.00     0.156 A
HETATM    6  N7  UNL     1       3.682  78.322  28.648  1.00  0.00    -0.326 N
ATOM      7  H7  UNL     1       3.250  79.245  28.698  1.00  0.00     0.169 HD
ENDROOT
BRANCH   4   8
HETATM    8  N2  UNL     1       2.654  74.822  28.516  1.00  0.00    -0.387 N
ATOM      9  H2  UNL     1       1.719  74.866  28.110  1.00  0.00     0.159 HD
BRANCH   8  10
HETATM   10  C5  UNL     1       3.159  73.584  29.068  1.00  0.00     0.120 C
BRANCH  10  11
HETATM   11  C6  UNL     1       2.965  73.510  30.562  1.00  0.00     0.020 C
BRANCH  11  12
HETATM   12  C7  UNL     1       3.301  72.174  31.128  1.00  0.00     0.002 C
BRANCH  12  13
HETATM   13  C8  UNL     1       4.262  72.257  32.294  1.00  0.00     0.000 C
BRANCH  13  14
HETATM   14  C9  UNL     1       5.505  71.464  31.997  1.00  0.00     0.000 C
BRANCH  14  15
HETATM   15  C10 UNL     1       6.572  71.641  33.027  1.00  0.00     0.002 C
BRANCH  15  16
HETATM   16  C11 UNL     1       7.335  70.415  33.308  1.00  0.00     0.027 C
BRANCH  16  17
HETATM   17  C12 UNL     1       7.896  69.628  32.203  1.00  0.00     0.229 C
BRANCH  17  18
HETATM   18  N3  UNL     1       9.133  68.974  32.348  1.00  0.00    -0.079 N
ATOM     19  H33 UNL     1       9.504  69.194  33.273  1.00  0.00     0.274 HD
ATOM     20  H32 UNL     1       8.957  67.972  32.428  1.00  0.00     0.274 HD
ATOM     21  H31 UNL     1       9.876  69.114  31.665  1.00  0.00     0.274 HD
ENDBRANCH  17  18
ENDBRANCH  16  17
ENDBRANCH  15  16
ENDBRANCH  14  15
ENDBRANCH  13  14
ENDBRANCH  12  13
ENDBRANCH  11  12
ENDBRANCH  10  11
ENDBRANCH   8  10
ENDBRANCH   4   8
BRANCH   5  22
HETATM   22  N4  UNL     1       1.476  77.324  28.650  1.00  0.00    -0.232 N
HETATM   23  C14 UNL     1       0.643  77.529  27.619  1.00  0.00     0.151 A
HETATM   24  C15 UNL     1      -0.655  77.576  28.081  1.00  0.00     0.077 A
HETATM   25  N5  UNL     1      -0.546  77.390  29.430  1.00  0.00    -0.284 N
HETATM   26  N6  UNL     1       0.723  77.245  29.730  1.00  0.00    -0.234 N
ATOM     27  H5  UNL     1      -1.321  77.367  30.093  1.00  0.00     0.188 HD
ATOM     28  H6  UNL     1       1.080  77.091  30.674  1.00  0.00     0.209 HD
BRANCH  24  29
HETATM   29  C16 UNL     1      -1.884  77.778  27.324  1.00  0.00    -0.007 A
HETATM   30  C17 UNL     1      -1.834  77.703  25.955  1.00  0.00     0.014 A
HETATM   31  C18 UNL     1      -2.969  77.885  25.169  1.00  0.00     0.001 A
HETATM   32  C19 UNL     1      -4.141  78.144  25.829  1.00  0.00     0.000 A
HETATM   33  C20 UNL     1      -4.200  78.220  27.213  1.00  0.00     0.001 A
HETATM   34  C21 UNL     1      -3.058  78.037  27.989  1.00  0.00     0.014 A
ENDBRANCH  24  29
ENDBRANCH   5  22
BRANCH   1  35
HETATM   35  N1  UNL     1       5.793  79.253  28.645  1.00  0.00    -0.385 N
ATOM     36  H12 UNL     1       6.584  79.348  28.007  1.00  0.00     0.157 HD
ATOM     37  H11 UNL     1       5.560  79.965  29.337  1.00  0.00     0.157 HD
ENDBRANCH   1  35
TORSDOF 13
ENDMDL