MODEL 3
REMARK VINA RESULT: -7.960934441      2.296     10.503
REMARK  12 active torsions:
REMARK  status: ('A' for Active; 'I' for Inactive)
REMARK    1  A    between atoms: C5_6  and  N2_7
REMARK    2  A    between atoms: N2_7  and  C6_9
REMARK    3  A    between atoms: C6_9  and  C7_10
REMARK    4  A    between atoms: C7_10  and  N3_11
REMARK    5  A    between atoms: N3_11  and  C8_13
REMARK    6  A    between atoms: C8_13  and  C9_14
REMARK    7  A    between atoms: C9_14  and  N4_15
REMARK    8  A    between atoms: N4_15  and  C10_17
REMARK    9  A    between atoms: C13_20  and  N5_21
REMARK   10  A    between atoms: N5_21  and  C14_23
REMARK   11  A    between atoms: C14_23  and  C15_24
REMARK   12  A    between atoms: C21_31  and  O2_32
ROOT
HETATM    1  N1  UNL     1       5.670  69.863  33.072  1.00  0.00    -0.191 NA
HETATM    2  C1  UNL     1       5.287  70.643  32.326  1.00  0.00     0.099 C
HETATM    3  C2  UNL     1       4.794  71.593  31.392  1.00  0.00     0.047 A
HETATM    4  C3  UNL     1       3.785  72.471  31.770  1.00  0.00     0.025 A
HETATM    5  C4  UNL     1       3.328  73.379  30.842  1.00  0.00     0.033 A
HETATM    6  C5  UNL     1       3.829  73.453  29.554  1.00  0.00     0.061 A
HETATM    7  C21 UNL     1       4.845  72.550  29.217  1.00  0.00     0.093 A
HETATM    8  C22 UNL     1       5.325  71.625  30.130  1.00  0.00     0.061 A
ENDROOT
BRANCH   7   9
HETATM    9  O2  UNL     1       5.396  72.555  27.964  1.00  0.00    -0.358 OA
ATOM     10  H2  UNL     1       6.339  72.544  27.850  1.00  0.00     0.217 HD
ENDBRANCH   7   9
BRANCH   6  11
HETATM   11  N2  UNL     1       3.336  74.393  28.615  1.00  0.00    -0.383 N
ATOM     12  H2  UNL     1       2.493  74.201  28.073  1.00  0.00     0.160 HD
BRANCH  11  13
HETATM   13  C6  UNL     1       4.067  75.639  28.447  1.00  0.00     0.164 C
BRANCH  13  14
HETATM   14  C7  UNL     1       3.399  76.744  29.266  1.00  0.00     0.079 C
BRANCH  14  15
HETATM   15  N3  UNL     1       3.314  77.955  28.580  1.00  0.00    -0.379 N
ATOM     16  H3  UNL     1       4.133  78.563  28.588  1.00  0.00     0.164 HD
BRANCH  15  17
HETATM   17  C8  UNL     1       2.195  78.390  27.886  1.00  0.00     0.079 C
BRANCH  17  18
HETATM   18  C9  UNL     1       1.045  77.466  27.876  1.00  0.00     0.164 C
BRANCH  18  19
HETATM   19  N4  UNL     1       0.274  77.340  26.680  1.00  0.00    -0.385 N
ATOM     20  H4  UNL     1       0.700  77.055  25.798  1.00  0.00     0.160 HD
BRANCH  19  21
HETATM   21  C10 UNL     1      -1.130  77.633  26.778  1.00  0.00     0.028 A
HETATM   22  C11 UNL     1      -1.783  77.497  27.984  1.00  0.00     0.031 A
HETATM   23  C12 UNL     1      -3.137  77.756  28.074  1.00  0.00     0.031 A
HETATM   24  C13 UNL     1      -3.848  78.152  26.964  1.00  0.00     0.028 A
HETATM   25  C19 UNL     1      -3.194  78.287  25.768  1.00  0.00     0.031 A
HETATM   26  C20 UNL     1      -1.820  78.027  25.668  1.00  0.00     0.031 A
BRANCH  24  27
HETATM   27  N5  UNL     1      -5.222  78.404  27.088  1.00  0.00    -0.384 N
ATOM     28  H5  UNL     1      -5.863  78.100  26.356  1.00  0.00     0.160 HD
BRANCH  27  29
HETATM   29  C14 UNL     1      -5.731  79.090  28.251  1.00  0.00     0.184 C
BRANCH  29  30
HETATM   30  C15 UNL     1      -5.497  80.577  28.115  1.00  0.00     0.070 A
HETATM   31  C16 UNL     1      -4.292  81.234  28.044  1.00  0.00     0.036 A
HETATM   32  C17 UNL     1      -4.514  82.595  27.925  1.00  0.00     0.027 A
HETATM   33  C18 UNL     1      -5.904  82.703  27.929  1.00  0.00     0.142 A
HETATM   34  O1  UNL     1      -6.423  81.503  28.042  1.00  0.00    -0.325 OA
ENDBRANCH  29  30
ENDBRANCH  27  29
ENDBRANCH  24  27
ENDBRANCH  19  21
ENDBRANCH  18  19
ENDBRANCH  17  18
ENDBRANCH  15  17
ENDBRANCH  14  15
ENDBRANCH  13  14
ENDBRANCH  11  13
ENDBRANCH   6  11
TORSDOF 12
ENDMDL