MODEL 1
REMARK VINA RESULT: -8.309670457      0.000      0.000
REMARK  13 active torsions:
REMARK  status: ('A' for Active; 'I' for Inactive)
REMARK    1  A    between atoms: O1_1  and  C1_3
REMARK    2  A    between atoms: C4_7  and  N1_8
REMARK    3  A    between atoms: N1_8  and  C5_10
REMARK    4  A    between atoms: C5_10  and  C6_11
REMARK    5  A    between atoms: C6_11  and  N2_12
REMARK    6  A    between atoms: N2_12  and  C7_15
REMARK    7  A    between atoms: C7_15  and  C8_16
REMARK    8  A    between atoms: C8_16  and  N3_17
REMARK    9  A    between atoms: N3_17  and  C9_19
REMARK   10  A    between atoms: C14_24  and  N4_25
REMARK   11  A    between atoms: N4_25  and  C15_27
REMARK   12  A    between atoms: C15_27  and  C16_28
REMARK   13  A    between atoms: C16_28  and  C17_29
ROOT
HETATM    1  N3  UNL     1       1.175  76.957  28.855  1.00  0.00    -0.387 N
ATOM      2  H3  UNL     1       0.930  76.169  29.454  1.00  0.00     0.159 HD
ENDROOT
BRANCH   1   3
HETATM    3  C8  UNL     1       0.122  77.630  28.131  1.00  0.00     0.147 C
BRANCH   3   4
HETATM    4  C7  UNL     1      -0.136  76.853  26.860  1.00  0.00     0.251 C
BRANCH   4   5
HETATM    5  N2  UNL     1      -0.613  77.703  25.833  1.00  0.00    -0.072 N
ATOM      6  H22 UNL     1      -0.040  77.623  24.993  1.00  0.00     0.277 HD
ATOM      7  H21 UNL     1      -0.439  78.683  26.057  1.00  0.00     0.277 HD
BRANCH   5   8
HETATM    8  C6  UNL     1      -1.993  77.481  25.536  1.00  0.00     0.251 C
BRANCH   8   9
HETATM    9  C5  UNL     1      -2.763  78.791  25.449  1.00  0.00     0.147 C
BRANCH   9  10
HETATM   10  N1  UNL     1      -2.635  79.540  26.672  1.00  0.00    -0.384 N
ATOM     11  H1  UNL     1      -1.763  79.486  27.199  1.00  0.00     0.159 HD
BRANCH  10  12
HETATM   12  C4  UNL     1      -3.688  80.350  27.163  1.00  0.00     0.088 A
HETATM   13  C1  UNL     1      -4.819  79.872  27.841  1.00  0.00     0.210 A
HETATM   14  O2  UNL     1      -5.575  80.880  28.167  1.00  0.00    -0.299 OA
HETATM   15  C2  UNL     1      -5.072  82.020  27.775  1.00  0.00     0.147 A
HETATM   16  C3  UNL     1      -3.871  81.711  27.135  1.00  0.00     0.059 A
BRANCH  13  17
HETATM   17  O1  UNL     1      -5.031  78.518  28.091  1.00  0.00    -0.339 OA
ATOM     18  H1  UNL     1      -4.630  77.771  27.664  1.00  0.00     0.220 HD
ENDBRANCH  13  17
ENDBRANCH  10  12
ENDBRANCH   9  10
ENDBRANCH   8   9
ENDBRANCH   5   8
ENDBRANCH   4   5
ENDBRANCH   3   4
ENDBRANCH   1   3
BRANCH   1  19
HETATM   19  C9  UNL     1       2.530  77.344  28.768  1.00  0.00     0.054 A
HETATM   20  C10 UNL     1       2.870  78.585  28.231  1.00  0.00     0.031 A
HETATM   21  C11 UNL     1       4.186  78.998  28.083  1.00  0.00     0.002 A
HETATM   22  C12 UNL     1       5.210  78.177  28.469  1.00  0.00     0.002 A
HETATM   23  C13 UNL     1       4.880  76.930  29.007  1.00  0.00     0.031 A
HETATM   24  C14 UNL     1       3.570  76.519  29.155  1.00  0.00     0.054 A
BRANCH  24  25
HETATM   25  N4  UNL     1       3.319  75.255  29.751  1.00  0.00    -0.388 N
ATOM     26  H4  UNL     1       3.168  75.202  30.758  1.00  0.00     0.159 HD
BRANCH  25  27
HETATM   27  C15 UNL     1       3.272  74.026  28.954  1.00  0.00     0.124 C
BRANCH  27  28
HETATM   28  C16 UNL     1       2.960  72.906  29.885  1.00  0.00     0.058 C
BRANCH  28  29
HETATM   29  C17 UNL     1       4.135  72.312  30.565  1.00  0.00    -0.057 A
HETATM   30  C18 UNL     1       5.163  71.883  29.738  1.00  0.00     0.007 A
HETATM   31  C19 UNL     1       6.298  71.308  30.280  1.00  0.00     0.001 A
HETATM   32  C20 UNL     1       6.386  71.168  31.657  1.00  0.00     0.000 A
HETATM   33  C21 UNL     1       5.350  71.601  32.467  1.00  0.00     0.001 A
HETATM   34  C22 UNL     1       4.216  72.178  31.928  1.00  0.00     0.007 A
ENDBRANCH  28  29
ENDBRANCH  27  28
ENDBRANCH  25  27
ENDBRANCH  24  25
ENDBRANCH   1  19
TORSDOF 13
ENDMDL