MODEL 5
REMARK VINA RESULT: -8.156738114      1.057      1.571
REMARK  12 active torsions:
REMARK  status: ('A' for Active; 'I' for Inactive)
REMARK    1  A    between atoms: C2_3  and  N2_4
REMARK    2  A    between atoms: C6_12  and  N4_13
REMARK    3  A    between atoms: N4_13  and  C7_15
REMARK    4  A    between atoms: C7_15  and  C8_16
REMARK    5  A    between atoms: C8_16  and  C9_17
REMARK    6  A    between atoms: C9_17  and  C10_18
REMARK    7  A    between atoms: C10_18  and  C11_19
REMARK    8  A    between atoms: C11_19  and  C12_20
REMARK    9  A    between atoms: C12_20  and  C13_21
REMARK   10  A    between atoms: C13_21  and  C14_22
REMARK   11  A    between atoms: C14_22  and  N5_23
REMARK   12  A    between atoms: N5_23  and  C15_25
ROOT
HETATM    1  C7  UNL     1       0.006  77.058  27.080  1.00  0.00     0.119 C
ENDROOT
BRANCH   1   2
HETATM    2  N4  UNL     1      -0.937  77.932  26.373  1.00  0.00    -0.390 N
ATOM      3  H4  UNL     1      -0.653  78.408  25.518  1.00  0.00     0.159 HD
BRANCH   2   4
HETATM    4  C6  UNL     1      -2.247  78.110  26.888  1.00  0.00     0.030 A
HETATM    5  C5  UNL     1      -3.041  77.035  27.220  1.00  0.00     0.031 A
HETATM    6  C4  UNL     1      -4.326  77.199  27.726  1.00  0.00     0.034 A
HETATM    7  C3  UNL     1      -4.850  78.464  27.910  1.00  0.00     0.076 A
HETATM    8  N3  UNL     1      -6.016  78.956  28.362  1.00  0.00    -0.190 N
HETATM    9  C21 UNL     1      -4.051  79.538  27.576  1.00  0.00     0.080 A
HETATM   10  C2  UNL     1      -5.969  80.299  28.321  1.00  0.00     0.678 A
ATOM     11  H3  UNL     1      -6.808  78.400  28.684  1.00  0.00     0.184 HD
HETATM   12  N1  UNL     1      -4.754  80.659  27.834  1.00  0.00    -0.186 N
HETATM   13  C1  UNL     1      -4.267  82.001  27.618  1.00  0.00     0.175 C
HETATM   14  C20 UNL     1      -2.775  79.372  27.074  1.00  0.00     0.061 A
BRANCH  10  15
HETATM   15  N2  UNL     1      -6.915  81.122  28.680  1.00  0.00    -0.234 N
ATOM     16  H22 UNL     1      -7.031  82.088  28.372  1.00  0.00     0.174 HD
ATOM     17  H21 UNL     1      -7.673  80.905  29.326  1.00  0.00     0.174 HD
ENDBRANCH  10  15
ENDBRANCH   2   4
ENDBRANCH   1   2
BRANCH   1  18
HETATM   18  C8  UNL     1       0.337  77.603  28.437  1.00  0.00     0.020 C
BRANCH  18  19
HETATM   19  C9  UNL     1       1.811  77.537  28.728  1.00  0.00     0.002 C
BRANCH  19  20
HETATM   20  C10 UNL     1       2.603  78.653  28.137  1.00  0.00     0.000 C
BRANCH  20  21
HETATM   21  C11 UNL     1       4.077  78.433  28.167  1.00  0.00     0.000 C
BRANCH  21  22
HETATM   22  C12 UNL     1       4.470  77.186  28.879  1.00  0.00     0.002 C
BRANCH  22  23
HETATM   23  C13 UNL     1       5.625  76.527  28.178  1.00  0.00     0.020 C
BRANCH  23  24
HETATM   24  C14 UNL     1       5.388  75.034  27.998  1.00  0.00     0.121 C
BRANCH  24  25
HETATM   25  N5  UNL     1       4.018  74.680  28.284  1.00  0.00    -0.375 N
ATOM     26  H5  UNL     1       3.251  75.157  27.810  1.00  0.00     0.161 HD
BRANCH  25  27
HETATM   27  C15 UNL     1       3.753  73.662  29.230  1.00  0.00     0.125 A
HETATM   28  N6  UNL     1       3.590  73.937  30.554  1.00  0.00    -0.351 N
HETATM   29  C16 UNL     1       3.338  72.977  31.463  1.00  0.00     0.090 A
ATOM     30  H6  UNL     1       3.661  74.905  30.868  1.00  0.00     0.166 HD
HETATM   31  C17 UNL     1       3.243  71.672  31.026  1.00  0.00     0.019 A
HETATM   32  C18 UNL     1       3.398  71.318  29.699  1.00  0.00     0.032 A
HETATM   33  C19 UNL     1       3.656  72.349  28.816  1.00  0.00     0.090 A
HETATM   34  N7  UNL     1       3.823  72.039  27.439  1.00  0.00    -0.098 NA
ENDBRANCH  25  27
ENDBRANCH  24  25
ENDBRANCH  23  24
ENDBRANCH  22  23
ENDBRANCH  21  22
ENDBRANCH  20  21
ENDBRANCH  19  20
ENDBRANCH  18  19
ENDBRANCH   1  18
TORSDOF 12
ENDMDL