MODEL 1
REMARK VINA RESULT: -7.554338447      0.000      0.000
REMARK  13 active torsions:
REMARK  status: ('A' for Active; 'I' for Inactive)
REMARK    1  A    between atoms: C2_2  and  C3_3
REMARK    2  A    between atoms: C3_3  and  N1_4
REMARK    3  A    between atoms: C4_5  and  C5_6
REMARK    4  A    between atoms: C5_6  and  N2_7
REMARK    5  A    between atoms: N2_7  and  C6_9
REMARK    6  A    between atoms: C9_12  and  N3_13
REMARK    7  A    between atoms: N3_13  and  C10_15
REMARK    8  A    between atoms: C10_15  and  C11_16
REMARK    9  A    between atoms: C11_16  and  C12_17
REMARK   10  A    between atoms: C12_17  and  C13_18
REMARK   11  A    between atoms: C13_18  and  C14_19
REMARK   12  A    between atoms: C14_19  and  N4_20
REMARK   13  A    between atoms: C18_29  and  N6_30
ROOT
HETATM    1  C5  UNL     1       2.186  76.844  29.127  1.00  0.00     0.196 C
ENDROOT
BRANCH   1   2
HETATM    2  C4  UNL     1       2.893  75.540  29.169  1.00  0.00     0.103 A
HETATM    3  N1  UNL     1       4.122  75.330  28.616  1.00  0.00    -0.319 N
HETATM    4  C20 UNL     1       4.451  74.028  28.844  1.00  0.00     0.141 A
HETATM    5  C17 UNL     1       3.397  73.459  29.546  1.00  0.00     0.122 A
HETATM    6  N8  UNL     1       5.542  73.315  28.510  1.00  0.00    -0.336 N
HETATM    7  N5  UNL     1       2.472  74.392  29.728  1.00  0.00    -0.338 N
HETATM    8  C18 UNL     1       3.472  72.126  29.908  1.00  0.00     0.131 A
ATOM      9  H5  UNL     1       1.585  74.260  30.212  1.00  0.00     0.167 HD
HETATM   10  N7  UNL     1       4.586  71.466  29.545  1.00  0.00    -0.337 N
HETATM   11  C19 UNL     1       5.605  72.023  28.865  1.00  0.00     0.183 A
ATOM     12  H7  UNL     1       4.664  70.481  29.801  1.00  0.00     0.168 HD
ATOM     13  H8  UNL     1       6.307  73.750  27.995  1.00  0.00     0.168 HD
BRANCH   3  14
HETATM   14  C3  UNL     1       4.888  76.311  27.923  1.00  0.00     0.131 C
BRANCH  14  15
HETATM   15  C2  UNL     1       5.693  77.237  28.771  1.00  0.00     0.016 C
HETATM   16  C1  UNL     1       5.299  78.672  28.624  1.00  0.00     0.006 C
ENDBRANCH  14  15
ENDBRANCH   3  14
BRANCH   8  17
HETATM   17  N6  UNL     1       2.519  71.538  30.565  1.00  0.00    -0.383 N
ATOM     18  H62 UNL     1       1.919  72.052  31.210  1.00  0.00     0.157 HD
ATOM     19  H61 UNL     1       2.329  70.541  30.463  1.00  0.00     0.157 HD
ENDBRANCH   8  17
ENDBRANCH   1   2
BRANCH   1  20
HETATM   20  N2  UNL     1       1.598  77.089  27.824  1.00  0.00    -0.383 N
ATOM     21  H2  UNL     1       2.208  77.168  27.010  1.00  0.00     0.160 HD
BRANCH  20  22
HETATM   22  C6  UNL     1       0.213  77.220  27.655  1.00  0.00     0.028 A
HETATM   23  C7  UNL     1      -0.578  77.533  28.726  1.00  0.00     0.031 A
HETATM   24  C8  UNL     1      -1.920  77.661  28.566  1.00  0.00     0.031 A
HETATM   25  C9  UNL     1      -2.498  77.474  27.306  1.00  0.00     0.028 A
HETATM   26  C15 UNL     1      -1.705  77.161  26.237  1.00  0.00     0.031 A
HETATM   27  C16 UNL     1      -0.350  77.036  26.417  1.00  0.00     0.031 A
BRANCH  25  28
HETATM   28  N3  UNL     1      -3.906  77.596  27.175  1.00  0.00    -0.390 N
ATOM     29  H3  UNL     1      -4.512  76.856  27.529  1.00  0.00     0.159 HD
BRANCH  28  30
HETATM   30  C10 UNL     1      -4.484  78.751  26.549  1.00  0.00     0.119 C
BRANCH  30  31
HETATM   31  C11 UNL     1      -3.776  80.028  26.905  1.00  0.00     0.020 C
BRANCH  31  32
HETATM   32  C12 UNL     1      -4.371  80.647  28.163  1.00  0.00     0.003 C
BRANCH  32  33
HETATM   33  C13 UNL     1      -4.594  82.122  27.958  1.00  0.00     0.027 C
BRANCH  33  34
HETATM   34  C14 UNL     1      -6.098  82.335  27.916  1.00  0.00     0.229 C
BRANCH  34  35
HETATM   35  N4  UNL     1      -6.732  81.224  28.611  1.00  0.00    -0.079 N
ATOM     36  H43 UNL     1      -6.240  80.962  29.466  1.00  0.00     0.274 HD
ATOM     37  H42 UNL     1      -7.621  81.483  29.039  1.00  0.00     0.274 HD
ATOM     38  H41 UNL     1      -6.821  80.449  27.955  1.00  0.00     0.274 HD
ENDBRANCH  34  35
ENDBRANCH  33  34
ENDBRANCH  32  33
ENDBRANCH  31  32
ENDBRANCH  30  31
ENDBRANCH  28  30
ENDBRANCH  25  28
ENDBRANCH  20  22
ENDBRANCH   1  20
TORSDOF 13
ENDMDL