MODEL 4
REMARK VINA RESULT: -9.685648306      1.604      2.173
REMARK  14 active torsions:
REMARK  status: ('A' for Active; 'I' for Inactive)
REMARK    1  A    between atoms: N1_2  and  C3_4
REMARK    2  A    between atoms: C3_4  and  C4_5
REMARK    3  A    between atoms: C4_5  and  C5_6
REMARK    4  A    between atoms: C7_8  and  C8_9
REMARK       I    between atoms: C8_9  and  N2_11
REMARK    5  A    between atoms: N2_11  and  C9_13
REMARK    6  A    between atoms: C10_18  and  C11_19
REMARK    7  A    between atoms: C11_19  and  C12_20
REMARK    8  A    between atoms: C12_20  and  C13_21
REMARK    9  A    between atoms: C13_21  and  C14_22
REMARK   10  A    between atoms: C14_22  and  C15_23
REMARK   11  A    between atoms: C18_26  and  N5_27
REMARK       I    between atoms: N5_27  and  C19_29
REMARK   12  A    between atoms: C19_29  and  C20_31
REMARK   13  A    between atoms: C20_31  and  C21_32
REMARK   14  A    between atoms: C29_45  and  C30_46
ROOT
HETATM    1  C9  UNL     1      15.018  23.034  16.747  1.00  0.00     0.168 A
HETATM    2  N3  UNL     1      13.778  22.628  17.032  1.00  0.00    -0.279 N
ATOM      3  H3  UNL     1      12.975  23.045  16.560  1.00  0.00     0.189 HD
HETATM    4  N4  UNL     1      13.613  21.723  17.894  1.00  0.00    -0.296 N
ATOM      5  H4  UNL     1      12.668  21.409  18.116  1.00  0.00     0.187 HD
HETATM    6  C10 UNL     1      14.652  21.167  18.521  1.00  0.00     0.069 A
HETATM    7  S1  UNL     1      15.950  22.050  17.780  1.00  0.00    -0.038 SA
ENDROOT
BRANCH   6   8
HETATM    8  C11 UNL     1      14.675  20.056  19.486  1.00  0.00     0.066 C
BRANCH   8   9
HETATM    9  C12 UNL     1      13.570  19.120  19.579  1.00  0.00     0.007 C
BRANCH   9  10
HETATM   10  C13 UNL     1      13.633  17.719  19.157  1.00  0.00     0.006 C
BRANCH  10  11
HETATM   11  C14 UNL     1      12.586  17.159  18.279  1.00  0.00     0.058 C
BRANCH  11  12
HETATM   12  C15 UNL     1      11.970  18.252  17.445  1.00  0.00     0.026 A
HETATM   13  C16 UNL     1      10.701  18.655  17.697  1.00  0.00     0.030 A
HETATM   14  C17 UNL     1      10.161  19.673  16.907  1.00  0.00     0.052 A
HETATM   15  C18 UNL     1      10.928  20.221  15.918  1.00  0.00     0.122 A
HETATM   16  N6  UNL     1      12.194  19.780  15.709  1.00  0.00    -0.285 N
HETATM   17  N7  UNL     1      12.676  18.823  16.463  1.00  0.00    -0.303 N
ATOM     18  H6  UNL     1      12.765  20.190  14.971  1.00  0.00     0.188 HD
ATOM     19  H7  UNL     1      13.630  18.501  16.295  1.00  0.00     0.186 HD
BRANCH  15  20
HETATM   20  N5  UNL     1      10.443  21.179  15.166  1.00  0.00    -0.312 N
HETATM   21  C19 UNL     1      11.234  21.612  14.074  1.00  0.00     0.227 C
HETATM   22  O2  UNL     1      12.008  22.598  14.231  1.00  0.00    -0.273 OA
ATOM     23  H5  UNL     1       9.533  21.596  15.360  1.00  0.00     0.170 HD
BRANCH  21  24
HETATM   24  C20 UNL     1      11.127  20.896  12.779  1.00  0.00     0.141 C
BRANCH  24  25
HETATM   25  C21 UNL     1      12.497  20.525  12.351  1.00  0.00    -0.050 A
HETATM   26  C22 UNL     1      13.356  21.469  11.881  1.00  0.00     0.007 A
HETATM   27  C23 UNL     1      14.629  21.045  11.498  1.00  0.00     0.001 A
HETATM   28  C24 UNL     1      15.000  19.737  11.591  1.00  0.00     0.000 A
HETATM   29  C25 UNL     1      14.105  18.807  12.071  1.00  0.00     0.001 A
HETATM   30  C26 UNL     1      12.838  19.187  12.460  1.00  0.00     0.007 A
ENDBRANCH  24  25
ENDBRANCH  21  24
ENDBRANCH  15  20
ENDBRANCH  11  12
ENDBRANCH  10  11
ENDBRANCH   9  10
ENDBRANCH   8   9
ENDBRANCH   6   8
BRANCH   1  31
HETATM   31  N2  UNL     1      15.391  23.955  15.887  1.00  0.00    -0.302 N
HETATM   32  C8  UNL     1      16.509  23.788  15.055  1.00  0.00     0.257 C
HETATM   33  O1  UNL     1      16.455  22.893  14.157  1.00  0.00    -0.267 OA
ATOM     34  H2  UNL     1      14.851  24.818  15.822  1.00  0.00     0.171 HD
BRANCH  32  35
HETATM   35  C7  UNL     1      17.724  24.579  15.161  1.00  0.00     0.033 A
HETATM   36  C6  UNL     1      18.314  24.901  16.357  1.00  0.00     0.025 A
HETATM   37  C5  UNL     1      19.491  25.666  16.451  1.00  0.00    -0.043 A
HETATM   38  C29 UNL     1      20.105  26.126  15.322  1.00  0.00     0.004 A
HETATM   39  C28 UNL     1      19.498  25.795  14.099  1.00  0.00     0.016 A
HETATM   40  C27 UNL     1      18.346  25.047  14.025  1.00  0.00     0.018 A
BRANCH  37  41
HETATM   41  C4  UNL     1      19.976  25.987  17.792  1.00  0.00     0.069 C
BRANCH  41  42
HETATM   42  C3  UNL     1      20.207  24.800  18.688  1.00  0.00     0.276 C
BRANCH  42  43
HETATM   43  N1  UNL     1      20.126  25.162  20.106  1.00  0.00     0.080 N
HETATM   44  C1  UNL     1      21.330  24.539  20.699  1.00  0.00     0.309 C
HETATM   45  C2  UNL     1      19.001  24.466  20.733  1.00  0.00     0.309 C
ENDBRANCH  42  43
ENDBRANCH  41  42
ENDBRANCH  37  41
BRANCH  38  46
HETATM   46  C30 UNL     1      21.362  26.866  15.285  1.00  0.00     0.084 A
HETATM   47  N8  UNL     1      22.532  26.322  15.606  1.00  0.00    -0.359 N
HETATM   48  C31 UNL     1      23.611  27.015  15.550  1.00  0.00     0.096 A
ATOM     49  H8  UNL     1      22.572  25.345  15.900  1.00  0.00     0.166 HD
HETATM   50  C32 UNL     1      23.521  28.325  15.153  1.00  0.00     0.069 A
HETATM   51  S2  UNL     1      21.839  28.444  14.887  1.00  0.00    -0.082 SA
ENDBRANCH  38  46
ENDBRANCH  32  35
ENDBRANCH   1  31
TORSDOF 14
ENDMDL