MODEL 2
REMARK VINA RESULT: -11.141118190      2.708     11.087
REMARK  14 active torsions:
REMARK  status: ('A' for Active; 'I' for Inactive)
REMARK    1  A    between atoms: C1_2  and  C2_3
REMARK       I    between atoms: C1_2  and  N1_10
REMARK    2  A    between atoms: C2_3  and  C3_4
REMARK    3  A    between atoms: N1_10  and  C9_12
REMARK    4  A    between atoms: C12_15  and  C13_16
REMARK    5  A    between atoms: C13_16  and  C14_17
REMARK    6  A    between atoms: C14_17  and  C15_18
REMARK    7  A    between atoms: C15_18  and  C16_19
REMARK    8  A    between atoms: C16_19  and  C17_20
REMARK    9  A    between atoms: C18_23  and  C19_24
REMARK   10  A    between atoms: C24_31  and  C25_32
REMARK   11  A    between atoms: C25_32  and  O2_33
REMARK   12  A    between atoms: N4_35  and  S1_37
REMARK   13  A    between atoms: S1_37  and  C26_40
REMARK   14  A    between atoms: C26_40  and  C27_41
ROOT
HETATM    1  C17 UNL     1      15.270  23.500  15.932  1.00  0.00     0.052 A
HETATM    2  N2  UNL     1      15.916  23.380  17.051  1.00  0.00    -0.351 N
ATOM      3  H2  UNL     1      15.533  22.783  17.785  1.00  0.00     0.166 HD
HETATM    4  C18 UNL     1      17.048  24.007  17.265  1.00  0.00     0.081 A
HETATM    5  C24 UNL     1      17.543  24.791  16.294  1.00  0.00     0.087 A
HETATM    6  S2  UNL     1      16.260  24.554  15.061  1.00  0.00    -0.070 SA
ENDROOT
BRANCH   1   7
HETATM    7  C16 UNL     1      13.952  22.849  15.531  1.00  0.00     0.065 C
BRANCH   7   8
HETATM    8  C15 UNL     1      13.358  23.622  14.408  1.00  0.00     0.007 C
BRANCH   8   9
HETATM    9  C14 UNL     1      13.075  22.703  13.260  1.00  0.00     0.006 C
BRANCH   9  10
HETATM   10  C13 UNL     1      11.636  22.316  13.109  1.00  0.00     0.058 C
BRANCH  10  11
HETATM   11  C12 UNL     1      11.322  21.299  14.145  1.00  0.00     0.026 A
HETATM   12  C11 UNL     1      11.907  20.057  14.200  1.00  0.00     0.030 A
HETATM   13  C10 UNL     1      11.575  19.127  15.192  1.00  0.00     0.052 A
HETATM   14  C9  UNL     1      10.636  19.493  16.123  1.00  0.00     0.122 A
HETATM   15  N6  UNL     1      10.065  20.736  16.050  1.00  0.00    -0.285 N
HETATM   16  N5  UNL     1      10.409  21.571  15.103  1.00  0.00    -0.303 N
ATOM     17  H6  UNL     1       9.368  21.013  16.740  1.00  0.00     0.188 HD
ATOM     18  H5  UNL     1       9.958  22.486  15.087  1.00  0.00     0.186 HD
BRANCH  14  19
HETATM   19  N1  UNL     1      10.250  18.742  17.063  1.00  0.00    -0.312 N
HETATM   20  C1  UNL     1      10.037  17.366  17.088  1.00  0.00     0.227 C
HETATM   21  O1  UNL     1       9.439  16.785  16.160  1.00  0.00    -0.273 OA
ATOM     22  H1  UNL     1      10.064  19.220  17.945  1.00  0.00     0.170 HD
BRANCH  20  23
HETATM   23  C2  UNL     1      10.527  16.574  18.235  1.00  0.00     0.141 C
BRANCH  23  24
HETATM   24  C3  UNL     1      11.699  17.221  18.861  1.00  0.00    -0.050 A
HETATM   25  C4  UNL     1      12.970  17.072  18.311  1.00  0.00     0.007 A
HETATM   26  C5  UNL     1      14.011  17.691  18.945  1.00  0.00     0.001 A
HETATM   27  C6  UNL     1      13.843  18.440  20.085  1.00  0.00     0.000 A
HETATM   28  C7  UNL     1      12.579  18.573  20.608  1.00  0.00     0.001 A
HETATM   29  C8  UNL     1      11.488  17.960  19.998  1.00  0.00     0.007 A
ENDBRANCH  23  24
ENDBRANCH  20  23
ENDBRANCH  14  19
ENDBRANCH  10  11
ENDBRANCH   9  10
ENDBRANCH   8   9
ENDBRANCH   7   8
ENDBRANCH   1   7
BRANCH   4  30
HETATM   30  C19 UNL     1      17.721  23.813  18.587  1.00  0.00     0.060 A
HETATM   31  C20 UNL     1      18.441  22.636  18.790  1.00  0.00     0.032 A
HETATM   32  C21 UNL     1      19.086  22.375  19.970  1.00  0.00     0.004 A
HETATM   33  C22 UNL     1      19.039  23.282  20.997  1.00  0.00     0.017 A
HETATM   34  C23 UNL     1      18.309  24.455  20.761  1.00  0.00     0.088 A
HETATM   35  N3  UNL     1      17.705  24.640  19.583  1.00  0.00    -0.364 N
ATOM     36  H3  UNL     1      17.186  25.510  19.458  1.00  0.00     0.165 HD
ENDBRANCH   4  30
BRANCH   5  37
HETATM   37  C25 UNL     1      18.674  25.648  16.033  1.00  0.00     0.169 C
HETATM   38  N4  UNL     1      19.713  26.182  16.720  1.00  0.00    -0.263 N
ATOM     39  H4  UNL     1      19.826  25.991  17.716  1.00  0.00     0.180 HD
BRANCH  37  40
HETATM   40  O2  UNL     1      18.717  26.031  14.732  1.00  0.00    -0.345 OA
ATOM     41  H2  UNL     1      18.259  26.852  14.596  1.00  0.00     0.219 HD
ENDBRANCH  37  40
BRANCH  38  42
HETATM   42  S1  UNL     1      20.881  27.223  15.862  1.00  0.00     0.236 S
HETATM   43  O3  UNL     1      20.212  28.437  15.326  1.00  0.00    -0.205 OA
HETATM   44  O4  UNL     1      21.453  26.448  14.701  1.00  0.00    -0.205 OA
BRANCH  42  45
HETATM   45  C26 UNL     1      22.218  27.568  16.966  1.00  0.00     0.202 C
BRANCH  45  46
HETATM   46  C27 UNL     1      23.439  27.923  16.209  1.00  0.00    -0.043 A
HETATM   47  C28 UNL     1      24.462  26.982  16.217  1.00  0.00     0.008 A
HETATM   48  C29 UNL     1      25.635  27.228  15.540  1.00  0.00     0.001 A
HETATM   49  C30 UNL     1      25.768  28.428  14.857  1.00  0.00     0.000 A
HETATM   50  C31 UNL     1      24.757  29.346  14.854  1.00  0.00     0.001 A
HETATM   51  C32 UNL     1      23.577  29.107  15.532  1.00  0.00     0.008 A
ENDBRANCH  45  46
ENDBRANCH  42  45
ENDBRANCH  38  42
ENDBRANCH   5  37
TORSDOF 14
ENDMDL