MODEL 5
REMARK VINA RESULT: -10.393513526      1.044      1.283
REMARK  15 active torsions:
REMARK  status: ('A' for Active; 'I' for Inactive)
REMARK    1  A    between atoms: N1_3  and  C2_4
REMARK    2  A    between atoms: C2_4  and  C3_5
REMARK    3  A    between atoms: C3_5  and  O2_6
REMARK    4  A    between atoms: C3_5  and  N2_8
REMARK    5  A    between atoms: C4_9  and  C5_10
REMARK    6  A    between atoms: C5_10  and  O3_11
REMARK    7  A    between atoms: O3_11  and  C6_12
REMARK    8  A    between atoms: C6_12  and  C7_13
REMARK    9  A    between atoms: C15_21  and  C16_22
REMARK   10  A    between atoms: C15_21  and  C23_29
REMARK   11  A    between atoms: C16_22  and  C17_23
REMARK   12  A    between atoms: C24_31  and  C25_32
REMARK   13  A    between atoms: C32_39  and  O5_40
REMARK   14  A    between atoms: N3_42  and  C33_43
REMARK   15  A    between atoms: C33_43  and  C34_44
ROOT
HETATM    1  N2  UNL     1      15.407  22.876  17.062  1.00  0.00     0.148 N
HETATM    2  C4  UNL     1      15.623  21.639  17.759  1.00  0.00     0.274 C
HETATM    3  C13 UNL     1      17.000  21.298  17.448  1.00  0.00     0.010 C
HETATM    4  C14 UNL     1      17.624  22.301  16.945  1.00  0.00     0.020 C
HETATM    5  C15 UNL     1      16.742  23.494  16.843  1.00  0.00     0.228 C
ENDROOT
BRANCH   1   6
HETATM    6  C3  UNL     1      14.593  22.717  15.918  1.00  0.00     0.378 C
BRANCH   6   7
HETATM    7  C2  UNL     1      13.788  21.380  15.945  1.00  0.00     0.197 C
BRANCH   7   8
HETATM    8  N1  UNL     1      13.587  21.097  14.504  1.00  0.00    -0.301 N
HETATM    9  C1  UNL     1      12.690  20.237  13.984  1.00  0.00     0.331 A
HETATM   10  O1  UNL     1      11.906  19.555  14.705  1.00  0.00    -0.246 OA
HETATM   11  N3  UNL     1      12.732  20.198  12.652  1.00  0.00    -0.274 N
HETATM   12  C32 UNL     1      13.694  21.065  12.298  1.00  0.00     0.162 A
HETATM   13  C31 UNL     1      14.231  21.627  13.451  1.00  0.00     0.151 A
BRANCH  11  14
HETATM   14  C33 UNL     1      11.900  19.375  11.760  1.00  0.00     0.174 C
BRANCH  14  15
HETATM   15  C34 UNL     1      12.345  17.983  11.781  1.00  0.00    -0.040 A
HETATM   16  C35 UNL     1      13.644  17.687  11.449  1.00  0.00     0.009 A
HETATM   17  C36 UNL     1      14.055  16.375  11.478  1.00  0.00     0.001 A
HETATM   18  C37 UNL     1      13.195  15.371  11.829  1.00  0.00     0.000 A
HETATM   19  C38 UNL     1      11.881  15.648  12.167  1.00  0.00     0.001 A
HETATM   20  C39 UNL     1      11.478  16.986  12.135  1.00  0.00     0.009 A
ENDBRANCH  14  15
ENDBRANCH  11  14
BRANCH  12  21
HETATM   21  O5  UNL     1      14.077  21.340  10.998  1.00  0.00    -0.345 OA
ATOM     22  H5  UNL     1      14.945  21.594  10.709  1.00  0.00     0.219 HD
ENDBRANCH  12  21
ENDBRANCH   7   8
ENDBRANCH   6   7
BRANCH   6  23
HETATM   23  O2  UNL     1      13.489  23.604  15.997  1.00  0.00    -0.366 OA
ATOM     24  H2  UNL     1      13.790  24.238  15.356  1.00  0.00     0.212 HD
ENDBRANCH   6  23
ENDBRANCH   1   6
BRANCH   2  25
HETATM   25  C5  UNL     1      15.150  21.500  19.147  1.00  0.00     0.208 C
BRANCH  25  26
HETATM   26  O3  UNL     1      13.993  20.731  19.282  1.00  0.00    -0.384 OA
BRANCH  26  27
HETATM   27  C6  UNL     1      14.260  19.368  19.231  1.00  0.00     0.206 C
BRANCH  27  28
HETATM   28  C7  UNL     1      13.112  18.584  18.723  1.00  0.00    -0.035 A
HETATM   29  C8  UNL     1      11.969  19.298  18.404  1.00  0.00     0.009 A
HETATM   30  C9  UNL     1      10.823  18.699  17.929  1.00  0.00     0.001 A
HETATM   31  C10 UNL     1      10.850  17.333  17.777  1.00  0.00     0.000 A
HETATM   32  C11 UNL     1      11.993  16.589  18.091  1.00  0.00     0.001 A
HETATM   33  C12 UNL     1      13.124  17.213  18.565  1.00  0.00     0.009 A
ENDBRANCH  27  28
ENDBRANCH  26  27
ENDBRANCH  25  26
ENDBRANCH   2  25
BRANCH   5  34
HETATM   34  C16 UNL     1      17.048  24.229  18.130  1.00  0.00     0.033 C
BRANCH  34  35
HETATM   35  C17 UNL     1      18.349  24.417  18.661  1.00  0.00    -0.037 A
HETATM   36  C18 UNL     1      19.397  25.118  18.122  1.00  0.00     0.011 A
HETATM   37  C19 UNL     1      20.647  25.153  18.682  1.00  0.00     0.001 A
HETATM   38  C20 UNL     1      20.918  24.471  19.840  1.00  0.00     0.000 A
HETATM   39  C21 UNL     1      19.895  23.754  20.412  1.00  0.00     0.001 A
HETATM   40  C22 UNL     1      18.659  23.725  19.851  1.00  0.00     0.011 A
ENDBRANCH  34  35
ENDBRANCH   5  34
BRANCH   5  41
HETATM   41  C23 UNL     1      16.923  24.179  15.569  1.00  0.00     0.203 A
HETATM   42  O4  UNL     1      16.636  25.527  15.323  1.00  0.00    -0.367 OA
HETATM   43  C24 UNL     1      17.656  24.903  14.668  1.00  0.00     0.187 A
BRANCH  43  44
HETATM   44  C25 UNL     1      18.919  25.625  14.587  1.00  0.00    -0.027 A
HETATM   45  C26 UNL     1      20.108  24.961  14.751  1.00  0.00     0.010 A
HETATM   46  C27 UNL     1      21.310  25.597  14.677  1.00  0.00     0.001 A
HETATM   47  C28 UNL     1      21.338  26.964  14.427  1.00  0.00     0.000 A
HETATM   48  C29 UNL     1      20.159  27.662  14.257  1.00  0.00     0.001 A
HETATM   49  C30 UNL     1      18.977  26.976  14.341  1.00  0.00     0.010 A
ENDBRANCH  43  44
ENDBRANCH   5  41
TORSDOF 15
ENDMDL