MODEL 2
REMARK VINA RESULT: -10.428555916      2.398      5.781
REMARK  12 active torsions:
REMARK  status: ('A' for Active; 'I' for Inactive)
REMARK    1  A    between atoms: C1_2  and  C2_3
REMARK       I    between atoms: C1_2  and  N3_24
REMARK    2  A    between atoms: C2_3  and  C3_4
REMARK    3  A    between atoms: C3_4  and  C4_5
REMARK    4  A    between atoms: N1_8  and  C7_9
REMARK    5  A    between atoms: C7_9  and  C8_10
REMARK       I    between atoms: C8_10  and  N2_12
REMARK    6  A    between atoms: N2_12  and  C9_14
REMARK    7  A    between atoms: C9_14  and  C10_15
REMARK    8  A    between atoms: C10_15  and  O3_16
REMARK    9  A    between atoms: O3_16  and  C11_17
REMARK   10  A    between atoms: C18_29  and  C19_30
REMARK   11  A    between atoms: N7_43  and  C28_44
REMARK   12  A    between atoms: C28_44  and  C29_45
ROOT
HETATM    1  O1  UNL     1      14.020  22.319  18.965  1.00  0.00    -0.273 OA
HETATM    2  C1  UNL     1      15.087  21.687  18.756  1.00  0.00     0.223 C
HETATM    3  N3  UNL     1      16.259  22.312  18.276  1.00  0.00    -0.311 N
ATOM      4  H3  UNL     1      17.015  22.534  18.923  1.00  0.00     0.170 HD
HETATM    5  C17 UNL     1      16.377  22.602  17.041  1.00  0.00     0.140 A
HETATM    6  N4  UNL     1      15.483  22.379  16.073  1.00  0.00    -0.326 N
ATOM      7  H4  UNL     1      14.604  21.928  16.328  1.00  0.00     0.169 HD
HETATM    8  C18 UNL     1      15.669  22.708  14.789  1.00  0.00     0.118 A
HETATM    9  N5  UNL     1      16.855  23.311  14.472  1.00  0.00    -0.326 N
ATOM     10  H5  UNL     1      17.016  23.569  13.498  1.00  0.00     0.169 HD
HETATM   11  C25 UNL     1      17.812  23.580  15.352  1.00  0.00     0.141 A
HETATM   12  C26 UNL     1      17.575  23.221  16.661  1.00  0.00     0.122 A
HETATM   13  N6  UNL     1      18.679  23.593  17.338  1.00  0.00    -0.346 N
ATOM     14  H6  UNL     1      18.831  23.470  18.339  1.00  0.00     0.167 HD
HETATM   15  C27 UNL     1      19.549  24.155  16.479  1.00  0.00     0.185 A
HETATM   16  N7  UNL     1      19.022  24.153  15.238  1.00  0.00    -0.323 N
ENDROOT
BRANCH   2  17
HETATM   17  C2  UNL     1      15.049  20.210  19.048  1.00  0.00     0.107 C
BRANCH  17  18
HETATM   18  C3  UNL     1      14.622  19.425  17.861  1.00  0.00     0.043 C
BRANCH  18  19
HETATM   19  C4  UNL     1      13.223  18.909  18.103  1.00  0.00    -0.073 C
HETATM   20  C5  UNL     1      12.918  18.336  19.260  1.00  0.00     0.021 C
HETATM   21  C6  UNL     1      11.549  17.826  19.508  1.00  0.00     0.096 C
HETATM   22  N1  UNL     1      10.792  17.766  18.328  1.00  0.00    -0.341 N
HETATM   23  C15 UNL     1      10.832  18.930  17.549  1.00  0.00     0.073 C
HETATM   24  C16 UNL     1      12.245  19.080  17.002  1.00  0.00     0.079 C
BRANCH  22  25
HETATM   25  C7  UNL     1       9.823  16.786  18.127  1.00  0.00     0.169 C
BRANCH  25  26
HETATM   26  C8  UNL     1      10.103  15.998  16.897  1.00  0.00     0.257 C
HETATM   27  O2  UNL     1      11.217  15.402  16.767  1.00  0.00    -0.267 OA
HETATM   28  N2  UNL     1       9.169  15.878  15.842  1.00  0.00    -0.354 N
ATOM     29  H2  UNL     1       8.263  16.339  15.913  1.00  0.00     0.162 HD
BRANCH  28  30
HETATM   30  C9  UNL     1       9.490  15.113  14.676  1.00  0.00     0.149 C
BRANCH  30  31
HETATM   31  C10 UNL     1       9.273  15.940  13.445  1.00  0.00     0.196 C
BRANCH  31  32
HETATM   32  O3  UNL     1       9.998  17.141  13.568  1.00  0.00    -0.342 OA
BRANCH  32  33
HETATM   33  C11 UNL     1      11.250  17.190  12.913  1.00  0.00     0.109 A
HETATM   34  C12 UNL     1      12.045  18.291  12.728  1.00  0.00     0.045 A
HETATM   35  C13 UNL     1      13.202  18.110  12.072  1.00  0.00     0.010 A
HETATM   36  C14 UNL     1      13.490  16.844  11.644  1.00  0.00     0.052 A
HETATM   37  S1  UNL     1      12.140  15.943  12.167  1.00  0.00    -0.077 SA
ENDBRANCH  32  33
ENDBRANCH  31  32
ENDBRANCH  30  31
ENDBRANCH  28  30
ENDBRANCH  25  26
ENDBRANCH  22  25
ENDBRANCH  18  19
ENDBRANCH  17  18
ENDBRANCH   2  17
BRANCH   8  38
HETATM   38  C19 UNL     1      14.703  22.468  13.732  1.00  0.00     0.008 A
HETATM   39  C20 UNL     1      13.423  22.958  13.781  1.00  0.00     0.015 A
HETATM   40  C21 UNL     1      12.511  22.707  12.745  1.00  0.00     0.001 A
HETATM   41  C22 UNL     1      12.884  21.962  11.659  1.00  0.00     0.000 A
HETATM   42  C23 UNL     1      14.157  21.467  11.597  1.00  0.00     0.001 A
HETATM   43  C24 UNL     1      15.055  21.721  12.629  1.00  0.00     0.015 A
ENDBRANCH   8  38
BRANCH  16  44
HETATM   44  C28 UNL     1      19.677  24.681  14.048  1.00  0.00     0.170 C
BRANCH  44  45
HETATM   45  C29 UNL     1      20.318  25.969  14.356  1.00  0.00    -0.040 A
HETATM   46  C30 UNL     1      19.583  27.119  14.116  1.00  0.00     0.009 A
HETATM   47  C31 UNL     1      20.172  28.335  14.405  1.00  0.00     0.001 A
HETATM   48  C32 UNL     1      21.458  28.425  14.919  1.00  0.00     0.000 A
HETATM   49  C33 UNL     1      22.174  27.269  15.151  1.00  0.00     0.001 A
HETATM   50  C34 UNL     1      21.599  26.042  14.867  1.00  0.00     0.009 A
ENDBRANCH  44  45
ENDBRANCH  16  44
TORSDOF 12
ENDMDL