MODEL 3
REMARK VINA RESULT: -10.226852972      1.014      1.531
REMARK  13 active torsions:
REMARK  status: ('A' for Active; 'I' for Inactive)
REMARK    1  A    between atoms: O1_2  and  C2_3
REMARK    2  A    between atoms: C2_3  and  C3_4
REMARK    3  A    between atoms: C7_8  and  C8_9
REMARK    4  A    between atoms: C8_9  and  N1_10
REMARK    5  A    between atoms: N1_10  and  C9_12
REMARK    6  A    between atoms: C10_15  and  N3_16
REMARK    7  A    between atoms: N3_16  and  C12_18
REMARK    8  A    between atoms: C12_18  and  C13_19
REMARK    9  A    between atoms: C13_19  and  C14_20
REMARK   10  A    between atoms: C20_26  and  C21_27
REMARK   11  A    between atoms: C21_27  and  C22_28
REMARK   12  A    between atoms: C23_29  and  C24_30
REMARK       I    between atoms: C24_30  and  N4_32
REMARK   13  A    between atoms: N6_37  and  C27_38
ROOT
HETATM    1  C9  UNL     1      15.067  21.592  18.239  1.00  0.00     0.682 A
HETATM    2  N2  UNL     1      15.136  22.284  17.122  1.00  0.00    -0.176 N
ATOM      3  H2  UNL     1      14.254  22.544  16.680  1.00  0.00     0.186 HD
HETATM    4  C10 UNL     1      16.290  22.684  16.501  1.00  0.00     0.131 A
HETATM    5  C20 UNL     1      17.477  22.308  17.138  1.00  0.00     0.059 A
HETATM    6  C35 UNL     1      17.434  21.586  18.307  1.00  0.00     0.270 A
HETATM    7  O3  UNL     1      18.468  21.207  18.943  1.00  0.00    -0.267 OA
HETATM    8  N7  UNL     1      16.233  21.252  18.820  1.00  0.00    -0.156 N
ATOM      9  H7  UNL     1      16.206  20.717  19.688  1.00  0.00     0.187 HD
ENDROOT
BRANCH   5  10
HETATM   10  C21 UNL     1      18.739  22.676  16.517  1.00  0.00     0.091 C
BRANCH  10  11
HETATM   11  C22 UNL     1      19.184  24.084  16.610  1.00  0.00     0.004 A
HETATM   12  C23 UNL     1      18.965  24.984  17.640  1.00  0.00     0.125 A
HETATM   13  N5  UNL     1      19.556  26.125  17.264  1.00  0.00    -0.288 N
HETATM   14  N6  UNL     1      20.130  26.032  16.089  1.00  0.00    -0.260 N
ATOM     15  H5  UNL     1      19.559  26.974  17.829  1.00  0.00     0.188 HD
HETATM   16  C33 UNL     1      19.925  24.784  15.647  1.00  0.00     0.040 A
HETATM   17  C34 UNL     1      20.393  24.201  14.341  1.00  0.00     0.071 C
BRANCH  12  18
HETATM   18  C24 UNL     1      18.228  24.741  18.893  1.00  0.00     0.271 C
HETATM   19  O2  UNL     1      16.983  24.916  18.968  1.00  0.00    -0.266 OA
HETATM   20  N4  UNL     1      18.926  24.300  20.032  1.00  0.00    -0.355 N
HETATM   21  C25 UNL     1      18.207  24.053  21.286  1.00  0.00     0.152 C
HETATM   22  C26 UNL     1      20.344  24.065  20.065  1.00  0.00     0.152 C
ENDBRANCH  12  18
BRANCH  14  23
HETATM   23  C27 UNL     1      20.854  27.094  15.427  1.00  0.00     0.056 A
HETATM   24  C28 UNL     1      21.968  27.645  15.960  1.00  0.00     0.031 A
HETATM   25  C29 UNL     1      22.646  28.659  15.308  1.00  0.00     0.002 A
HETATM   26  C30 UNL     1      22.186  29.122  14.094  1.00  0.00     0.000 A
HETATM   27  C31 UNL     1      21.037  28.569  13.523  1.00  0.00     0.002 A
HETATM   28  C32 UNL     1      20.389  27.559  14.207  1.00  0.00     0.031 A
ENDBRANCH  14  23
ENDBRANCH  10  11
ENDBRANCH   5  10
BRANCH   4  29
HETATM   29  N3  UNL     1      16.198  23.420  15.295  1.00  0.00    -0.370 N
HETATM   30  C11 UNL     1      16.123  24.846  15.321  1.00  0.00     0.151 C
BRANCH  29  31
HETATM   31  C12 UNL     1      16.104  22.717  14.062  1.00  0.00     0.128 C
BRANCH  31  32
HETATM   32  C13 UNL     1      15.377  21.449  13.966  1.00  0.00     0.058 C
BRANCH  32  33
HETATM   33  C14 UNL     1      13.980  21.466  13.520  1.00  0.00    -0.057 A
HETATM   34  C15 UNL     1      13.596  20.721  12.442  1.00  0.00     0.007 A
HETATM   35  C16 UNL     1      12.311  20.697  11.991  1.00  0.00     0.001 A
HETATM   36  C17 UNL     1      11.347  21.464  12.657  1.00  0.00     0.000 A
HETATM   37  C18 UNL     1      11.741  22.206  13.736  1.00  0.00     0.001 A
HETATM   38  C19 UNL     1      13.040  22.223  14.183  1.00  0.00     0.007 A
ENDBRANCH  32  33
ENDBRANCH  31  32
ENDBRANCH  29  31
ENDBRANCH   4  29
BRANCH   1  39
HETATM   39  N1  UNL     1      14.013  21.206  18.825  1.00  0.00    -0.222 N
ATOM     40  H1  UNL     1      13.240  21.866  18.904  1.00  0.00     0.178 HD
BRANCH  39  41
HETATM   41  C8  UNL     1      13.841  19.912  19.377  1.00  0.00     0.176 C
BRANCH  41  42
HETATM   42  C7  UNL     1      12.685  19.222  18.710  1.00  0.00    -0.039 A
HETATM   43  C6  UNL     1      11.822  18.430  19.438  1.00  0.00     0.009 A
HETATM   44  C5  UNL     1      10.784  17.814  18.814  1.00  0.00     0.001 A
HETATM   45  C4  UNL     1      10.577  17.968  17.464  1.00  0.00     0.009 A
HETATM   46  C3  UNL     1      11.445  18.762  16.741  1.00  0.00    -0.034 A
HETATM   47  C36 UNL     1      12.487  19.380  17.359  1.00  0.00     0.018 A
BRANCH  46  48
HETATM   48  C2  UNL     1      11.212  18.925  15.294  1.00  0.00     0.205 C
BRANCH  48  49
HETATM   49  O1  UNL     1      10.458  17.835  14.863  1.00  0.00    -0.391 OA
HETATM   50  C1  UNL     1      10.829  17.537  13.543  1.00  0.00     0.201 C
ENDBRANCH  48  49
ENDBRANCH  46  48
ENDBRANCH  41  42
ENDBRANCH  39  41
ENDBRANCH   1  39
TORSDOF 13
ENDMDL