MODEL 5
REMARK VINA RESULT: -9.812050060      4.770      8.377
REMARK  13 active torsions:
REMARK  status: ('A' for Active; 'I' for Inactive)
REMARK    1  A    between atoms: C5_6  and  C6_7
REMARK    2  A    between atoms: C10_11  and  C11_12
REMARK    3  A    between atoms: C11_12  and  C12_13
REMARK    4  A    between atoms: C12_13  and  C13_14
REMARK       I    between atoms: C13_14  and  N2_16
REMARK    5  A    between atoms: N2_16  and  C14_18
REMARK    6  A    between atoms: C15_23  and  C16_24
REMARK    7  A    between atoms: C16_24  and  C17_25
REMARK    8  A    between atoms: C17_25  and  S1_26
REMARK    9  A    between atoms: S1_26  and  C18_27
REMARK   10  A    between atoms: C18_27  and  C19_28
REMARK   11  A    between atoms: C19_28  and  C20_29
REMARK       I    between atoms: N7_35  and  C22_37
REMARK   12  A    between atoms: C22_37  and  C23_39
REMARK   13  A    between atoms: C23_39  and  C24_40
ROOT
HETATM    1  C14 UNL     1      10.470  16.015  18.076  1.00  0.00     0.167 A
HETATM    2  N3  UNL     1       9.311  16.619  17.815  1.00  0.00    -0.279 N
ATOM      3  H3  UNL     1       9.125  17.556  18.171  1.00  0.00     0.189 HD
HETATM    4  N4  UNL     1       8.442  16.012  17.118  1.00  0.00    -0.296 N
ATOM      5  H4  UNL     1       7.553  16.467  16.914  1.00  0.00     0.187 HD
HETATM    6  C15 UNL     1       8.674  14.803  16.653  1.00  0.00     0.070 A
HETATM    7  S3  UNL     1      10.266  14.516  17.268  1.00  0.00    -0.038 SA
ENDROOT
BRANCH   6   8
HETATM    8  C16 UNL     1       7.830  13.858  15.826  1.00  0.00     0.076 C
BRANCH   8   9
HETATM    9  C17 UNL     1       8.665  13.111  14.845  1.00  0.00     0.080 C
BRANCH   9  10
HETATM   10  S1  UNL     1       8.572  13.812  13.225  1.00  0.00    -0.168 SA
BRANCH  10  11
HETATM   11  C18 UNL     1      10.038  14.062  12.302  1.00  0.00     0.080 C
BRANCH  11  12
HETATM   12  C19 UNL     1      11.306  14.376  13.073  1.00  0.00     0.076 C
BRANCH  12  13
HETATM   13  C20 UNL     1      11.204  15.867  13.344  1.00  0.00     0.070 A
HETATM   14  N5  UNL     1      10.957  16.546  14.437  1.00  0.00    -0.296 N
HETATM   15  N6  UNL     1      10.927  17.815  14.427  1.00  0.00    -0.279 N
ATOM     16  H5  UNL     1      10.785  16.047  15.310  1.00  0.00     0.187 HD
HETATM   17  C21 UNL     1      11.152  18.465  13.287  1.00  0.00     0.167 A
ATOM     18  H6  UNL     1      10.733  18.332  15.285  1.00  0.00     0.189 HD
HETATM   19  N7  UNL     1      11.206  19.723  13.032  1.00  0.00    -0.306 N
HETATM   20  S2  UNL     1      11.414  17.141  12.198  1.00  0.00    -0.038 SA
HETATM   21  C22 UNL     1      11.024  20.729  13.990  1.00  0.00     0.227 C
ATOM     22  H7  UNL     1      11.391  20.007  12.070  1.00  0.00     0.171 HD
HETATM   23  O2  UNL     1      10.118  21.582  13.800  1.00  0.00    -0.273 OA
BRANCH  21  24
HETATM   24  C23 UNL     1      11.880  20.807  15.217  1.00  0.00     0.141 C
BRANCH  24  25
HETATM   25  C24 UNL     1      13.177  21.467  14.917  1.00  0.00    -0.050 A
HETATM   26  C25 UNL     1      13.321  22.818  15.011  1.00  0.00     0.007 A
HETATM   27  C26 UNL     1      14.530  23.468  14.736  1.00  0.00     0.001 A
HETATM   28  C27 UNL     1      15.589  22.658  14.358  1.00  0.00     0.000 A
HETATM   29  C28 UNL     1      15.455  21.291  14.261  1.00  0.00     0.001 A
HETATM   30  C29 UNL     1      14.249  20.693  14.540  1.00  0.00     0.007 A
ENDBRANCH  24  25
ENDBRANCH  21  24
ENDBRANCH  12  13
ENDBRANCH  11  12
ENDBRANCH  10  11
ENDBRANCH   9  10
ENDBRANCH   8   9
ENDBRANCH   6   8
BRANCH   1  31
HETATM   31  N2  UNL     1      11.497  16.453  18.767  1.00  0.00    -0.306 N
HETATM   32  C13 UNL     1      12.232  17.524  18.220  1.00  0.00     0.223 C
HETATM   33  O1  UNL     1      12.016  17.840  17.006  1.00  0.00    -0.273 OA
ATOM     34  H2  UNL     1      11.752  16.036  19.661  1.00  0.00     0.171 HD
BRANCH  32  35
HETATM   35  C12 UNL     1      13.251  18.300  18.996  1.00  0.00     0.108 C
BRANCH  35  36
HETATM   36  C11 UNL     1      14.498  18.514  18.171  1.00  0.00     0.048 C
BRANCH  36  37
HETATM   37  C10 UNL     1      14.857  19.946  18.209  1.00  0.00    -0.057 A
HETATM   38  C9  UNL     1      13.880  20.928  18.431  1.00  0.00     0.007 A
HETATM   39  C8  UNL     1      14.231  22.256  18.483  1.00  0.00     0.001 A
HETATM   40  C7  UNL     1      15.552  22.614  18.316  1.00  0.00     0.009 A
HETATM   41  C6  UNL     1      16.558  21.662  18.092  1.00  0.00    -0.025 A
HETATM   42  C30 UNL     1      16.182  20.342  18.044  1.00  0.00     0.016 A
BRANCH  41  43
HETATM   43  C5  UNL     1      17.971  22.075  17.932  1.00  0.00     0.255 C
HETATM   44  N1  UNL     1      18.267  23.278  18.648  1.00  0.00     0.093 N
HETATM   45  C1  UNL     1      19.502  23.166  19.412  1.00  0.00     0.310 C
HETATM   46  C2  UNL     1      18.342  24.367  17.721  1.00  0.00     0.273 C
HETATM   47  C3  UNL     1      18.331  23.820  16.325  1.00  0.00     0.033 C
HETATM   48  C4  UNL     1      18.329  22.320  16.485  1.00  0.00     0.042 C
ENDBRANCH  41  43
ENDBRANCH  36  37
ENDBRANCH  35  36
ENDBRANCH  32  35
ENDBRANCH   1  31
TORSDOF 13
ENDMDL