MODEL 3
REMARK VINA RESULT: -9.108704749      4.614     12.417
REMARK  13 active torsions:
REMARK  status: ('A' for Active; 'I' for Inactive)
REMARK    1  A    between atoms: N2_9  and  C6_10
REMARK    2  A    between atoms: C6_10  and  C7_11
REMARK       I    between atoms: C7_11  and  N3_13
REMARK    3  A    between atoms: N4_18  and  C11_19
REMARK    4  A    between atoms: C11_19  and  C12_20
REMARK    5  A    between atoms: C12_20  and  C13_21
REMARK    6  A    between atoms: C13_21  and  C14_22
REMARK    7  A    between atoms: C14_22  and  C15_23
REMARK    8  A    between atoms: C15_23  and  N5_24
REMARK    9  A    between atoms: C18_27  and  C19_28
REMARK   10  A    between atoms: C19_28  and  O4_29
REMARK   11  A    between atoms: C20_31  and  C21_32
REMARK   12  A    between atoms: C27_38  and  C28_39
REMARK   13  A    between atoms: C28_39  and  C29_40
ROOT
HETATM    1  C13 UNL     1      19.451  22.840  19.650  1.00  0.00     0.007 C
ENDROOT
BRANCH   1   2
HETATM    2  C12 UNL     1      20.175  23.857  18.784  1.00  0.00     0.021 C
BRANCH   2   3
HETATM    3  C11 UNL     1      20.541  25.145  19.464  1.00  0.00     0.137 C
BRANCH   3   4
HETATM    4  N4  UNL     1      21.713  25.730  18.819  1.00  0.00    -0.265 N
HETATM    5  C10 UNL     1      22.911  25.293  19.196  1.00  0.00     0.334 C
HETATM    6  N2  UNL     1      24.151  25.617  18.743  1.00  0.00    -0.256 N
HETATM    7  O3  UNL     1      22.950  24.425  20.129  1.00  0.00    -0.246 OA
HETATM    8  C5  UNL     1      24.471  26.158  17.560  1.00  0.00     0.264 C
HETATM    9  C4  UNL     1      23.629  26.849  16.669  1.00  0.00     0.065 A
HETATM   10  O1  UNL     1      25.641  26.070  17.130  1.00  0.00    -0.267 OA
HETATM   11  C3  UNL     1      24.059  27.428  15.522  1.00  0.00     0.106 A
HETATM   12  C36 UNL     1      22.249  27.019  16.786  1.00  0.00     0.071 A
HETATM   13  N1  UNL     1      22.989  27.961  14.909  1.00  0.00    -0.368 N
HETATM   14  C2  UNL     1      21.863  27.726  15.656  1.00  0.00     0.022 A
ATOM     15  H1  UNL     1      23.011  28.464  14.022  1.00  0.00     0.165 HD
HETATM   16  C1  UNL     1      20.465  28.127  15.344  1.00  0.00     0.069 C
HETATM   17  C35 UNL     1      21.450  26.599  17.806  1.00  0.00     0.264 C
HETATM   18  O5  UNL     1      20.316  27.114  17.787  1.00  0.00    -0.267 OA
BRANCH   6  19
HETATM   19  C6  UNL     1      25.296  25.324  19.582  1.00  0.00     0.240 C
BRANCH  19  20
HETATM   20  C7  UNL     1      25.419  26.508  20.503  1.00  0.00     0.237 C
HETATM   21  O2  UNL     1      25.368  27.704  20.068  1.00  0.00    -0.272 OA
HETATM   22  N3  UNL     1      25.610  26.304  21.862  1.00  0.00    -0.359 N
HETATM   23  C8  UNL     1      25.827  27.427  22.740  1.00  0.00     0.152 C
HETATM   24  C9  UNL     1      25.546  24.941  22.390  1.00  0.00     0.152 C
ENDBRANCH  19  20
ENDBRANCH   6  19
ENDBRANCH   3   4
ENDBRANCH   2   3
ENDBRANCH   1   2
BRANCH   1  25
HETATM   25  C14 UNL     1      18.230  22.339  18.845  1.00  0.00     0.045 C
BRANCH  25  26
HETATM   26  C15 UNL     1      17.189  23.325  18.786  1.00  0.00     0.070 C
BRANCH  26  27
HETATM   27  N5  UNL     1      16.026  22.988  17.985  1.00  0.00    -0.329 N
HETATM   28  C16 UNL     1      15.195  22.002  18.197  1.00  0.00     0.021 A
HETATM   29  C17 UNL     1      14.932  21.243  19.447  1.00  0.00     0.069 C
HETATM   30  C18 UNL     1      14.429  21.809  17.079  1.00  0.00     0.001 A
HETATM   31  C20 UNL     1      14.824  22.724  16.163  1.00  0.00     0.012 A
HETATM   32  C27 UNL     1      15.835  23.494  16.733  1.00  0.00     0.051 A
BRANCH  30  33
HETATM   33  C19 UNL     1      13.438  20.688  16.897  1.00  0.00     0.205 C
BRANCH  33  34
HETATM   34  O4  UNL     1      14.083  19.482  16.467  1.00  0.00    -0.396 OA
ATOM     35  H4  UNL     1      13.522  18.974  15.892  1.00  0.00     0.209 HD
ENDBRANCH  33  34
ENDBRANCH  30  33
BRANCH  31  36
HETATM   36  C21 UNL     1      14.510  22.594  14.710  1.00  0.00    -0.023 A
HETATM   37  C22 UNL     1      13.501  23.069  14.037  1.00  0.00     0.012 A
HETATM   38  C23 UNL     1      13.291  22.725  12.691  1.00  0.00     0.001 A
HETATM   39  C24 UNL     1      14.170  21.877  12.097  1.00  0.00     0.000 A
HETATM   40  C25 UNL     1      15.254  21.360  12.778  1.00  0.00     0.001 A
HETATM   41  C26 UNL     1      15.403  21.738  14.080  1.00  0.00     0.012 A
ENDBRANCH  31  36
BRANCH  32  42
HETATM   42  C28 UNL     1      16.453  24.700  16.152  1.00  0.00     0.042 C
BRANCH  42  43
HETATM   43  C29 UNL     1      17.665  24.649  15.365  1.00  0.00    -0.034 A
HETATM   44  C30 UNL     1      18.878  24.208  15.831  1.00  0.00     0.011 A
HETATM   45  C31 UNL     1      20.032  24.295  15.104  1.00  0.00     0.001 A
HETATM   46  C32 UNL     1      20.009  24.847  13.829  1.00  0.00     0.000 A
HETATM   47  C33 UNL     1      18.825  25.300  13.312  1.00  0.00     0.001 A
HETATM   48  C34 UNL     1      17.675  25.206  14.061  1.00  0.00     0.011 A
ENDBRANCH  42  43
ENDBRANCH  32  42
ENDBRANCH  26  27
ENDBRANCH  25  26
ENDBRANCH   1  25
TORSDOF 13
ENDMDL