MODEL 3
REMARK VINA RESULT: -9.438366739      5.125     12.268
REMARK  16 active torsions:
REMARK  status: ('A' for Active; 'I' for Inactive)
REMARK    1  A    between atoms: N1_1  and  S1_4
REMARK    2  A    between atoms: S1_4  and  C1_7
REMARK    3  A    between atoms: C6_12  and  C7_13
REMARK    4  A    between atoms: C10_16  and  C11_17
REMARK    5  A    between atoms: C11_17  and  N2_18
REMARK    6  A    between atoms: C13_24  and  C14_25
REMARK    7  A    between atoms: C14_25  and  C15_26
REMARK    8  A    between atoms: C15_26  and  C16_27
REMARK    9  A    between atoms: C16_27  and  O3_28
REMARK   10  A    between atoms: C16_27  and  N5_30
REMARK   11  A    between atoms: N5_30  and  C17_31
REMARK   12  A    between atoms: C17_31  and  C18_32
REMARK   13  A    between atoms: C17_31  and  C23_38
REMARK   14  A    between atoms: C18_32  and  C19_33
REMARK       I    between atoms: C23_38  and  N6_40
REMARK   15  A    between atoms: N6_40  and  C24_42
REMARK   16  A    between atoms: C24_42  and  C25_43
ROOT
HETATM    1  N2  UNL     1      18.512  24.890  18.815  1.00  0.00    -0.277 N
HETATM    2  N3  UNL     1      17.351  24.813  19.465  1.00  0.00    -0.240 N
ATOM      3  H3  UNL     1      16.431  24.950  19.046  1.00  0.00     0.208 HD
HETATM    4  N4  UNL     1      17.578  24.534  20.734  1.00  0.00    -0.295 N
ATOM      5  H4  UNL     1      16.875  24.416  21.465  1.00  0.00     0.187 HD
HETATM    6  C12 UNL     1      18.942  24.432  20.888  1.00  0.00     0.135 A
HETATM    7  C13 UNL     1      19.508  24.663  19.673  1.00  0.00     0.047 A
ENDROOT
BRANCH   7   8
HETATM    8  C14 UNL     1      20.931  24.725  19.314  1.00  0.00     0.069 C
BRANCH   8   9
HETATM    9  C15 UNL     1      21.830  24.216  20.458  1.00  0.00     0.106 C
BRANCH   9  10
HETATM   10  C16 UNL     1      23.135  24.932  20.500  1.00  0.00     0.190 C
BRANCH  10  11
HETATM   11  O3  UNL     1      23.627  25.029  21.705  1.00  0.00    -0.339 OA
ATOM     12  H3  UNL     1      24.335  25.660  21.769  1.00  0.00     0.220 HD
ENDBRANCH  10  11
BRANCH  10  13
HETATM   13  N5  UNL     1      23.771  25.429  19.472  1.00  0.00    -0.384 NA
BRANCH  13  14
HETATM   14  C17 UNL     1      24.359  25.887  18.522  1.00  0.00     0.159 C
BRANCH  14  15
HETATM   15  C18 UNL     1      25.849  25.637  18.453  1.00  0.00     0.124 C
BRANCH  15  16
HETATM   16  C19 UNL     1      26.217  24.317  19.058  1.00  0.00    -0.011 A
HETATM   17  C20 UNL     1      25.929  23.040  18.683  1.00  0.00     0.015 A
HETATM   18  C21 UNL     1      26.401  22.037  19.428  1.00  0.00     0.008 A
HETATM   19  C22 UNL     1      27.148  22.357  20.524  1.00  0.00     0.050 A
HETATM   20  S2  UNL     1      27.173  24.058  20.487  1.00  0.00    -0.106 SA
ENDBRANCH  15  16
ENDBRANCH  14  15
BRANCH  14  21
HETATM   21  C23 UNL     1      23.737  26.597  17.404  1.00  0.00     0.278 C
HETATM   22  O4  UNL     1      24.294  27.728  17.125  1.00  0.00    -0.265 OA
HETATM   23  N6  UNL     1      22.653  26.208  16.629  1.00  0.00    -0.351 N
ATOM     24  H6  UNL     1      22.184  25.320  16.807  1.00  0.00     0.163 HD
BRANCH  23  25
HETATM   25  C24 UNL     1      22.193  27.091  15.550  1.00  0.00     0.161 C
BRANCH  25  26
HETATM   26  C25 UNL     1      21.022  26.515  14.833  1.00  0.00    -0.041 A
HETATM   27  C26 UNL     1      20.997  25.190  14.468  1.00  0.00     0.009 A
HETATM   28  C27 UNL     1      19.872  24.679  13.816  1.00  0.00     0.001 A
HETATM   29  C28 UNL     1      18.791  25.474  13.531  1.00  0.00     0.000 A
HETATM   30  C29 UNL     1      18.814  26.803  13.896  1.00  0.00     0.001 A
HETATM   31  C30 UNL     1      19.920  27.297  14.535  1.00  0.00     0.009 A
ENDBRANCH  25  26
ENDBRANCH  23  25
ENDBRANCH  14  21
ENDBRANCH  13  14
ENDBRANCH  10  13
ENDBRANCH   9  10
ENDBRANCH   8   9
ENDBRANCH   7   8
BRANCH   1  32
HETATM   32  C11 UNL     1      18.611  25.092  17.390  1.00  0.00     0.189 C
BRANCH  32  33
HETATM   33  C10 UNL     1      17.685  24.215  16.650  1.00  0.00    -0.038 A
HETATM   34  C9  UNL     1      18.017  22.881  16.533  1.00  0.00     0.010 A
HETATM   35  C8  UNL     1      17.233  21.984  15.837  1.00  0.00     0.013 A
HETATM   36  C7  UNL     1      16.084  22.460  15.246  1.00  0.00    -0.024 A
HETATM   37  C32 UNL     1      15.734  23.766  15.346  1.00  0.00     0.013 A
HETATM   38  C31 UNL     1      16.552  24.659  16.062  1.00  0.00     0.010 A
BRANCH  36  39
HETATM   39  C6  UNL     1      15.278  21.530  14.476  1.00  0.00    -0.003 A
HETATM   40  C1  UNL     1      14.409  20.691  15.102  1.00  0.00     0.090 A
HETATM   41  C2  UNL     1      13.673  19.823  14.282  1.00  0.00     0.026 A
HETATM   42  C3  UNL     1      13.824  19.823  12.914  1.00  0.00     0.002 A
HETATM   43  C4  UNL     1      14.706  20.676  12.283  1.00  0.00     0.001 A
HETATM   44  C5  UNL     1      15.430  21.527  13.073  1.00  0.00     0.014 A
BRANCH  40  45
HETATM   45  S1  UNL     1      14.191  20.658  16.818  1.00  0.00     0.257 S
HETATM   46  O1  UNL     1      15.400  19.993  17.460  1.00  0.00    -0.201 OA
HETATM   47  O2  UNL     1      12.991  19.766  17.118  1.00  0.00    -0.201 OA
BRANCH  45  48
HETATM   48  N1  UNL     1      13.884  22.163  17.545  1.00  0.00    -0.324 N
ATOM     49  H12 UNL     1      13.600  22.278  18.518  1.00  0.00     0.169 HD
ATOM     50  H11 UNL     1      14.023  22.919  16.874  1.00  0.00     0.169 HD
ENDBRANCH  45  48
ENDBRANCH  40  45
ENDBRANCH  36  39
ENDBRANCH  32  33
ENDBRANCH   1  32
TORSDOF 16
ENDMDL