MODEL 5
REMARK VINA RESULT: -9.708962407      3.114      9.904
REMARK  14 active torsions:
REMARK  status: ('A' for Active; 'I' for Inactive)
REMARK    1  A    between atoms: C5_5  and  C6_6
REMARK    2  A    between atoms: C6_6  and  C7_7
REMARK       I    between atoms: C7_7  and  N1_9
REMARK    3  A    between atoms: C9_16  and  C10_17
REMARK    4  A    between atoms: C10_17  and  C11_18
REMARK    5  A    between atoms: C11_18  and  S1_19
REMARK    6  A    between atoms: S1_19  and  C12_20
REMARK    7  A    between atoms: C12_20  and  C13_21
REMARK    8  A    between atoms: C13_21  and  C14_22
REMARK    9  A    between atoms: N6_28  and  C16_30
REMARK   10  A    between atoms: C16_30  and  O2_31
REMARK   11  A    between atoms: C16_30  and  C17_33
REMARK   12  A    between atoms: C17_33  and  C18_34
REMARK   13  A    between atoms: C22_38  and  C23_39
REMARK   14  A    between atoms: C23_39  and  C24_40
ROOT
HETATM    1  C14 UNL     1      10.651  16.785  14.164  1.00  0.00     0.070 A
HETATM    2  N4  UNL     1      11.613  16.439  13.328  1.00  0.00    -0.296 N
ATOM      3  H4  UNL     1      11.710  15.463  13.046  1.00  0.00     0.187 HD
HETATM    4  N5  UNL     1      12.419  17.309  12.874  1.00  0.00    -0.279 N
ATOM      5  H5  UNL     1      13.158  17.032  12.227  1.00  0.00     0.189 HD
HETATM    6  C15 UNL     1      12.299  18.580  13.240  1.00  0.00     0.166 A
HETATM    7  N6  UNL     1      12.943  19.643  12.971  1.00  0.00    -0.320 N
ATOM      8  H6  UNL     1      12.579  20.479  13.429  1.00  0.00     0.169 HD
HETATM    9  S2  UNL     1      10.913  18.458  14.312  1.00  0.00    -0.038 SA
ENDROOT
BRANCH   1  10
HETATM   10  C13 UNL     1       9.613  15.896  14.810  1.00  0.00     0.076 C
BRANCH  10  11
HETATM   11  C12 UNL     1      10.363  14.913  15.702  1.00  0.00     0.080 C
BRANCH  11  12
HETATM   12  S1  UNL     1      10.518  15.443  17.369  1.00  0.00    -0.168 SA
BRANCH  12  13
HETATM   13  C11 UNL     1      10.156  17.091  17.825  1.00  0.00     0.080 C
BRANCH  13  14
HETATM   14  C10 UNL     1      10.928  17.784  18.885  1.00  0.00     0.076 C
BRANCH  14  15
HETATM   15  C9  UNL     1      11.835  18.825  18.356  1.00  0.00     0.070 A
HETATM   16  N3  UNL     1      11.599  19.823  17.518  1.00  0.00    -0.296 N
HETATM   17  N2  UNL     1      12.514  20.622  17.175  1.00  0.00    -0.279 N
ATOM     18  H3  UNL     1      10.659  19.949  17.142  1.00  0.00     0.187 HD
HETATM   19  C8  UNL     1      13.746  20.447  17.675  1.00  0.00     0.167 A
ATOM     20  H2  UNL     1      12.320  21.386  16.529  1.00  0.00     0.189 HD
HETATM   21  N1  UNL     1      14.806  21.184  17.427  1.00  0.00    -0.306 N
HETATM   22  S3  UNL     1      13.524  19.075  18.666  1.00  0.00    -0.038 SA
HETATM   23  C7  UNL     1      16.008  20.797  18.078  1.00  0.00     0.229 C
ATOM     24  H1  UNL     1      14.768  21.989  16.801  1.00  0.00     0.171 HD
HETATM   25  O1  UNL     1      16.964  20.290  17.399  1.00  0.00    -0.273 OA
BRANCH  23  26
HETATM   26  C6  UNL     1      16.191  20.965  19.532  1.00  0.00     0.160 C
BRANCH  26  27
HETATM   27  C5  UNL     1      17.170  22.075  19.747  1.00  0.00     0.017 A
HETATM   28  C4  UNL     1      18.345  21.763  20.393  1.00  0.00     0.026 A
HETATM   29  C3  UNL     1      19.285  22.739  20.615  1.00  0.00     0.010 A
HETATM   30  C2  UNL     1      19.024  24.042  20.174  1.00  0.00    -0.047 A
HETATM   31  C1  UNL     1      20.034  25.116  20.403  1.00  0.00     0.049 C
HETATM   32  C31 UNL     1      17.842  24.302  19.538  1.00  0.00     0.094 A
HETATM   33  N7  UNL     1      16.908  23.335  19.317  1.00  0.00    -0.368 N
ATOM     34  H7  UNL     1      16.033  23.553  18.839  1.00  0.00     0.165 HD
ENDBRANCH  26  27
ENDBRANCH  23  26
ENDBRANCH  14  15
ENDBRANCH  13  14
ENDBRANCH  12  13
ENDBRANCH  11  12
ENDBRANCH  10  11
ENDBRANCH   1  10
BRANCH   7  35
HETATM   35  C16 UNL     1      14.042  19.874  12.173  1.00  0.00     0.121 C
BRANCH  35  36
HETATM   36  O2  UNL     1      14.644  18.784  11.776  1.00  0.00    -0.349 OA
ATOM     37  H2  UNL     1      15.582  18.787  11.927  1.00  0.00     0.219 HD
ENDBRANCH  35  36
BRANCH  35  38
HETATM   38  C17 UNL     1      14.601  21.181  11.730  1.00  0.00     0.122 C
BRANCH  38  39
HETATM   39  C18 UNL     1      14.578  22.107  12.921  1.00  0.00    -0.050 A
HETATM   40  C19 UNL     1      13.427  22.781  13.262  1.00  0.00     0.007 A
HETATM   41  C20 UNL     1      13.464  23.637  14.370  1.00  0.00     0.001 A
HETATM   42  C21 UNL     1      14.625  23.801  15.103  1.00  0.00     0.007 A
HETATM   43  C22 UNL     1      15.778  23.128  14.764  1.00  0.00    -0.053 A
HETATM   44  C30 UNL     1      15.718  22.294  13.672  1.00  0.00     0.015 A
BRANCH  43  45
HETATM   45  C23 UNL     1      17.034  23.307  15.534  1.00  0.00     0.077 C
BRANCH  45  46
HETATM   46  C24 UNL     1      17.919  24.318  14.968  1.00  0.00    -0.054 A
HETATM   47  C25 UNL     1      19.272  24.104  14.895  1.00  0.00     0.007 A
HETATM   48  C26 UNL     1      20.144  25.043  14.366  1.00  0.00     0.001 A
HETATM   49  C27 UNL     1      19.627  26.234  13.898  1.00  0.00     0.000 A
HETATM   50  C28 UNL     1      18.290  26.483  13.953  1.00  0.00     0.001 A
HETATM   51  C29 UNL     1      17.438  25.513  14.493  1.00  0.00     0.007 A
ENDBRANCH  45  46
ENDBRANCH  43  45
ENDBRANCH  38  39
ENDBRANCH  35  38
ENDBRANCH   7  35
TORSDOF 14
ENDMDL