MODEL 5
REMARK VINA RESULT: -9.723423121      1.267      4.668
REMARK  12 active torsions:
REMARK  status: ('A' for Active; 'I' for Inactive)
REMARK    1  A    between atoms: C1_2  and  N1_3
REMARK    2  A    between atoms: N1_3  and  C2_5
REMARK    3  A    between atoms: C2_5  and  C3_6
REMARK    4  A    between atoms: C3_6  and  C4_7
REMARK    5  A    between atoms: C3_6  and  C11_17
REMARK    6  A    between atoms: C11_17  and  C12_18
REMARK    7  A    between atoms: C11_17  and  N4_25
REMARK    8  A    between atoms: C12_18  and  C13_19
REMARK    9  A    between atoms: C20_27  and  C21_28
REMARK   10  A    between atoms: C21_28  and  N5_29
REMARK   11  A    between atoms: N6_32  and  C24_33
REMARK   12  A    between atoms: C24_33  and  C25_34
ROOT
HETATM    1  N4  UNL     1      14.743  23.272  14.911  1.00  0.00    -0.278 N
HETATM    2  C19 UNL     1      14.838  22.534  13.804  1.00  0.00     0.140 A
HETATM    3  C20 UNL     1      13.573  22.442  13.210  1.00  0.00     0.062 A
HETATM    4  N7  UNL     1      12.774  23.149  14.019  1.00  0.00    -0.287 N
ATOM      5  H7  UNL     1      11.773  23.293  13.885  1.00  0.00     0.188 HD
HETATM    6  N8  UNL     1      13.496  23.634  15.027  1.00  0.00    -0.240 N
ATOM      7  H8  UNL     1      13.126  24.208  15.784  1.00  0.00     0.208 HD
ENDROOT
BRANCH   1   8
HETATM    8  C11 UNL     1      15.919  23.582  15.799  1.00  0.00     0.147 C
BRANCH   8   9
HETATM    9  C3  UNL     1      16.463  22.304  16.244  1.00  0.00     0.104 C
BRANCH   9  10
HETATM   10  C2  UNL     1      17.787  22.136  16.855  1.00  0.00     0.076 C
BRANCH  10  11
HETATM   11  N1  UNL     1      18.286  22.947  17.872  1.00  0.00    -0.347 N
ATOM     12  H1  UNL     1      18.305  23.962  17.769  1.00  0.00     0.167 HD
BRANCH  11  13
HETATM   13  C1  UNL     1      18.770  22.328  19.059  1.00  0.00     0.352 C
HETATM   14  O1  UNL     1      18.335  21.208  19.457  1.00  0.00    -0.283 OA
ENDBRANCH  11  13
ENDBRANCH  10  11
ENDBRANCH   9  10
BRANCH   9  15
HETATM   15  C4  UNL     1      15.537  21.948  17.434  1.00  0.00     0.044 A
HETATM   16  C5  UNL     1      14.990  22.882  18.245  1.00  0.00     0.116 A
HETATM   17  N2  UNL     1      14.238  22.259  19.209  1.00  0.00    -0.350 N
HETATM   18  C6  UNL     1      14.358  20.933  18.945  1.00  0.00     0.111 A
ATOM     19  H2  UNL     1      13.705  22.697  19.961  1.00  0.00     0.166 HD
HETATM   20  C7  UNL     1      13.800  19.885  19.617  1.00  0.00     0.049 A
HETATM   21  N3  UNL     1      15.157  20.753  17.853  1.00  0.00    -0.310 N
HETATM   22  C8  UNL     1      14.050  18.604  19.184  1.00  0.00     0.005 A
HETATM   23  C9  UNL     1      14.851  18.435  18.091  1.00  0.00     0.018 A
HETATM   24  C10 UNL     1      15.405  19.505  17.425  1.00  0.00     0.099 A
ENDBRANCH   9  15
ENDBRANCH   8   9
BRANCH   8  25
HETATM   25  C12 UNL     1      16.541  24.734  15.190  1.00  0.00     0.012 C
BRANCH  25  26
HETATM   26  C13 UNL     1      17.953  25.020  15.116  1.00  0.00    -0.038 A
HETATM   27  C14 UNL     1      18.565  25.847  16.042  1.00  0.00     0.011 A
HETATM   28  C15 UNL     1      19.903  26.157  16.027  1.00  0.00     0.001 A
HETATM   29  C16 UNL     1      20.668  25.607  15.029  1.00  0.00     0.000 A
HETATM   30  C17 UNL     1      20.115  24.766  14.064  1.00  0.00     0.001 A
HETATM   31  C18 UNL     1      18.777  24.481  14.112  1.00  0.00     0.011 A
ENDBRANCH  25  26
ENDBRANCH   8  25
ENDBRANCH   1   8
BRANCH   3  32
HETATM   32  C21 UNL     1      13.271  21.712  11.961  1.00  0.00     0.186 C
BRANCH  32  33
HETATM   33  N5  UNL     1      12.749  20.379  12.233  1.00  0.00    -0.341 N
HETATM   34  C22 UNL     1      11.461  20.226  12.860  1.00  0.00     0.146 C
HETATM   35  C23 UNL     1      10.588  19.171  12.273  1.00  0.00     0.143 C
HETATM   36  N6  UNL     1      10.999  17.821  12.647  1.00  0.00    -0.374 N
HETATM   37  C31 UNL     1      12.217  17.233  12.202  1.00  0.00     0.046 A
HETATM   38  C32 UNL     1      12.147  15.862  12.154  1.00  0.00     0.030 A
HETATM   39  C36 UNL     1      13.406  17.860  11.833  1.00  0.00     0.058 A
HETATM   40  C33 UNL     1      13.245  15.157  11.745  1.00  0.00     0.002 A
HETATM   41  C34 UNL     1      14.424  15.784  11.380  1.00  0.00     0.001 A
HETATM   42  C35 UNL     1      14.508  17.165  11.423  1.00  0.00     0.019 A
HETATM   43  C37 UNL     1      13.619  19.329  11.835  1.00  0.00     0.256 C
HETATM   44  O2  UNL     1      14.778  19.648  11.403  1.00  0.00    -0.267 OA
BRANCH  36  45
HETATM   45  C24 UNL     1      10.190  17.012  13.486  1.00  0.00     0.161 C
BRANCH  45  46
HETATM   46  C25 UNL     1      10.563  16.986  14.927  1.00  0.00    -0.040 A
HETATM   47  C26 UNL     1      10.876  18.128  15.583  1.00  0.00     0.009 A
HETATM   48  C27 UNL     1      11.221  18.031  16.933  1.00  0.00     0.001 A
HETATM   49  C28 UNL     1      11.244  16.817  17.585  1.00  0.00     0.000 A
HETATM   50  C29 UNL     1      10.916  15.683  16.870  1.00  0.00     0.001 A
HETATM   51  C30 UNL     1      10.573  15.747  15.540  1.00  0.00     0.009 A
ENDBRANCH  45  46
ENDBRANCH  36  45
ENDBRANCH  32  33
ENDBRANCH   3  32
TORSDOF 12
ENDMDL