MODEL 1
REMARK VINA RESULT: -8.897647714      0.000      0.000
REMARK  17 active torsions:
REMARK  status: ('A' for Active; 'I' for Inactive)
REMARK    1  A    between atoms: C2_2  and  C3_3
REMARK    2  A    between atoms: C4_4  and  C5_5
REMARK    3  A    between atoms: C5_5  and  C6_6
REMARK    4  A    between atoms: C6_6  and  C7_7
REMARK    5  A    between atoms: C6_6  and  C12_12
REMARK    6  A    between atoms: C7_7  and  C8_8
REMARK       I    between atoms: C12_12  and  N1_14
REMARK    7  A    between atoms: N1_14  and  C13_16
REMARK    8  A    between atoms: C13_16  and  C14_17
REMARK    9  A    between atoms: C16_19  and  C17_20
REMARK   10  A    between atoms: C17_20  and  N2_21
REMARK       I    between atoms: N2_21  and  C18_22
REMARK   11  A    between atoms: C18_22  and  C19_24
REMARK   12  A    between atoms: C20_27  and  C21_28
REMARK   13  A    between atoms: C21_28  and  O3_30
REMARK   14  A    between atoms: C31_42  and  O4_43
REMARK   15  A    between atoms: O4_43  and  C32_44
REMARK       I    between atoms: C32_44  and  N5_46
REMARK   16  A    between atoms: N5_46  and  C33_47
REMARK   17  A    between atoms: N5_46  and  C35_49
ROOT
HETATM    1  C12 UNL     1      18.561  25.308  14.382  1.00  0.00     0.255 C
HETATM    2  O1  UNL     1      19.120  25.179  13.265  1.00  0.00    -0.267 OA
HETATM    3  N1  UNL     1      18.759  26.536  15.063  1.00  0.00    -0.352 N
ATOM      4  H1  UNL     1      18.320  26.668  15.974  1.00  0.00     0.163 HD
ENDROOT
BRANCH   1   5
HETATM    5  C6  UNL     1      17.730  24.226  14.942  1.00  0.00     0.055 C
BRANCH   5   6
HETATM    6  C5  UNL     1      18.132  24.065  16.480  1.00  0.00     0.091 C
BRANCH   6   7
HETATM    7  C4  UNL     1      17.606  22.910  17.126  1.00  0.00    -0.044 A
HETATM    8  C3  UNL     1      16.318  22.844  17.644  1.00  0.00    -0.018 A
HETATM    9  C31 UNL     1      15.779  21.692  18.185  1.00  0.00     0.087 A
HETATM   10  C30 UNL     1      16.553  20.573  18.218  1.00  0.00     0.038 A
HETATM   11  C29 UNL     1      17.855  20.573  17.716  1.00  0.00     0.003 A
HETATM   12  C28 UNL     1      18.384  21.756  17.170  1.00  0.00     0.008 A
BRANCH   8  13
HETATM   13  C2  UNL     1      15.526  24.061  17.798  1.00  0.00     0.037 C
HETATM   14  C1  UNL     1      16.443  25.058  18.552  1.00  0.00     0.010 C
ENDBRANCH   8  13
BRANCH   9  15
HETATM   15  O4  UNL     1      14.440  21.676  18.676  1.00  0.00    -0.261 OA
BRANCH  15  16
HETATM   16  C32 UNL     1      13.665  20.653  18.039  1.00  0.00     0.368 C
HETATM   17  O5  UNL     1      13.459  20.816  16.781  1.00  0.00    -0.238 OA
HETATM   18  N5  UNL     1      13.133  19.503  18.632  1.00  0.00    -0.328 N
BRANCH  18  19
HETATM   19  C33 UNL     1      12.383  18.492  17.884  1.00  0.00     0.123 C
HETATM   20  C34 UNL     1      10.898  18.860  17.796  1.00  0.00     0.026 C
ENDBRANCH  18  19
BRANCH  18  21
HETATM   21  C35 UNL     1      13.336  19.296  20.071  1.00  0.00     0.123 C
HETATM   22  C36 UNL     1      13.357  17.849  20.385  1.00  0.00     0.026 C
ENDBRANCH  18  21
ENDBRANCH  15  16
ENDBRANCH   9  15
ENDBRANCH   6   7
ENDBRANCH   5   6
BRANCH   5  23
HETATM   23  C7  UNL     1      16.864  23.506  14.428  1.00  0.00    -0.134 C
BRANCH  23  24
HETATM   24  C8  UNL     1      15.640  22.937  13.918  1.00  0.00     0.005 C
HETATM   25  C9  UNL     1      15.703  21.414  14.288  1.00  0.00     0.027 C
HETATM   26  C10 UNL     1      14.379  23.458  14.499  1.00  0.00     0.027 C
HETATM   27  C11 UNL     1      15.506  22.891  12.387  1.00  0.00     0.027 C
ENDBRANCH  23  24
ENDBRANCH   5  23
ENDBRANCH   1   5
BRANCH   3  28
HETATM   28  C13 UNL     1      19.573  27.626  14.506  1.00  0.00     0.169 C
BRANCH  28  29
HETATM   29  C14 UNL     1      20.870  27.638  15.231  1.00  0.00     0.001 A
HETATM   30  C15 UNL     1      21.011  27.357  16.600  1.00  0.00     0.026 A
HETATM   31  C16 UNL     1      22.286  27.432  17.125  1.00  0.00    -0.021 A
HETATM   32  C27 UNL     1      23.250  27.779  16.233  1.00  0.00     0.060 A
HETATM   33  S1  UNL     1      22.458  27.999  14.776  1.00  0.00    -0.104 SA
BRANCH  31  34
HETATM   34  C17 UNL     1      22.501  27.111  18.543  1.00  0.00     0.261 C
BRANCH  34  35
HETATM   35  N2  UNL     1      21.589  25.952  19.031  1.00  0.00    -0.407 NA
HETATM   36  C18 UNL     1      20.888  25.071  19.402  1.00  0.00     0.340 C
HETATM   37  O2  UNL     1      19.657  24.844  19.407  1.00  0.00    -0.253 OA
BRANCH  36  38
HETATM   38  C19 UNL     1      21.610  23.813  20.029  1.00  0.00     0.430 C
HETATM   39  N3  UNL     1      22.887  23.683  19.540  1.00  0.00    -0.351 N
HETATM   40  C20 UNL     1      23.792  23.978  20.386  1.00  0.00     0.070 C
ATOM     41  H3  UNL     1      23.092  23.377  18.589  1.00  0.00     0.162 HD
HETATM   42  C23 UNL     1      23.149  24.373  21.632  1.00  0.00     0.278 C
HETATM   43  C24 UNL     1      23.354  25.866  21.901  1.00  0.00     0.044 C
HETATM   44  N4  UNL     1      21.764  24.109  21.441  1.00  0.00     0.132 N
HETATM   45  C25 UNL     1      22.008  26.341  22.280  1.00  0.00     0.033 C
HETATM   46  C26 UNL     1      21.035  25.229  21.931  1.00  0.00     0.277 C
BRANCH  40  47
HETATM   47  C21 UNL     1      25.243  23.913  20.109  1.00  0.00     0.064 C
HETATM   48  C22 UNL     1      26.327  23.727  21.061  1.00  0.00     0.078 C
BRANCH  47  49
HETATM   49  O3  UNL     1      25.570  24.037  18.845  1.00  0.00    -0.363 OA
ATOM     50  H3  UNL     1      26.312  24.606  18.679  1.00  0.00     0.217 HD
ENDBRANCH  47  49
ENDBRANCH  40  47
ENDBRANCH  36  38
ENDBRANCH  34  35
ENDBRANCH  31  34
ENDBRANCH  28  29
ENDBRANCH   3  28
TORSDOF 17
ENDMDL